ver_1.2
     RDKit          3D

 14 15  0  0  0  0  0  0  0  0999 V2000
    3.0286    1.5015   -0.1127 C   0  0  0  0  0  0  0  0  0  0  0  0
    2.2018    0.3256   -0.0699 N   0  0  0  0  0  0  0  0  0  0  0  0
    2.6332   -0.9379   -0.0628 C   0  0  0  0  0  0  0  0  0  0  0  0
    1.5895   -1.7853   -0.0188 N   0  0  0  0  0  0  0  0  0  0  0  0
    0.4586   -1.0283    0.0026 C   0  0  0  0  0  0  0  0  0  0  0  0
    0.8619    0.3129   -0.0303 C   0  0  0  0  0  0  0  0  0  0  0  0
   -0.1366    1.2477   -0.0155 C   0  0  0  0  0  0  0  0  0  0  0  0
    0.2041    2.4631   -0.0446 O   0  0  0  0  0  0  0  0  0  0  0  0
   -1.4590    0.9489    0.0281 N   0  0  0  0  0  0  0  0  0  0  0  0
   -1.8029   -0.3496    0.0585 C   0  0  0  0  0  0  0  0  0  0  0  0
   -3.0094   -0.6985    0.0995 O   0  0  0  0  0  0  0  0  0  0  0  0
   -0.8645   -1.3053    0.0459 N   0  0  0  0  0  0  0  0  0  0  0  0
   -1.2562   -2.7029    0.0793 C   0  0  0  0  0  0  0  0  0  0  0  0
   -2.4490    2.0080    0.0406 C   0  0  0  0  0  0  0  0  0  0  0  0
  1  2  1  0
  2  3  1  0
  3  4  2  0
  4  5  1  0
  5  6  2  0
  6  7  1  0
  7  8  2  0
  7  9  1  0
  9 10  1  0
 10 11  2  0
 10 12  1  0
 12 13  1  0
  9 14  1  0
  6  2  1  0
 12  5  1  0
M  END
>  <ref_url>  (1) 
https://github.com/matteoferla/EV-A71-2A-elaborations

>  <submitter_name>  (1) 
Matteo Ferla

>  <submitter_email>  (1) 
matteo.ferla@stats.ox.ac.uk

>  <submitter_institution>  (1) 
University of Oxford

>  <generation_date>  (1) 
2024-03-19

>  <method>  (1) 
A71-Fragmenstein-iter2-hybrid

>  <rationale>  (1) 
rationale

>  <intxn_cluster>  (1) 
intxn_cluster

>  <intxn_cluster_rank>  (1) 
intxn_cluster_rank

>  <N_interactions>  (1) 
N_interactions

>  <∆∆G>  (1) 
∆∆G

>  <$/mg>  (1) 
$/mg

>  <comRMSD>  (1) 
comRMSD

>  <N_rotatable_bonds>  (1) 
N_rotatable_bonds

>  <deep_P1_sidechain>  (1) 
deep_P1_sidechain

>  <farthest_distance_to_substrate>  (1) 
farthest_distance_to_substrate

>  <hbond:SER:7>  (1) 
hbond:SER:7

>  <halogenbond:SER:7>  (1) 
halogenbond:SER:7

>  <hbond:GLY:8>  (1) 
hbond:GLY:8

>  <hydroph_interaction:VAL:18>  (1) 
hydroph_interaction:VAL:18

>  <hbond:ASN:19>  (1) 
hbond:ASN:19

>  <hydroph_interaction:ASN:19>  (1) 
hydroph_interaction:ASN:19

>  <halogenbond:ASN:19>  (1) 
halogenbond:ASN:19

>  <hbond:ARG:20>  (1) 
hbond:ARG:20

>  <hydroph_interaction:ARG:20>  (1) 
hydroph_interaction:ARG:20

>  <saltbridge:ARG:20>  (1) 
saltbridge:ARG:20

>  <halogenbond:ARG:20>  (1) 
halogenbond:ARG:20

>  <pication:ARG:20>  (1) 
pication:ARG:20

>  <hbond:HIS:21>  (1) 
hbond:HIS:21

>  <hydroph_interaction:HIS:21>  (1) 
hydroph_interaction:HIS:21

>  <pistack:HIS:21>  (1) 
pistack:HIS:21

>  <pication:HIS:21>  (1) 
pication:HIS:21

>  <saltbridge:HIS:21>  (1) 
saltbridge:HIS:21

>  <halogenbond:HIS:21>  (1) 
halogenbond:HIS:21

>  <hydroph_interaction:LEU:22>  (1) 
hydroph_interaction:LEU:22

>  <hbond:LEU:22>  (1) 
hbond:LEU:22

>  <hydroph_interaction:TRP:28>  (1) 
hydroph_interaction:TRP:28

>  <hbond:SER:36>  (1) 
hbond:SER:36

>  <halogenbond:SER:36>  (1) 
halogenbond:SER:36

>  <hbond:SER:37>  (1) 
hbond:SER:37

>  <hbond:ARG:38>  (1) 
hbond:ARG:38

>  <halogenbond:ARG:38>  (1) 
halogenbond:ARG:38

>  <saltbridge:ASP:39>  (1) 
saltbridge:ASP:39

>  <halogenbond:ASP:39>  (1) 
halogenbond:ASP:39

>  <hbond:ASP:39>  (1) 
hbond:ASP:39

>  <hydroph_interaction:ASP:39>  (1) 
hydroph_interaction:ASP:39

>  <hydroph_interaction:LEU:40>  (1) 
hydroph_interaction:LEU:40

>  <hydroph_interaction:TYR:63>  (1) 
hydroph_interaction:TYR:63

>  <hbond:TYR:63>  (1) 
hbond:TYR:63

>  <pistack:TYR:63>  (1) 
pistack:TYR:63

>  <pication:TYR:63>  (1) 
pication:TYR:63

>  <halogenbond:TYR:64>  (1) 
halogenbond:TYR:64

>  <hbond:TYR:64>  (1) 
hbond:TYR:64

>  <hydroph_interaction:TYR:64>  (1) 
hydroph_interaction:TYR:64

>  <halogenbond:CYS:65>  (1) 
halogenbond:CYS:65

>  <hbond:CYS:65>  (1) 
hbond:CYS:65

>  <hbond:SER:66>  (1) 
hbond:SER:66

>  <halogenbond:SER:66>  (1) 
halogenbond:SER:66

>  <hbond:SER:67>  (1) 
hbond:SER:67

>  <halogenbond:SER:67>  (1) 
halogenbond:SER:67

>  <hbond:ARG:68>  (1) 
hbond:ARG:68

>  <saltbridge:ARG:68>  (1) 
saltbridge:ARG:68

>  <hydroph_interaction:ARG:68>  (1) 
hydroph_interaction:ARG:68

>  <pication:ARG:68>  (1) 
pication:ARG:68

>  <hydroph_interaction:TYR:72>  (1) 
hydroph_interaction:TYR:72

>  <hydroph_interaction:VAL:74>  (1) 
hydroph_interaction:VAL:74

>  <hydroph_interaction:PHE:76>  (1) 
hydroph_interaction:PHE:76

>  <hbond:SER:77>  (1) 
hbond:SER:77

>  <hbond:SER:80>  (1) 
hbond:SER:80

>  <hbond:LEU:81>  (1) 
hbond:LEU:81

>  <halogenbond:LEU:81>  (1) 
halogenbond:LEU:81

>  <hydroph_interaction:LEU:81>  (1) 
hydroph_interaction:LEU:81

>  <hydroph_interaction:ILE:82>  (1) 
hydroph_interaction:ILE:82

>  <halogenbond:ILE:82>  (1) 
halogenbond:ILE:82

>  <hbond:ILE:82>  (1) 
hbond:ILE:82

>  <hbond:PHE:83>  (1) 
hbond:PHE:83

>  <hydroph_interaction:PHE:83>  (1) 
hydroph_interaction:PHE:83

>  <halogenbond:PHE:83>  (1) 
halogenbond:PHE:83

>  <pistack:PHE:83>  (1) 
pistack:PHE:83

>  <pication:PHE:83>  (1) 
pication:PHE:83

>  <hydroph_interaction:VAL:84>  (1) 
hydroph_interaction:VAL:84

>  <halogenbond:VAL:84>  (1) 
halogenbond:VAL:84

>  <hbond:VAL:84>  (1) 
hbond:VAL:84

>  <hydroph_interaction:GLU:85>  (1) 
hydroph_interaction:GLU:85

>  <hbond:GLU:85>  (1) 
hbond:GLU:85

>  <halogenbond:GLU:85>  (1) 
halogenbond:GLU:85

>  <saltbridge:GLU:85>  (1) 
saltbridge:GLU:85

>  <halogenbond:ALA:86>  (1) 
halogenbond:ALA:86

>  <hbond:ALA:86>  (1) 
hbond:ALA:86

>  <hydroph_interaction:ALA:86>  (1) 
hydroph_interaction:ALA:86

>  <hbond:SER:87>  (1) 
hbond:SER:87

>  <halogenbond:SER:87>  (1) 
halogenbond:SER:87

>  <hbond:GLU:88>  (1) 
hbond:GLU:88

>  <hydroph_interaction:GLU:88>  (1) 
hydroph_interaction:GLU:88

>  <halogenbond:GLU:88>  (1) 
halogenbond:GLU:88

>  <saltbridge:GLU:88>  (1) 
saltbridge:GLU:88

>  <hydroph_interaction:TYR:89>  (1) 
hydroph_interaction:TYR:89

>  <pistack:TYR:89>  (1) 
pistack:TYR:89

>  <hbond:TYR:89>  (1) 
hbond:TYR:89

>  <halogenbond:TYR:89>  (1) 
halogenbond:TYR:89

>  <hydroph_interaction:TYR:90>  (1) 
hydroph_interaction:TYR:90

>  <hbond:TYR:90>  (1) 
hbond:TYR:90

>  <pistack:TYR:90>  (1) 
pistack:TYR:90

>  <halogenbond:TYR:90>  (1) 
halogenbond:TYR:90

>  <pication:TYR:90>  (1) 
pication:TYR:90

>  <hbond:PRO:91>  (1) 
hbond:PRO:91

>  <hydroph_interaction:PRO:91>  (1) 
hydroph_interaction:PRO:91

>  <halogenbond:PRO:91>  (1) 
halogenbond:PRO:91

>  <hbond:ALA:92>  (1) 
hbond:ALA:92

>  <hydroph_interaction:ALA:92>  (1) 
hydroph_interaction:ALA:92

>  <saltbridge:ARG:93>  (1) 
saltbridge:ARG:93

>  <hbond:ARG:93>  (1) 
hbond:ARG:93

>  <hydroph_interaction:ARG:93>  (1) 
hydroph_interaction:ARG:93

>  <halogenbond:ARG:93>  (1) 
halogenbond:ARG:93

>  <pication:ARG:93>  (1) 
pication:ARG:93

>  <hydroph_interaction:TYR:94>  (1) 
hydroph_interaction:TYR:94

>  <pistack:TYR:94>  (1) 
pistack:TYR:94

>  <hbond:TYR:94>  (1) 
hbond:TYR:94

>  <hbond:GLN:95>  (1) 
hbond:GLN:95

>  <hydroph_interaction:GLN:95>  (1) 
hydroph_interaction:GLN:95

>  <halogenbond:GLN:95>  (1) 
halogenbond:GLN:95

>  <hbond:SER:96>  (1) 
hbond:SER:96

>  <halogenbond:HIS:97>  (1) 
halogenbond:HIS:97

>  <hydroph_interaction:LEU:98>  (1) 
hydroph_interaction:LEU:98

>  <hbond:LEU:98>  (1) 
hbond:LEU:98

>  <halogenbond:LEU:98>  (1) 
halogenbond:LEU:98

>  <hbond:MET:99>  (1) 
hbond:MET:99

>  <hydroph_interaction:MET:99>  (1) 
hydroph_interaction:MET:99

>  <halogenbond:MET:99>  (1) 
halogenbond:MET:99

>  <hydroph_interaction:LEU:100>  (1) 
hydroph_interaction:LEU:100

>  <hbond:LEU:100>  (1) 
hbond:LEU:100

>  <hbond:ALA:101>  (1) 
hbond:ALA:101

>  <hydroph_interaction:ALA:101>  (1) 
hydroph_interaction:ALA:101

>  <hydroph_interaction:VAL:102>  (1) 
hydroph_interaction:VAL:102

>  <hbond:VAL:102>  (1) 
hbond:VAL:102

>  <hbond:GLY:103>  (1) 
hbond:GLY:103

>  <halogenbond:GLY:103>  (1) 
halogenbond:GLY:103

>  <hbond:HIS:104>  (1) 
hbond:HIS:104

>  <saltbridge:HIS:104>  (1) 
saltbridge:HIS:104

>  <pication:HIS:104>  (1) 
pication:HIS:104

>  <halogenbond:HIS:104>  (1) 
halogenbond:HIS:104

>  <hydroph_interaction:HIS:104>  (1) 
hydroph_interaction:HIS:104

>  <pistack:HIS:104>  (1) 
pistack:HIS:104

>  <halogenbond:SER:105>  (1) 
halogenbond:SER:105

>  <hbond:SER:105>  (1) 
hbond:SER:105

>  <hbond:GLU:106>  (1) 
hbond:GLU:106

>  <hydroph_interaction:GLU:106>  (1) 
hydroph_interaction:GLU:106

>  <saltbridge:GLU:106>  (1) 
saltbridge:GLU:106

>  <halogenbond:GLU:106>  (1) 
halogenbond:GLU:106

>  <hydroph_interaction:PRO:107>  (1) 
hydroph_interaction:PRO:107

>  <hbond:PRO:107>  (1) 
hbond:PRO:107

>  <halogenbond:PRO:107>  (1) 
halogenbond:PRO:107

>  <hbond:GLY:108>  (1) 
hbond:GLY:108

>  <halogenbond:GLY:108>  (1) 
halogenbond:GLY:108

>  <hbond:ASP:109>  (1) 
hbond:ASP:109

>  <hydroph_interaction:ASP:109>  (1) 
hydroph_interaction:ASP:109

>  <saltbridge:ASP:109>  (1) 
saltbridge:ASP:109

>  <halogenbond:CYS:110>  (1) 
halogenbond:CYS:110

>  <hbond:CYS:110>  (1) 
hbond:CYS:110

>  <hbond:GLY:111>  (1) 
hbond:GLY:111

>  <hbond:GLY:112>  (1) 
hbond:GLY:112

>  <hbond:ILE:113>  (1) 
hbond:ILE:113

>  <hydroph_interaction:LEU:114>  (1) 
hydroph_interaction:LEU:114

>  <hbond:LEU:114>  (1) 
hbond:LEU:114

>  <hydroph_interaction:ILE:123>  (1) 
hydroph_interaction:ILE:123

>  <hbond:ILE:123>  (1) 
hbond:ILE:123

>  <hydroph_interaction:VAL:124>  (1) 
hydroph_interaction:VAL:124

>  <hbond:VAL:124>  (1) 
hbond:VAL:124

>  <halogenbond:VAL:124>  (1) 
halogenbond:VAL:124

>  <hbond:SER:125>  (1) 
hbond:SER:125

>  <halogenbond:SER:125>  (1) 
halogenbond:SER:125

>  <hydroph_interaction:THR:126>  (1) 
hydroph_interaction:THR:126

>  <hbond:THR:126>  (1) 
hbond:THR:126

>  <halogenbond:THR:126>  (1) 
halogenbond:THR:126

>  <hbond:GLY:127>  (1) 
hbond:GLY:127

>  <halogenbond:GLY:127>  (1) 
halogenbond:GLY:127

>  <hydroph_interaction:GLY:127>  (1) 
hydroph_interaction:GLY:127

>  <hbond:GLY:128>  (1) 
hbond:GLY:128

>  <halogenbond:GLY:128>  (1) 
halogenbond:GLY:128

>  <hydroph_interaction:GLY:128>  (1) 
hydroph_interaction:GLY:128

>  <hbond:ASN:129>  (1) 
hbond:ASN:129

>  <hydroph_interaction:ASN:129>  (1) 
hydroph_interaction:ASN:129

>  <halogenbond:ASN:129>  (1) 
halogenbond:ASN:129

>  <hbond:GLY:130>  (1) 
hbond:GLY:130

>  <hbond:LEU:131>  (1) 
hbond:LEU:131

>  <hydroph_interaction:LEU:131>  (1) 
hydroph_interaction:LEU:131

>  <halogenbond:LEU:131>  (1) 
halogenbond:LEU:131

>  <hydroph_interaction:VAL:132>  (1) 
hydroph_interaction:VAL:132

>  <hbond:VAL:132>  (1) 
hbond:VAL:132

>  <hbond:GLY:133>  (1) 
hbond:GLY:133

>  <halogenbond:GLY:133>  (1) 
halogenbond:GLY:133

>  <hydroph_interaction:PHE:134>  (1) 
hydroph_interaction:PHE:134

>  <hbond:PHE:134>  (1) 
hbond:PHE:134

>  <pistack:PHE:134>  (1) 
pistack:PHE:134

>  <pication:PHE:134>  (1) 
pication:PHE:134

>  <halogenbond:PHE:134>  (1) 
halogenbond:PHE:134

>  <hydroph_interaction:ALA:135>  (1) 
hydroph_interaction:ALA:135

>  <hbond:ALA:135>  (1) 
hbond:ALA:135

$$$$
Z4209640018
     RDKit          3D

 17 18  0  0  0  0  0  0  0  0999 V2000
   28.6237   14.4818    8.4337 C   0  0  0  0  0  0  0  0  0  0  0  0
   29.1658   13.4583    7.7488 C   0  0  0  0  0  0  0  0  0  0  0  0
   28.7434   13.1463    6.3609 C   0  0  0  0  0  0  0  0  0  0  0  0
   30.2244   12.5722    8.3338 C   0  0  0  0  0  0  0  0  0  0  0  0
   30.8971   11.4623    7.7988 C   0  0  0  0  0  0  0  0  0  0  0  0
   30.6605   10.1390    8.2233 C   0  0  0  0  0  0  0  0  0  0  0  0
   31.3528    9.0692    7.6732 C   0  0  0  0  0  0  0  0  0  0  0  0
   32.3072    9.2812    6.6831 C   0  0  0  0  0  0  0  0  0  0  0  0
   32.5518   10.5758    6.2540 C   0  0  0  0  0  0  0  0  0  0  0  0
   31.8591   11.6318    6.8017 C   0  0  0  0  0  0  0  0  0  0  0  0
   32.1190   12.8800    6.3725 O   0  0  0  0  0  0  0  0  0  0  0  0
   33.5108   13.1536    6.3517 C   0  0  0  0  0  0  0  0  0  0  0  0
   34.3351   12.1760    5.5270 C   0  0  2  0  0  0  0  0  0  0  0  0
   34.9207   12.9199    4.3790 C   0  0  0  0  0  0  0  0  0  0  0  0
   35.7563   12.4839    3.6138 O   0  0  0  0  0  0  0  0  0  0  0  0
   34.4578   14.1751    4.2403 O   0  0  0  0  0  0  0  0  0  0  0  0
   33.5681   10.8895    5.1967 C   0  0  0  0  0  0  0  0  0  0  0  0
  1  2  1  0
  2  3  1  0
  2  4  2  3
  4  5  1  0
  5  6  2  0
  6  7  1  0
  7  8  2  0
  8  9  1  0
  9 10  2  0
 10 11  1  0
 11 12  1  0
 12 13  1  0
 13 14  1  6
 14 15  2  0
 14 16  1  0
 13 17  1  0
 10  5  1  0
 17  9  1  0
A    1
 C1 
A    2
 C2 
A    3
 C3 
A    4
 C4 
A    5
 C5 
A    6
 C6 
A    7
 C7 
A    8
 C8 
A    9
 C9 
A   10
 C10
A   11
 O1 
A   12
 C11
A   13
 C12
A   14
 C13
A   15
 O2 
A   16
 O3 
A   17
 C14
M  END
>  <ref_pdb>  (2) 
Ax0310a

>  <ref_mols>  (2) 
Ax0554a,Ax0416a,Ax0446a

>  <original SMILES>  (2) 
CC(C)=Cc1cccc2c1OCC(C(=O)O)C2

>  <rationale>  (2) 
info halogenbond:G127+E85+Q95+E106+T126+P107+H104+Y64+C65+S87+N129+F83+R93+L131+I82+G128+P91+N19+H21+V84+G133+Y90+Y89+H97+L81+F134+L98+R20+G103+S66+S67+S7+G108+R38+V124+M99+S36; hbond:Q95+G108+G103+G130+L131+N19+H104+R68+V124+R93+P91+F83+S67+S7+S66+G112+G133+V132+R20+Y89+S77+A135+Y63+A92+A101+M99+F134+L100+I82+Y64+S36+L98+V84+L81+Y94+S80+R38+S37+V102+G8+I123+G111+I113+L114+C65+L22+S96; hydroph_interaction:T126+H21+P107+L22+N129+D39+N19+L40+I123+A135+Q95+I82+L100+L98+L131+F83+R93+V132+Y63+F134+H104+R20+A86+V74+P91+A101+F76+M99+L114+A92+Y94+R68+Y72+Y64+V18+V102+W28+G127+G128+L81; pication:R93+Y63+F134+Y90+R68+F83+R20; pistack:H21+Y89+Y90+H104+F134+Y63+F83+Y94; saltbridge:D39+R93+H104+D109+E88+R68+R20; 

>  <intxn_cluster>  (2) 
-1

>  <intxn_cluster_rank>  (2) 
-1

>  <N_interactions>  (2) 
2

>  <∆∆G>  (2) 
-10.054722

>  <$/mg>  (2) 
0.0

>  <comRMSD>  (2) 
0.830465

>  <N_rotatable_bonds>  (2) 
4

>  <deep_P1_sidechain>  (2) 
nan

>  <farthest_distance_to_substrate>  (2) 
2.796654

>  <hbond:SER:7>  (2) 
hbond:SER:7    NaN
hbond:SER:7     -1
Name: 0, dtype: object

>  <halogenbond:SER:7>  (2) 
halogenbond:SER:7    NaN
halogenbond:SER:7     -1
Name: 0, dtype: object

>  <hbond:GLY:8>  (2) 
hbond:GLY:8    NaN
hbond:GLY:8     -1
Name: 0, dtype: object

>  <hydroph_interaction:VAL:18>  (2) 
hydroph_interaction:VAL:18    NaN
hydroph_interaction:VAL:18     -1
Name: 0, dtype: object

>  <hbond:ASN:19>  (2) 
hbond:ASN:19    NaN
hbond:ASN:19     -1
Name: 0, dtype: object

>  <hydroph_interaction:ASN:19>  (2) 
hydroph_interaction:ASN:19    NaN
hydroph_interaction:ASN:19     -1
Name: 0, dtype: object

>  <halogenbond:ASN:19>  (2) 
halogenbond:ASN:19    NaN
halogenbond:ASN:19     -1
Name: 0, dtype: object

>  <hbond:ARG:20>  (2) 
hbond:ARG:20    NaN
hbond:ARG:20     -1
Name: 0, dtype: object

>  <hydroph_interaction:ARG:20>  (2) 
hydroph_interaction:ARG:20    NaN
hydroph_interaction:ARG:20     -1
Name: 0, dtype: object

>  <saltbridge:ARG:20>  (2) 
saltbridge:ARG:20    NaN
saltbridge:ARG:20     -1
Name: 0, dtype: object

>  <halogenbond:ARG:20>  (2) 
halogenbond:ARG:20    NaN
halogenbond:ARG:20     -1
Name: 0, dtype: object

>  <pication:ARG:20>  (2) 
pication:ARG:20    NaN
pication:ARG:20     -1
Name: 0, dtype: object

>  <hbond:HIS:21>  (2) 
hbond:HIS:21    0.0
hbond:HIS:21      0
Name: 0, dtype: object

>  <hydroph_interaction:HIS:21>  (2) 
hydroph_interaction:HIS:21    NaN
hydroph_interaction:HIS:21     -1
Name: 0, dtype: object

>  <pistack:HIS:21>  (2) 
pistack:HIS:21    NaN
pistack:HIS:21     -1
Name: 0, dtype: object

>  <pication:HIS:21>  (2) 
pication:HIS:21    0.0
pication:HIS:21      0
Name: 0, dtype: object

>  <saltbridge:HIS:21>  (2) 
saltbridge:HIS:21    0.0
saltbridge:HIS:21      0
Name: 0, dtype: object

>  <halogenbond:HIS:21>  (2) 
halogenbond:HIS:21    NaN
halogenbond:HIS:21     -1
Name: 0, dtype: object

>  <hydroph_interaction:LEU:22>  (2) 
hydroph_interaction:LEU:22    NaN
hydroph_interaction:LEU:22     -1
Name: 0, dtype: object

>  <hbond:LEU:22>  (2) 
hbond:LEU:22    NaN
hbond:LEU:22     -1
Name: 0, dtype: object

>  <hydroph_interaction:TRP:28>  (2) 
hydroph_interaction:TRP:28    NaN
hydroph_interaction:TRP:28     -1
Name: 0, dtype: object

>  <hbond:SER:36>  (2) 
hbond:SER:36    NaN
hbond:SER:36     -1
Name: 0, dtype: object

>  <halogenbond:SER:36>  (2) 
halogenbond:SER:36    NaN
halogenbond:SER:36     -1
Name: 0, dtype: object

>  <hbond:SER:37>  (2) 
hbond:SER:37    NaN
hbond:SER:37     -1
Name: 0, dtype: object

>  <hbond:ARG:38>  (2) 
hbond:ARG:38    NaN
hbond:ARG:38     -1
Name: 0, dtype: object

>  <halogenbond:ARG:38>  (2) 
halogenbond:ARG:38    NaN
halogenbond:ARG:38     -1
Name: 0, dtype: object

>  <saltbridge:ASP:39>  (2) 
saltbridge:ASP:39    NaN
saltbridge:ASP:39     -1
Name: 0, dtype: object

>  <halogenbond:ASP:39>  (2) 
halogenbond:ASP:39    0.0
halogenbond:ASP:39      0
Name: 0, dtype: object

>  <hbond:ASP:39>  (2) 
hbond:ASP:39    0.0
hbond:ASP:39      0
Name: 0, dtype: object

>  <hydroph_interaction:ASP:39>  (2) 
hydroph_interaction:ASP:39    NaN
hydroph_interaction:ASP:39     -1
Name: 0, dtype: object

>  <hydroph_interaction:LEU:40>  (2) 
hydroph_interaction:LEU:40    NaN
hydroph_interaction:LEU:40     -1
Name: 0, dtype: object

>  <hydroph_interaction:TYR:63>  (2) 
hydroph_interaction:TYR:63    NaN
hydroph_interaction:TYR:63     -1
Name: 0, dtype: object

>  <hbond:TYR:63>  (2) 
hbond:TYR:63    NaN
hbond:TYR:63     -1
Name: 0, dtype: object

>  <pistack:TYR:63>  (2) 
pistack:TYR:63    NaN
pistack:TYR:63     -1
Name: 0, dtype: object

>  <pication:TYR:63>  (2) 
pication:TYR:63    NaN
pication:TYR:63     -1
Name: 0, dtype: object

>  <halogenbond:TYR:64>  (2) 
halogenbond:TYR:64    NaN
halogenbond:TYR:64     -1
Name: 0, dtype: object

>  <hbond:TYR:64>  (2) 
hbond:TYR:64    NaN
hbond:TYR:64     -1
Name: 0, dtype: object

>  <hydroph_interaction:TYR:64>  (2) 
hydroph_interaction:TYR:64    NaN
hydroph_interaction:TYR:64     -1
Name: 0, dtype: object

>  <halogenbond:CYS:65>  (2) 
halogenbond:CYS:65    NaN
halogenbond:CYS:65     -1
Name: 0, dtype: object

>  <hbond:CYS:65>  (2) 
hbond:CYS:65    NaN
hbond:CYS:65     -1
Name: 0, dtype: object

>  <hbond:SER:66>  (2) 
hbond:SER:66    NaN
hbond:SER:66     -1
Name: 0, dtype: object

>  <halogenbond:SER:66>  (2) 
halogenbond:SER:66    NaN
halogenbond:SER:66     -1
Name: 0, dtype: object

>  <hbond:SER:67>  (2) 
hbond:SER:67    NaN
hbond:SER:67     -1
Name: 0, dtype: object

>  <halogenbond:SER:67>  (2) 
halogenbond:SER:67    NaN
halogenbond:SER:67     -1
Name: 0, dtype: object

>  <hbond:ARG:68>  (2) 
hbond:ARG:68    NaN
hbond:ARG:68     -1
Name: 0, dtype: object

>  <saltbridge:ARG:68>  (2) 
saltbridge:ARG:68    NaN
saltbridge:ARG:68     -1
Name: 0, dtype: object

>  <hydroph_interaction:ARG:68>  (2) 
hydroph_interaction:ARG:68    NaN
hydroph_interaction:ARG:68     -1
Name: 0, dtype: object

>  <pication:ARG:68>  (2) 
pication:ARG:68    NaN
pication:ARG:68     -1
Name: 0, dtype: object

>  <hydroph_interaction:TYR:72>  (2) 
hydroph_interaction:TYR:72    NaN
hydroph_interaction:TYR:72     -1
Name: 0, dtype: object

>  <hydroph_interaction:VAL:74>  (2) 
hydroph_interaction:VAL:74    NaN
hydroph_interaction:VAL:74     -1
Name: 0, dtype: object

>  <hydroph_interaction:PHE:76>  (2) 
hydroph_interaction:PHE:76    NaN
hydroph_interaction:PHE:76     -1
Name: 0, dtype: object

>  <hbond:SER:77>  (2) 
hbond:SER:77    NaN
hbond:SER:77     -1
Name: 0, dtype: object

>  <hbond:SER:80>  (2) 
hbond:SER:80    NaN
hbond:SER:80     -1
Name: 0, dtype: object

>  <hbond:LEU:81>  (2) 
hbond:LEU:81    NaN
hbond:LEU:81     -1
Name: 0, dtype: object

>  <halogenbond:LEU:81>  (2) 
halogenbond:LEU:81    NaN
halogenbond:LEU:81     -1
Name: 0, dtype: object

>  <hydroph_interaction:LEU:81>  (2) 
hydroph_interaction:LEU:81    NaN
hydroph_interaction:LEU:81     -1
Name: 0, dtype: object

>  <hydroph_interaction:ILE:82>  (2) 
hydroph_interaction:ILE:82    NaN
hydroph_interaction:ILE:82     -1
Name: 0, dtype: object

>  <halogenbond:ILE:82>  (2) 
halogenbond:ILE:82    NaN
halogenbond:ILE:82     -1
Name: 0, dtype: object

>  <hbond:ILE:82>  (2) 
hbond:ILE:82    NaN
hbond:ILE:82     -1
Name: 0, dtype: object

>  <hbond:PHE:83>  (2) 
hbond:PHE:83    NaN
hbond:PHE:83     -1
Name: 0, dtype: object

>  <hydroph_interaction:PHE:83>  (2) 
hydroph_interaction:PHE:83    NaN
hydroph_interaction:PHE:83     -1
Name: 0, dtype: object

>  <halogenbond:PHE:83>  (2) 
halogenbond:PHE:83    NaN
halogenbond:PHE:83     -1
Name: 0, dtype: object

>  <pistack:PHE:83>  (2) 
pistack:PHE:83    NaN
pistack:PHE:83     -1
Name: 0, dtype: object

>  <pication:PHE:83>  (2) 
pication:PHE:83    NaN
pication:PHE:83     -1
Name: 0, dtype: object

>  <hydroph_interaction:VAL:84>  (2) 
hydroph_interaction:VAL:84    0.0
hydroph_interaction:VAL:84      0
Name: 0, dtype: object

>  <halogenbond:VAL:84>  (2) 
halogenbond:VAL:84    NaN
halogenbond:VAL:84     -1
Name: 0, dtype: object

>  <hbond:VAL:84>  (2) 
hbond:VAL:84    NaN
hbond:VAL:84     -1
Name: 0, dtype: object

>  <hydroph_interaction:GLU:85>  (2) 
hydroph_interaction:GLU:85    0.0
hydroph_interaction:GLU:85      0
Name: 0, dtype: object

>  <hbond:GLU:85>  (2) 
hbond:GLU:85    0.0
hbond:GLU:85      0
Name: 0, dtype: object

>  <halogenbond:GLU:85>  (2) 
halogenbond:GLU:85    NaN
halogenbond:GLU:85     -1
Name: 0, dtype: object

>  <saltbridge:GLU:85>  (2) 
saltbridge:GLU:85    0.0
saltbridge:GLU:85      0
Name: 0, dtype: object

>  <halogenbond:ALA:86>  (2) 
halogenbond:ALA:86    0.0
halogenbond:ALA:86      0
Name: 0, dtype: object

>  <hbond:ALA:86>  (2) 
hbond:ALA:86    0.0
hbond:ALA:86      0
Name: 0, dtype: object

>  <hydroph_interaction:ALA:86>  (2) 
hydroph_interaction:ALA:86    NaN
hydroph_interaction:ALA:86     -1
Name: 0, dtype: object

>  <hbond:SER:87>  (2) 
hbond:SER:87    0
hbond:SER:87    0
Name: 0, dtype: object

>  <halogenbond:SER:87>  (2) 
halogenbond:SER:87    NaN
halogenbond:SER:87     -1
Name: 0, dtype: object

>  <hbond:GLU:88>  (2) 
hbond:GLU:88    0.0
hbond:GLU:88      0
Name: 0, dtype: object

>  <hydroph_interaction:GLU:88>  (2) 
hydroph_interaction:GLU:88    0.0
hydroph_interaction:GLU:88      0
Name: 0, dtype: object

>  <halogenbond:GLU:88>  (2) 
halogenbond:GLU:88    0.0
halogenbond:GLU:88      0
Name: 0, dtype: object

>  <saltbridge:GLU:88>  (2) 
saltbridge:GLU:88    NaN
saltbridge:GLU:88     -1
Name: 0, dtype: object

>  <hydroph_interaction:TYR:89>  (2) 
hydroph_interaction:TYR:89    0.0
hydroph_interaction:TYR:89      0
Name: 0, dtype: object

>  <pistack:TYR:89>  (2) 
pistack:TYR:89    NaN
pistack:TYR:89     -1
Name: 0, dtype: object

>  <hbond:TYR:89>  (2) 
hbond:TYR:89    NaN
hbond:TYR:89     -1
Name: 0, dtype: object

>  <halogenbond:TYR:89>  (2) 
halogenbond:TYR:89    NaN
halogenbond:TYR:89     -1
Name: 0, dtype: object

>  <hydroph_interaction:TYR:90>  (2) 
hydroph_interaction:TYR:90    0.0
hydroph_interaction:TYR:90      0
Name: 0, dtype: object

>  <hbond:TYR:90>  (2) 
hbond:TYR:90    0.0
hbond:TYR:90      0
Name: 0, dtype: object

>  <pistack:TYR:90>  (2) 
pistack:TYR:90    NaN
pistack:TYR:90     -1
Name: 0, dtype: object

>  <halogenbond:TYR:90>  (2) 
halogenbond:TYR:90    NaN
halogenbond:TYR:90     -1
Name: 0, dtype: object

>  <pication:TYR:90>  (2) 
pication:TYR:90    NaN
pication:TYR:90     -1
Name: 0, dtype: object

>  <hbond:PRO:91>  (2) 
hbond:PRO:91    NaN
hbond:PRO:91     -1
Name: 0, dtype: object

>  <hydroph_interaction:PRO:91>  (2) 
hydroph_interaction:PRO:91    NaN
hydroph_interaction:PRO:91     -1
Name: 0, dtype: object

>  <halogenbond:PRO:91>  (2) 
halogenbond:PRO:91    NaN
halogenbond:PRO:91     -1
Name: 0, dtype: object

>  <hbond:ALA:92>  (2) 
hbond:ALA:92    NaN
hbond:ALA:92     -1
Name: 0, dtype: object

>  <hydroph_interaction:ALA:92>  (2) 
hydroph_interaction:ALA:92    NaN
hydroph_interaction:ALA:92     -1
Name: 0, dtype: object

>  <saltbridge:ARG:93>  (2) 
saltbridge:ARG:93    NaN
saltbridge:ARG:93     -1
Name: 0, dtype: object

>  <hbond:ARG:93>  (2) 
hbond:ARG:93    NaN
hbond:ARG:93     -1
Name: 0, dtype: object

>  <hydroph_interaction:ARG:93>  (2) 
hydroph_interaction:ARG:93    NaN
hydroph_interaction:ARG:93     -1
Name: 0, dtype: object

>  <halogenbond:ARG:93>  (2) 
halogenbond:ARG:93    NaN
halogenbond:ARG:93     -1
Name: 0, dtype: object

>  <pication:ARG:93>  (2) 
pication:ARG:93    NaN
pication:ARG:93     -1
Name: 0, dtype: object

>  <hydroph_interaction:TYR:94>  (2) 
hydroph_interaction:TYR:94    NaN
hydroph_interaction:TYR:94     -1
Name: 0, dtype: object

>  <pistack:TYR:94>  (2) 
pistack:TYR:94    NaN
pistack:TYR:94     -1
Name: 0, dtype: object

>  <hbond:TYR:94>  (2) 
hbond:TYR:94    NaN
hbond:TYR:94     -1
Name: 0, dtype: object

>  <hbond:GLN:95>  (2) 
hbond:GLN:95    NaN
hbond:GLN:95     -1
Name: 0, dtype: object

>  <hydroph_interaction:GLN:95>  (2) 
hydroph_interaction:GLN:95    NaN
hydroph_interaction:GLN:95     -1
Name: 0, dtype: object

>  <halogenbond:GLN:95>  (2) 
halogenbond:GLN:95    NaN
halogenbond:GLN:95     -1
Name: 0, dtype: object

>  <hbond:SER:96>  (2) 
hbond:SER:96    NaN
hbond:SER:96     -1
Name: 0, dtype: object

>  <halogenbond:HIS:97>  (2) 
halogenbond:HIS:97    NaN
halogenbond:HIS:97     -1
Name: 0, dtype: object

>  <hydroph_interaction:LEU:98>  (2) 
hydroph_interaction:LEU:98    NaN
hydroph_interaction:LEU:98     -1
Name: 0, dtype: object

>  <hbond:LEU:98>  (2) 
hbond:LEU:98    NaN
hbond:LEU:98     -1
Name: 0, dtype: object

>  <halogenbond:LEU:98>  (2) 
halogenbond:LEU:98    NaN
halogenbond:LEU:98     -1
Name: 0, dtype: object

>  <hbond:MET:99>  (2) 
hbond:MET:99    NaN
hbond:MET:99     -1
Name: 0, dtype: object

>  <hydroph_interaction:MET:99>  (2) 
hydroph_interaction:MET:99    NaN
hydroph_interaction:MET:99     -1
Name: 0, dtype: object

>  <halogenbond:MET:99>  (2) 
halogenbond:MET:99    NaN
halogenbond:MET:99     -1
Name: 0, dtype: object

>  <hydroph_interaction:LEU:100>  (2) 
hydroph_interaction:LEU:100    NaN
hydroph_interaction:LEU:100     -1
Name: 0, dtype: object

>  <hbond:LEU:100>  (2) 
hbond:LEU:100    NaN
hbond:LEU:100     -1
Name: 0, dtype: object

>  <hbond:ALA:101>  (2) 
hbond:ALA:101    NaN
hbond:ALA:101     -1
Name: 0, dtype: object

>  <hydroph_interaction:ALA:101>  (2) 
hydroph_interaction:ALA:101    NaN
hydroph_interaction:ALA:101     -1
Name: 0, dtype: object

>  <hydroph_interaction:VAL:102>  (2) 
hydroph_interaction:VAL:102    NaN
hydroph_interaction:VAL:102     -1
Name: 0, dtype: object

>  <hbond:VAL:102>  (2) 
hbond:VAL:102    NaN
hbond:VAL:102     -1
Name: 0, dtype: object

>  <hbond:GLY:103>  (2) 
hbond:GLY:103    NaN
hbond:GLY:103     -1
Name: 0, dtype: object

>  <halogenbond:GLY:103>  (2) 
halogenbond:GLY:103    NaN
halogenbond:GLY:103     -1
Name: 0, dtype: object

>  <hbond:HIS:104>  (2) 
hbond:HIS:104    NaN
hbond:HIS:104     -1
Name: 0, dtype: object

>  <saltbridge:HIS:104>  (2) 
saltbridge:HIS:104    NaN
saltbridge:HIS:104     -1
Name: 0, dtype: object

>  <pication:HIS:104>  (2) 
pication:HIS:104    0.0
pication:HIS:104      0
Name: 0, dtype: object

>  <halogenbond:HIS:104>  (2) 
halogenbond:HIS:104    NaN
halogenbond:HIS:104     -1
Name: 0, dtype: object

>  <hydroph_interaction:HIS:104>  (2) 
hydroph_interaction:HIS:104    NaN
hydroph_interaction:HIS:104     -1
Name: 0, dtype: object

>  <pistack:HIS:104>  (2) 
pistack:HIS:104    NaN
pistack:HIS:104     -1
Name: 0, dtype: object

>  <halogenbond:SER:105>  (2) 
halogenbond:SER:105    0.0
halogenbond:SER:105      0
Name: 0, dtype: object

>  <hbond:SER:105>  (2) 
hbond:SER:105    0.0
hbond:SER:105      0
Name: 0, dtype: object

>  <hbond:GLU:106>  (2) 
hbond:GLU:106    0.0
hbond:GLU:106      0
Name: 0, dtype: object

>  <hydroph_interaction:GLU:106>  (2) 
hydroph_interaction:GLU:106    0.0
hydroph_interaction:GLU:106      0
Name: 0, dtype: object

>  <saltbridge:GLU:106>  (2) 
saltbridge:GLU:106    0.0
saltbridge:GLU:106      0
Name: 0, dtype: object

>  <halogenbond:GLU:106>  (2) 
halogenbond:GLU:106    NaN
halogenbond:GLU:106     -1
Name: 0, dtype: object

>  <hydroph_interaction:PRO:107>  (2) 
hydroph_interaction:PRO:107    2
hydroph_interaction:PRO:107    2
Name: 0, dtype: object

>  <hbond:PRO:107>  (2) 
hbond:PRO:107    0.0
hbond:PRO:107      0
Name: 0, dtype: object

>  <halogenbond:PRO:107>  (2) 
halogenbond:PRO:107    NaN
halogenbond:PRO:107     -1
Name: 0, dtype: object

>  <hbond:GLY:108>  (2) 
hbond:GLY:108    NaN
hbond:GLY:108     -1
Name: 0, dtype: object

>  <halogenbond:GLY:108>  (2) 
halogenbond:GLY:108    NaN
halogenbond:GLY:108     -1
Name: 0, dtype: object

>  <hbond:ASP:109>  (2) 
hbond:ASP:109    0.0
hbond:ASP:109      0
Name: 0, dtype: object

>  <hydroph_interaction:ASP:109>  (2) 
hydroph_interaction:ASP:109    0.0
hydroph_interaction:ASP:109      0
Name: 0, dtype: object

>  <saltbridge:ASP:109>  (2) 
saltbridge:ASP:109    NaN
saltbridge:ASP:109     -1
Name: 0, dtype: object

>  <halogenbond:CYS:110>  (2) 
halogenbond:CYS:110    0.0
halogenbond:CYS:110      0
Name: 0, dtype: object

>  <hbond:CYS:110>  (2) 
hbond:CYS:110    0.0
hbond:CYS:110      0
Name: 0, dtype: object

>  <hbond:GLY:111>  (2) 
hbond:GLY:111    NaN
hbond:GLY:111     -1
Name: 0, dtype: object

>  <hbond:GLY:112>  (2) 
hbond:GLY:112    NaN
hbond:GLY:112     -1
Name: 0, dtype: object

>  <hbond:ILE:113>  (2) 
hbond:ILE:113    NaN
hbond:ILE:113     -1
Name: 0, dtype: object

>  <hydroph_interaction:LEU:114>  (2) 
hydroph_interaction:LEU:114    NaN
hydroph_interaction:LEU:114     -1
Name: 0, dtype: object

>  <hbond:LEU:114>  (2) 
hbond:LEU:114    NaN
hbond:LEU:114     -1
Name: 0, dtype: object

>  <hydroph_interaction:ILE:123>  (2) 
hydroph_interaction:ILE:123    NaN
hydroph_interaction:ILE:123     -1
Name: 0, dtype: object

>  <hbond:ILE:123>  (2) 
hbond:ILE:123    NaN
hbond:ILE:123     -1
Name: 0, dtype: object

>  <hydroph_interaction:VAL:124>  (2) 
hydroph_interaction:VAL:124    0.0
hydroph_interaction:VAL:124      0
Name: 0, dtype: object

>  <hbond:VAL:124>  (2) 
hbond:VAL:124    NaN
hbond:VAL:124     -1
Name: 0, dtype: object

>  <halogenbond:VAL:124>  (2) 
halogenbond:VAL:124    NaN
halogenbond:VAL:124     -1
Name: 0, dtype: object

>  <hbond:SER:125>  (2) 
hbond:SER:125    0
hbond:SER:125    0
Name: 0, dtype: object

>  <halogenbond:SER:125>  (2) 
halogenbond:SER:125    0.0
halogenbond:SER:125      0
Name: 0, dtype: object

>  <hydroph_interaction:THR:126>  (2) 
hydroph_interaction:THR:126    NaN
hydroph_interaction:THR:126     -1
Name: 0, dtype: object

>  <hbond:THR:126>  (2) 
hbond:THR:126    0.0
hbond:THR:126      0
Name: 0, dtype: object

>  <halogenbond:THR:126>  (2) 
halogenbond:THR:126    NaN
halogenbond:THR:126     -1
Name: 0, dtype: object

>  <hbond:GLY:127>  (2) 
hbond:GLY:127    0
hbond:GLY:127    0
Name: 0, dtype: object

>  <halogenbond:GLY:127>  (2) 
halogenbond:GLY:127    NaN
halogenbond:GLY:127     -1
Name: 0, dtype: object

>  <hydroph_interaction:GLY:127>  (2) 
hydroph_interaction:GLY:127    NaN
hydroph_interaction:GLY:127     -1
Name: 0, dtype: object

>  <hbond:GLY:128>  (2) 
hbond:GLY:128    0.0
hbond:GLY:128      0
Name: 0, dtype: object

>  <halogenbond:GLY:128>  (2) 
halogenbond:GLY:128    NaN
halogenbond:GLY:128     -1
Name: 0, dtype: object

>  <hydroph_interaction:GLY:128>  (2) 
hydroph_interaction:GLY:128    NaN
hydroph_interaction:GLY:128     -1
Name: 0, dtype: object

>  <hbond:ASN:129>  (2) 
hbond:ASN:129    0.0
hbond:ASN:129      0
Name: 0, dtype: object

>  <hydroph_interaction:ASN:129>  (2) 
hydroph_interaction:ASN:129    NaN
hydroph_interaction:ASN:129     -1
Name: 0, dtype: object

>  <halogenbond:ASN:129>  (2) 
halogenbond:ASN:129    NaN
halogenbond:ASN:129     -1
Name: 0, dtype: object

>  <hbond:GLY:130>  (2) 
hbond:GLY:130    NaN
hbond:GLY:130     -1
Name: 0, dtype: object

>  <hbond:LEU:131>  (2) 
hbond:LEU:131    NaN
hbond:LEU:131     -1
Name: 0, dtype: object

>  <hydroph_interaction:LEU:131>  (2) 
hydroph_interaction:LEU:131    NaN
hydroph_interaction:LEU:131     -1
Name: 0, dtype: object

>  <halogenbond:LEU:131>  (2) 
halogenbond:LEU:131    NaN
halogenbond:LEU:131     -1
Name: 0, dtype: object

>  <hydroph_interaction:VAL:132>  (2) 
hydroph_interaction:VAL:132    NaN
hydroph_interaction:VAL:132     -1
Name: 0, dtype: object

>  <hbond:VAL:132>  (2) 
hbond:VAL:132    NaN
hbond:VAL:132     -1
Name: 0, dtype: object

>  <hbond:GLY:133>  (2) 
hbond:GLY:133    NaN
hbond:GLY:133     -1
Name: 0, dtype: object

>  <halogenbond:GLY:133>  (2) 
halogenbond:GLY:133    NaN
halogenbond:GLY:133     -1
Name: 0, dtype: object

>  <hydroph_interaction:PHE:134>  (2) 
hydroph_interaction:PHE:134    NaN
hydroph_interaction:PHE:134     -1
Name: 0, dtype: object

>  <hbond:PHE:134>  (2) 
hbond:PHE:134    NaN
hbond:PHE:134     -1
Name: 0, dtype: object

>  <pistack:PHE:134>  (2) 
pistack:PHE:134    NaN
pistack:PHE:134     -1
Name: 0, dtype: object

>  <pication:PHE:134>  (2) 
pication:PHE:134    NaN
pication:PHE:134     -1
Name: 0, dtype: object

>  <halogenbond:PHE:134>  (2) 
halogenbond:PHE:134    NaN
halogenbond:PHE:134     -1
Name: 0, dtype: object

>  <hydroph_interaction:ALA:135>  (2) 
hydroph_interaction:ALA:135    NaN
hydroph_interaction:ALA:135     -1
Name: 0, dtype: object

>  <hbond:ALA:135>  (2) 
hbond:ALA:135    NaN
hbond:ALA:135     -1
Name: 0, dtype: object

$$$$
Z371574830
     RDKit          3D

 15 15  0  0  0  0  0  0  0  0999 V2000
   27.8335   14.2360    6.9979 C   0  0  0  0  0  0  0  0  0  0  0  0
   28.5502   13.1181    7.7412 C   0  0  0  0  0  0  0  0  0  0  0  0
   29.8806   13.5208    8.1519 N   0  0  0  0  0  0  0  0  0  0  0  0
   30.9443   13.2108    7.2039 C   0  0  0  0  0  0  0  0  0  0  0  0
   31.3212   11.7782    7.1506 C   0  0  0  0  0  0  0  0  0  0  0  0
   32.3748   11.3006    6.2040 C   0  0  0  0  0  0  0  0  0  0  0  0
   32.6893    9.9427    6.1975 C   0  0  0  0  0  0  0  0  0  0  0  0
   32.0308    9.0754    7.0582 C   0  0  0  0  0  0  0  0  0  0  0  0
   31.0497    9.5346    7.9398 C   0  0  0  0  0  0  0  0  0  0  0  0
   30.3499    8.6096    8.8671 C   0  0  0  0  0  0  0  0  0  0  0  0
   30.7024   10.8706    7.9793 C   0  0  0  0  0  0  0  0  0  0  0  0
   29.9215   14.7011    8.8551 C   0  0  0  0  0  0  0  0  0  0  0  0
   30.7204   14.9628    9.7415 O   0  0  0  0  0  0  0  0  0  0  0  0
   28.9970   15.5974    8.4142 O   0  0  0  0  0  0  0  0  0  0  0  0
   28.0806   16.0792    9.3920 C   0  0  0  0  0  0  0  0  0  0  0  0
  1  2  1  0
  2  3  1  0
  3  4  1  0
  4  5  1  0
  5  6  2  0
  6  7  1  0
  7  8  2  0
  8  9  1  0
  9 10  1  0
  9 11  2  0
  3 12  1  0
 12 13  2  0
 12 14  1  0
 14 15  1  0
 11  5  1  0
A    1
 C1 
A    2
 C2 
A    3
 N1 
A    4
 C3 
A    5
 C4 
A    6
 C5 
A    7
 C6 
A    8
 C7 
A    9
 C8 
A   10
 C9 
A   11
 C10
A   12
 C11
A   13
 O1 
A   14
 O2 
A   15
 C12
M  END
>  <ref_pdb>  (3) 
Ax0310a

>  <ref_mols>  (3) 
Ax0416a,Ax0528a

>  <original SMILES>  (3) 
CCN(Cc1cccc(C)c1)C(=O)OC

>  <rationale>  (3) 
info halogenbond:C110+G127+D39+A86+E85+Q95+E88+T126+P107+H104+Y64+C65+S87+N129+F83+R93+L131+I82+G128+P91+N19+H21+V84+G133+Y90+Y89+H97+L81+F134+L98+R20+G103+S66+S67+S7+G108+R38+V124+M99+S36; hbond:S87+P107+A86+C110+D109+E85+G108+G103+G128+G130+L131+N129+N19+H104+R68+R93+P91+F83+S67+S7+S66+G112+V132+R20+Y89+S77+A135+Y63+A92+A101+M99+F134+L100+I82+Y64+S36+L98+V84+L81+Y94+S80+R38+S37+V102+G8+I123+G111+I113+L114+C65+L22+S96; hydroph_interaction:V124+Y89+P107+L22+E106+N129+L40+I123+A135+Q95+I82+L100+L98+L131+F83+R93+V132+Y63+F134+H104+A86+V74+P91+A101+F76+M99+L114+A92+Y94+R68+Y72+Y64+V18+V102+W28+G127+G128+L81; pication:H104+R93+Y63+F134+Y90+R68+F83+R20; pistack:Y89+Y90+H104+F134+Y63+F83+Y94; saltbridge:R93+H104+E106+D109+E85+R68+R20; 

>  <intxn_cluster>  (3) 
-1

>  <intxn_cluster_rank>  (3) 
-1

>  <N_interactions>  (3) 
4

>  <∆∆G>  (3) 
-12.69098

>  <$/mg>  (3) 
0.0

>  <comRMSD>  (3) 
0.632013

>  <N_rotatable_bonds>  (3) 
6

>  <deep_P1_sidechain>  (3) 
nan

>  <farthest_distance_to_substrate>  (3) 
2.164935

>  <hbond:SER:7>  (3) 
hbond:SER:7    NaN
hbond:SER:7     -1
Name: 1, dtype: object

>  <halogenbond:SER:7>  (3) 
halogenbond:SER:7    NaN
halogenbond:SER:7     -1
Name: 1, dtype: object

>  <hbond:GLY:8>  (3) 
hbond:GLY:8    NaN
hbond:GLY:8     -1
Name: 1, dtype: object

>  <hydroph_interaction:VAL:18>  (3) 
hydroph_interaction:VAL:18    NaN
hydroph_interaction:VAL:18     -1
Name: 1, dtype: object

>  <hbond:ASN:19>  (3) 
hbond:ASN:19    NaN
hbond:ASN:19     -1
Name: 1, dtype: object

>  <hydroph_interaction:ASN:19>  (3) 
hydroph_interaction:ASN:19    0.0
hydroph_interaction:ASN:19      0
Name: 1, dtype: object

>  <halogenbond:ASN:19>  (3) 
halogenbond:ASN:19    NaN
halogenbond:ASN:19     -1
Name: 1, dtype: object

>  <hbond:ARG:20>  (3) 
hbond:ARG:20    NaN
hbond:ARG:20     -1
Name: 1, dtype: object

>  <hydroph_interaction:ARG:20>  (3) 
hydroph_interaction:ARG:20    0.0
hydroph_interaction:ARG:20      0
Name: 1, dtype: object

>  <saltbridge:ARG:20>  (3) 
saltbridge:ARG:20    NaN
saltbridge:ARG:20     -1
Name: 1, dtype: object

>  <halogenbond:ARG:20>  (3) 
halogenbond:ARG:20    NaN
halogenbond:ARG:20     -1
Name: 1, dtype: object

>  <pication:ARG:20>  (3) 
pication:ARG:20    NaN
pication:ARG:20     -1
Name: 1, dtype: object

>  <hbond:HIS:21>  (3) 
hbond:HIS:21    0.0
hbond:HIS:21      0
Name: 1, dtype: object

>  <hydroph_interaction:HIS:21>  (3) 
hydroph_interaction:HIS:21    0.0
hydroph_interaction:HIS:21      0
Name: 1, dtype: object

>  <pistack:HIS:21>  (3) 
pistack:HIS:21    0.0
pistack:HIS:21      0
Name: 1, dtype: object

>  <pication:HIS:21>  (3) 
pication:HIS:21    0.0
pication:HIS:21      0
Name: 1, dtype: object

>  <saltbridge:HIS:21>  (3) 
saltbridge:HIS:21    0.0
saltbridge:HIS:21      0
Name: 1, dtype: object

>  <halogenbond:HIS:21>  (3) 
halogenbond:HIS:21    NaN
halogenbond:HIS:21     -1
Name: 1, dtype: object

>  <hydroph_interaction:LEU:22>  (3) 
hydroph_interaction:LEU:22    NaN
hydroph_interaction:LEU:22     -1
Name: 1, dtype: object

>  <hbond:LEU:22>  (3) 
hbond:LEU:22    NaN
hbond:LEU:22     -1
Name: 1, dtype: object

>  <hydroph_interaction:TRP:28>  (3) 
hydroph_interaction:TRP:28    NaN
hydroph_interaction:TRP:28     -1
Name: 1, dtype: object

>  <hbond:SER:36>  (3) 
hbond:SER:36    NaN
hbond:SER:36     -1
Name: 1, dtype: object

>  <halogenbond:SER:36>  (3) 
halogenbond:SER:36    NaN
halogenbond:SER:36     -1
Name: 1, dtype: object

>  <hbond:SER:37>  (3) 
hbond:SER:37    NaN
hbond:SER:37     -1
Name: 1, dtype: object

>  <hbond:ARG:38>  (3) 
hbond:ARG:38    NaN
hbond:ARG:38     -1
Name: 1, dtype: object

>  <halogenbond:ARG:38>  (3) 
halogenbond:ARG:38    NaN
halogenbond:ARG:38     -1
Name: 1, dtype: object

>  <saltbridge:ASP:39>  (3) 
saltbridge:ASP:39    0.0
saltbridge:ASP:39      0
Name: 1, dtype: object

>  <halogenbond:ASP:39>  (3) 
halogenbond:ASP:39    NaN
halogenbond:ASP:39     -1
Name: 1, dtype: object

>  <hbond:ASP:39>  (3) 
hbond:ASP:39    0.0
hbond:ASP:39      0
Name: 1, dtype: object

>  <hydroph_interaction:ASP:39>  (3) 
hydroph_interaction:ASP:39    0.0
hydroph_interaction:ASP:39      0
Name: 1, dtype: object

>  <hydroph_interaction:LEU:40>  (3) 
hydroph_interaction:LEU:40    NaN
hydroph_interaction:LEU:40     -1
Name: 1, dtype: object

>  <hydroph_interaction:TYR:63>  (3) 
hydroph_interaction:TYR:63    NaN
hydroph_interaction:TYR:63     -1
Name: 1, dtype: object

>  <hbond:TYR:63>  (3) 
hbond:TYR:63    NaN
hbond:TYR:63     -1
Name: 1, dtype: object

>  <pistack:TYR:63>  (3) 
pistack:TYR:63    NaN
pistack:TYR:63     -1
Name: 1, dtype: object

>  <pication:TYR:63>  (3) 
pication:TYR:63    NaN
pication:TYR:63     -1
Name: 1, dtype: object

>  <halogenbond:TYR:64>  (3) 
halogenbond:TYR:64    NaN
halogenbond:TYR:64     -1
Name: 1, dtype: object

>  <hbond:TYR:64>  (3) 
hbond:TYR:64    NaN
hbond:TYR:64     -1
Name: 1, dtype: object

>  <hydroph_interaction:TYR:64>  (3) 
hydroph_interaction:TYR:64    NaN
hydroph_interaction:TYR:64     -1
Name: 1, dtype: object

>  <halogenbond:CYS:65>  (3) 
halogenbond:CYS:65    NaN
halogenbond:CYS:65     -1
Name: 1, dtype: object

>  <hbond:CYS:65>  (3) 
hbond:CYS:65    NaN
hbond:CYS:65     -1
Name: 1, dtype: object

>  <hbond:SER:66>  (3) 
hbond:SER:66    NaN
hbond:SER:66     -1
Name: 1, dtype: object

>  <halogenbond:SER:66>  (3) 
halogenbond:SER:66    NaN
halogenbond:SER:66     -1
Name: 1, dtype: object

>  <hbond:SER:67>  (3) 
hbond:SER:67    NaN
hbond:SER:67     -1
Name: 1, dtype: object

>  <halogenbond:SER:67>  (3) 
halogenbond:SER:67    NaN
halogenbond:SER:67     -1
Name: 1, dtype: object

>  <hbond:ARG:68>  (3) 
hbond:ARG:68    NaN
hbond:ARG:68     -1
Name: 1, dtype: object

>  <saltbridge:ARG:68>  (3) 
saltbridge:ARG:68    NaN
saltbridge:ARG:68     -1
Name: 1, dtype: object

>  <hydroph_interaction:ARG:68>  (3) 
hydroph_interaction:ARG:68    NaN
hydroph_interaction:ARG:68     -1
Name: 1, dtype: object

>  <pication:ARG:68>  (3) 
pication:ARG:68    NaN
pication:ARG:68     -1
Name: 1, dtype: object

>  <hydroph_interaction:TYR:72>  (3) 
hydroph_interaction:TYR:72    NaN
hydroph_interaction:TYR:72     -1
Name: 1, dtype: object

>  <hydroph_interaction:VAL:74>  (3) 
hydroph_interaction:VAL:74    NaN
hydroph_interaction:VAL:74     -1
Name: 1, dtype: object

>  <hydroph_interaction:PHE:76>  (3) 
hydroph_interaction:PHE:76    NaN
hydroph_interaction:PHE:76     -1
Name: 1, dtype: object

>  <hbond:SER:77>  (3) 
hbond:SER:77    NaN
hbond:SER:77     -1
Name: 1, dtype: object

>  <hbond:SER:80>  (3) 
hbond:SER:80    NaN
hbond:SER:80     -1
Name: 1, dtype: object

>  <hbond:LEU:81>  (3) 
hbond:LEU:81    NaN
hbond:LEU:81     -1
Name: 1, dtype: object

>  <halogenbond:LEU:81>  (3) 
halogenbond:LEU:81    NaN
halogenbond:LEU:81     -1
Name: 1, dtype: object

>  <hydroph_interaction:LEU:81>  (3) 
hydroph_interaction:LEU:81    NaN
hydroph_interaction:LEU:81     -1
Name: 1, dtype: object

>  <hydroph_interaction:ILE:82>  (3) 
hydroph_interaction:ILE:82    NaN
hydroph_interaction:ILE:82     -1
Name: 1, dtype: object

>  <halogenbond:ILE:82>  (3) 
halogenbond:ILE:82    NaN
halogenbond:ILE:82     -1
Name: 1, dtype: object

>  <hbond:ILE:82>  (3) 
hbond:ILE:82    NaN
hbond:ILE:82     -1
Name: 1, dtype: object

>  <hbond:PHE:83>  (3) 
hbond:PHE:83    NaN
hbond:PHE:83     -1
Name: 1, dtype: object

>  <hydroph_interaction:PHE:83>  (3) 
hydroph_interaction:PHE:83    NaN
hydroph_interaction:PHE:83     -1
Name: 1, dtype: object

>  <halogenbond:PHE:83>  (3) 
halogenbond:PHE:83    NaN
halogenbond:PHE:83     -1
Name: 1, dtype: object

>  <pistack:PHE:83>  (3) 
pistack:PHE:83    NaN
pistack:PHE:83     -1
Name: 1, dtype: object

>  <pication:PHE:83>  (3) 
pication:PHE:83    NaN
pication:PHE:83     -1
Name: 1, dtype: object

>  <hydroph_interaction:VAL:84>  (3) 
hydroph_interaction:VAL:84    0.0
hydroph_interaction:VAL:84      0
Name: 1, dtype: object

>  <halogenbond:VAL:84>  (3) 
halogenbond:VAL:84    NaN
halogenbond:VAL:84     -1
Name: 1, dtype: object

>  <hbond:VAL:84>  (3) 
hbond:VAL:84    NaN
hbond:VAL:84     -1
Name: 1, dtype: object

>  <hydroph_interaction:GLU:85>  (3) 
hydroph_interaction:GLU:85    0.0
hydroph_interaction:GLU:85      0
Name: 1, dtype: object

>  <hbond:GLU:85>  (3) 
hbond:GLU:85    NaN
hbond:GLU:85     -1
Name: 1, dtype: object

>  <halogenbond:GLU:85>  (3) 
halogenbond:GLU:85    NaN
halogenbond:GLU:85     -1
Name: 1, dtype: object

>  <saltbridge:GLU:85>  (3) 
saltbridge:GLU:85    NaN
saltbridge:GLU:85     -1
Name: 1, dtype: object

>  <halogenbond:ALA:86>  (3) 
halogenbond:ALA:86    NaN
halogenbond:ALA:86     -1
Name: 1, dtype: object

>  <hbond:ALA:86>  (3) 
hbond:ALA:86    NaN
hbond:ALA:86     -1
Name: 1, dtype: object

>  <hydroph_interaction:ALA:86>  (3) 
hydroph_interaction:ALA:86    NaN
hydroph_interaction:ALA:86     -1
Name: 1, dtype: object

>  <hbond:SER:87>  (3) 
hbond:SER:87    1
hbond:SER:87    1
Name: 1, dtype: object

>  <halogenbond:SER:87>  (3) 
halogenbond:SER:87    NaN
halogenbond:SER:87     -1
Name: 1, dtype: object

>  <hbond:GLU:88>  (3) 
hbond:GLU:88    0.0
hbond:GLU:88      0
Name: 1, dtype: object

>  <hydroph_interaction:GLU:88>  (3) 
hydroph_interaction:GLU:88    0.0
hydroph_interaction:GLU:88      0
Name: 1, dtype: object

>  <halogenbond:GLU:88>  (3) 
halogenbond:GLU:88    NaN
halogenbond:GLU:88     -1
Name: 1, dtype: object

>  <saltbridge:GLU:88>  (3) 
saltbridge:GLU:88    0.0
saltbridge:GLU:88      0
Name: 1, dtype: object

>  <hydroph_interaction:TYR:89>  (3) 
hydroph_interaction:TYR:89    1.0
hydroph_interaction:TYR:89      1
Name: 1, dtype: object

>  <pistack:TYR:89>  (3) 
pistack:TYR:89    NaN
pistack:TYR:89     -1
Name: 1, dtype: object

>  <hbond:TYR:89>  (3) 
hbond:TYR:89    NaN
hbond:TYR:89     -1
Name: 1, dtype: object

>  <halogenbond:TYR:89>  (3) 
halogenbond:TYR:89    NaN
halogenbond:TYR:89     -1
Name: 1, dtype: object

>  <hydroph_interaction:TYR:90>  (3) 
hydroph_interaction:TYR:90    0.0
hydroph_interaction:TYR:90      0
Name: 1, dtype: object

>  <hbond:TYR:90>  (3) 
hbond:TYR:90    0.0
hbond:TYR:90      0
Name: 1, dtype: object

>  <pistack:TYR:90>  (3) 
pistack:TYR:90    NaN
pistack:TYR:90     -1
Name: 1, dtype: object

>  <halogenbond:TYR:90>  (3) 
halogenbond:TYR:90    NaN
halogenbond:TYR:90     -1
Name: 1, dtype: object

>  <pication:TYR:90>  (3) 
pication:TYR:90    NaN
pication:TYR:90     -1
Name: 1, dtype: object

>  <hbond:PRO:91>  (3) 
hbond:PRO:91    NaN
hbond:PRO:91     -1
Name: 1, dtype: object

>  <hydroph_interaction:PRO:91>  (3) 
hydroph_interaction:PRO:91    NaN
hydroph_interaction:PRO:91     -1
Name: 1, dtype: object

>  <halogenbond:PRO:91>  (3) 
halogenbond:PRO:91    NaN
halogenbond:PRO:91     -1
Name: 1, dtype: object

>  <hbond:ALA:92>  (3) 
hbond:ALA:92    NaN
hbond:ALA:92     -1
Name: 1, dtype: object

>  <hydroph_interaction:ALA:92>  (3) 
hydroph_interaction:ALA:92    NaN
hydroph_interaction:ALA:92     -1
Name: 1, dtype: object

>  <saltbridge:ARG:93>  (3) 
saltbridge:ARG:93    NaN
saltbridge:ARG:93     -1
Name: 1, dtype: object

>  <hbond:ARG:93>  (3) 
hbond:ARG:93    NaN
hbond:ARG:93     -1
Name: 1, dtype: object

>  <hydroph_interaction:ARG:93>  (3) 
hydroph_interaction:ARG:93    NaN
hydroph_interaction:ARG:93     -1
Name: 1, dtype: object

>  <halogenbond:ARG:93>  (3) 
halogenbond:ARG:93    NaN
halogenbond:ARG:93     -1
Name: 1, dtype: object

>  <pication:ARG:93>  (3) 
pication:ARG:93    NaN
pication:ARG:93     -1
Name: 1, dtype: object

>  <hydroph_interaction:TYR:94>  (3) 
hydroph_interaction:TYR:94    NaN
hydroph_interaction:TYR:94     -1
Name: 1, dtype: object

>  <pistack:TYR:94>  (3) 
pistack:TYR:94    NaN
pistack:TYR:94     -1
Name: 1, dtype: object

>  <hbond:TYR:94>  (3) 
hbond:TYR:94    NaN
hbond:TYR:94     -1
Name: 1, dtype: object

>  <hbond:GLN:95>  (3) 
hbond:GLN:95    0.0
hbond:GLN:95      0
Name: 1, dtype: object

>  <hydroph_interaction:GLN:95>  (3) 
hydroph_interaction:GLN:95    NaN
hydroph_interaction:GLN:95     -1
Name: 1, dtype: object

>  <halogenbond:GLN:95>  (3) 
halogenbond:GLN:95    NaN
halogenbond:GLN:95     -1
Name: 1, dtype: object

>  <hbond:SER:96>  (3) 
hbond:SER:96    NaN
hbond:SER:96     -1
Name: 1, dtype: object

>  <halogenbond:HIS:97>  (3) 
halogenbond:HIS:97    NaN
halogenbond:HIS:97     -1
Name: 1, dtype: object

>  <hydroph_interaction:LEU:98>  (3) 
hydroph_interaction:LEU:98    NaN
hydroph_interaction:LEU:98     -1
Name: 1, dtype: object

>  <hbond:LEU:98>  (3) 
hbond:LEU:98    NaN
hbond:LEU:98     -1
Name: 1, dtype: object

>  <halogenbond:LEU:98>  (3) 
halogenbond:LEU:98    NaN
halogenbond:LEU:98     -1
Name: 1, dtype: object

>  <hbond:MET:99>  (3) 
hbond:MET:99    NaN
hbond:MET:99     -1
Name: 1, dtype: object

>  <hydroph_interaction:MET:99>  (3) 
hydroph_interaction:MET:99    NaN
hydroph_interaction:MET:99     -1
Name: 1, dtype: object

>  <halogenbond:MET:99>  (3) 
halogenbond:MET:99    NaN
halogenbond:MET:99     -1
Name: 1, dtype: object

>  <hydroph_interaction:LEU:100>  (3) 
hydroph_interaction:LEU:100    NaN
hydroph_interaction:LEU:100     -1
Name: 1, dtype: object

>  <hbond:LEU:100>  (3) 
hbond:LEU:100    NaN
hbond:LEU:100     -1
Name: 1, dtype: object

>  <hbond:ALA:101>  (3) 
hbond:ALA:101    NaN
hbond:ALA:101     -1
Name: 1, dtype: object

>  <hydroph_interaction:ALA:101>  (3) 
hydroph_interaction:ALA:101    NaN
hydroph_interaction:ALA:101     -1
Name: 1, dtype: object

>  <hydroph_interaction:VAL:102>  (3) 
hydroph_interaction:VAL:102    NaN
hydroph_interaction:VAL:102     -1
Name: 1, dtype: object

>  <hbond:VAL:102>  (3) 
hbond:VAL:102    NaN
hbond:VAL:102     -1
Name: 1, dtype: object

>  <hbond:GLY:103>  (3) 
hbond:GLY:103    NaN
hbond:GLY:103     -1
Name: 1, dtype: object

>  <halogenbond:GLY:103>  (3) 
halogenbond:GLY:103    NaN
halogenbond:GLY:103     -1
Name: 1, dtype: object

>  <hbond:HIS:104>  (3) 
hbond:HIS:104    NaN
hbond:HIS:104     -1
Name: 1, dtype: object

>  <saltbridge:HIS:104>  (3) 
saltbridge:HIS:104    NaN
saltbridge:HIS:104     -1
Name: 1, dtype: object

>  <pication:HIS:104>  (3) 
pication:HIS:104    NaN
pication:HIS:104     -1
Name: 1, dtype: object

>  <halogenbond:HIS:104>  (3) 
halogenbond:HIS:104    NaN
halogenbond:HIS:104     -1
Name: 1, dtype: object

>  <hydroph_interaction:HIS:104>  (3) 
hydroph_interaction:HIS:104    NaN
hydroph_interaction:HIS:104     -1
Name: 1, dtype: object

>  <pistack:HIS:104>  (3) 
pistack:HIS:104    NaN
pistack:HIS:104     -1
Name: 1, dtype: object

>  <halogenbond:SER:105>  (3) 
halogenbond:SER:105    0.0
halogenbond:SER:105      0
Name: 1, dtype: object

>  <hbond:SER:105>  (3) 
hbond:SER:105    0.0
hbond:SER:105      0
Name: 1, dtype: object

>  <hbond:GLU:106>  (3) 
hbond:GLU:106    0.0
hbond:GLU:106      0
Name: 1, dtype: object

>  <hydroph_interaction:GLU:106>  (3) 
hydroph_interaction:GLU:106    NaN
hydroph_interaction:GLU:106     -1
Name: 1, dtype: object

>  <saltbridge:GLU:106>  (3) 
saltbridge:GLU:106    NaN
saltbridge:GLU:106     -1
Name: 1, dtype: object

>  <halogenbond:GLU:106>  (3) 
halogenbond:GLU:106    0.0
halogenbond:GLU:106      0
Name: 1, dtype: object

>  <hydroph_interaction:PRO:107>  (3) 
hydroph_interaction:PRO:107    1
hydroph_interaction:PRO:107    1
Name: 1, dtype: object

>  <hbond:PRO:107>  (3) 
hbond:PRO:107    NaN
hbond:PRO:107     -1
Name: 1, dtype: object

>  <halogenbond:PRO:107>  (3) 
halogenbond:PRO:107    NaN
halogenbond:PRO:107     -1
Name: 1, dtype: object

>  <hbond:GLY:108>  (3) 
hbond:GLY:108    NaN
hbond:GLY:108     -1
Name: 1, dtype: object

>  <halogenbond:GLY:108>  (3) 
halogenbond:GLY:108    NaN
halogenbond:GLY:108     -1
Name: 1, dtype: object

>  <hbond:ASP:109>  (3) 
hbond:ASP:109    NaN
hbond:ASP:109     -1
Name: 1, dtype: object

>  <hydroph_interaction:ASP:109>  (3) 
hydroph_interaction:ASP:109    0.0
hydroph_interaction:ASP:109      0
Name: 1, dtype: object

>  <saltbridge:ASP:109>  (3) 
saltbridge:ASP:109    NaN
saltbridge:ASP:109     -1
Name: 1, dtype: object

>  <halogenbond:CYS:110>  (3) 
halogenbond:CYS:110    NaN
halogenbond:CYS:110     -1
Name: 1, dtype: object

>  <hbond:CYS:110>  (3) 
hbond:CYS:110    NaN
hbond:CYS:110     -1
Name: 1, dtype: object

>  <hbond:GLY:111>  (3) 
hbond:GLY:111    NaN
hbond:GLY:111     -1
Name: 1, dtype: object

>  <hbond:GLY:112>  (3) 
hbond:GLY:112    NaN
hbond:GLY:112     -1
Name: 1, dtype: object

>  <hbond:ILE:113>  (3) 
hbond:ILE:113    NaN
hbond:ILE:113     -1
Name: 1, dtype: object

>  <hydroph_interaction:LEU:114>  (3) 
hydroph_interaction:LEU:114    NaN
hydroph_interaction:LEU:114     -1
Name: 1, dtype: object

>  <hbond:LEU:114>  (3) 
hbond:LEU:114    NaN
hbond:LEU:114     -1
Name: 1, dtype: object

>  <hydroph_interaction:ILE:123>  (3) 
hydroph_interaction:ILE:123    NaN
hydroph_interaction:ILE:123     -1
Name: 1, dtype: object

>  <hbond:ILE:123>  (3) 
hbond:ILE:123    NaN
hbond:ILE:123     -1
Name: 1, dtype: object

>  <hydroph_interaction:VAL:124>  (3) 
hydroph_interaction:VAL:124    1.0
hydroph_interaction:VAL:124      1
Name: 1, dtype: object

>  <hbond:VAL:124>  (3) 
hbond:VAL:124    0.0
hbond:VAL:124      0
Name: 1, dtype: object

>  <halogenbond:VAL:124>  (3) 
halogenbond:VAL:124    NaN
halogenbond:VAL:124     -1
Name: 1, dtype: object

>  <hbond:SER:125>  (3) 
hbond:SER:125    0
hbond:SER:125    0
Name: 1, dtype: object

>  <halogenbond:SER:125>  (3) 
halogenbond:SER:125    0.0
halogenbond:SER:125      0
Name: 1, dtype: object

>  <hydroph_interaction:THR:126>  (3) 
hydroph_interaction:THR:126    0.0
hydroph_interaction:THR:126      0
Name: 1, dtype: object

>  <hbond:THR:126>  (3) 
hbond:THR:126    0.0
hbond:THR:126      0
Name: 1, dtype: object

>  <halogenbond:THR:126>  (3) 
halogenbond:THR:126    NaN
halogenbond:THR:126     -1
Name: 1, dtype: object

>  <hbond:GLY:127>  (3) 
hbond:GLY:127    0
hbond:GLY:127    0
Name: 1, dtype: object

>  <halogenbond:GLY:127>  (3) 
halogenbond:GLY:127    NaN
halogenbond:GLY:127     -1
Name: 1, dtype: object

>  <hydroph_interaction:GLY:127>  (3) 
hydroph_interaction:GLY:127    NaN
hydroph_interaction:GLY:127     -1
Name: 1, dtype: object

>  <hbond:GLY:128>  (3) 
hbond:GLY:128    NaN
hbond:GLY:128     -1
Name: 1, dtype: object

>  <halogenbond:GLY:128>  (3) 
halogenbond:GLY:128    NaN
halogenbond:GLY:128     -1
Name: 1, dtype: object

>  <hydroph_interaction:GLY:128>  (3) 
hydroph_interaction:GLY:128    NaN
hydroph_interaction:GLY:128     -1
Name: 1, dtype: object

>  <hbond:ASN:129>  (3) 
hbond:ASN:129    NaN
hbond:ASN:129     -1
Name: 1, dtype: object

>  <hydroph_interaction:ASN:129>  (3) 
hydroph_interaction:ASN:129    NaN
hydroph_interaction:ASN:129     -1
Name: 1, dtype: object

>  <halogenbond:ASN:129>  (3) 
halogenbond:ASN:129    NaN
halogenbond:ASN:129     -1
Name: 1, dtype: object

>  <hbond:GLY:130>  (3) 
hbond:GLY:130    NaN
hbond:GLY:130     -1
Name: 1, dtype: object

>  <hbond:LEU:131>  (3) 
hbond:LEU:131    NaN
hbond:LEU:131     -1
Name: 1, dtype: object

>  <hydroph_interaction:LEU:131>  (3) 
hydroph_interaction:LEU:131    NaN
hydroph_interaction:LEU:131     -1
Name: 1, dtype: object

>  <halogenbond:LEU:131>  (3) 
halogenbond:LEU:131    NaN
halogenbond:LEU:131     -1
Name: 1, dtype: object

>  <hydroph_interaction:VAL:132>  (3) 
hydroph_interaction:VAL:132    NaN
hydroph_interaction:VAL:132     -1
Name: 1, dtype: object

>  <hbond:VAL:132>  (3) 
hbond:VAL:132    NaN
hbond:VAL:132     -1
Name: 1, dtype: object

>  <hbond:GLY:133>  (3) 
hbond:GLY:133    0.0
hbond:GLY:133      0
Name: 1, dtype: object

>  <halogenbond:GLY:133>  (3) 
halogenbond:GLY:133    NaN
halogenbond:GLY:133     -1
Name: 1, dtype: object

>  <hydroph_interaction:PHE:134>  (3) 
hydroph_interaction:PHE:134    NaN
hydroph_interaction:PHE:134     -1
Name: 1, dtype: object

>  <hbond:PHE:134>  (3) 
hbond:PHE:134    NaN
hbond:PHE:134     -1
Name: 1, dtype: object

>  <pistack:PHE:134>  (3) 
pistack:PHE:134    NaN
pistack:PHE:134     -1
Name: 1, dtype: object

>  <pication:PHE:134>  (3) 
pication:PHE:134    NaN
pication:PHE:134     -1
Name: 1, dtype: object

>  <halogenbond:PHE:134>  (3) 
halogenbond:PHE:134    NaN
halogenbond:PHE:134     -1
Name: 1, dtype: object

>  <hydroph_interaction:ALA:135>  (3) 
hydroph_interaction:ALA:135    NaN
hydroph_interaction:ALA:135     -1
Name: 1, dtype: object

>  <hbond:ALA:135>  (3) 
hbond:ALA:135    NaN
hbond:ALA:135     -1
Name: 1, dtype: object

$$$$
Z1518323573
     RDKit          3D

 16 17  0  0  0  0  0  0  0  0999 V2000
   34.0331   10.1695    5.3758 C   0  0  0  0  0  0  0  0  0  0  0  0
   32.8051   10.7829    5.9592 C   0  0  0  0  0  0  0  0  0  0  0  0
   32.3716   12.0013    5.5046 C   0  0  0  0  0  0  0  0  0  0  0  0
   31.2132   12.5724    6.0155 C   0  0  0  0  0  0  0  0  0  0  0  0
   30.4677   11.9661    7.0046 C   0  0  0  0  0  0  0  0  0  0  0  0
   29.2803   12.5116    7.5462 N   0  0  0  0  0  0  0  0  0  0  0  0
   28.4030   13.4286    6.9807 C   0  0  0  0  0  0  0  0  0  0  0  0
   28.6247   14.5618    6.5977 O   0  0  0  0  0  0  0  0  0  0  0  0
   27.0090   12.8354    6.8646 C   0  0  1  0  0  0  0  0  0  0  0  0
   26.0679   13.4135    7.8918 C   0  0  0  0  0  0  0  0  0  0  0  0
   24.7466   12.9511    7.3400 C   0  0  0  0  0  0  0  0  0  0  0  0
   25.0333   12.6223    5.8837 C   0  0  0  0  0  0  0  0  0  0  0  0
   26.3600   13.0773    5.6216 O   0  0  0  0  0  0  0  0  0  0  0  0
   30.9198   10.7362    7.4768 C   0  0  0  0  0  0  0  0  0  0  0  0
   30.2352   10.0676    8.4504 O   0  0  0  0  0  0  0  0  0  0  0  0
   32.0693   10.1407    6.9595 C   0  0  0  0  0  0  0  0  0  0  0  0
  1  2  1  0
  2  3  2  0
  3  4  1  0
  4  5  2  0
  5  6  1  0
  6  7  1  0
  7  8  2  0
  9  7  1  6
  9 10  1  0
 10 11  1  0
 11 12  1  0
 12 13  1  0
  5 14  1  0
 14 15  1  0
 14 16  2  0
 16  2  1  0
 13  9  1  0
A    1
 C1 
A    2
 C2 
A    3
 C3 
A    4
 C4 
A    5
 C5 
A    6
 N1 
A    7
 C6 
A    8
 O1 
A    9
 C7 
A   10
 C8 
A   11
 C9 
A   12
 C10
A   13
 O2 
A   14
 C11
A   15
 O3 
A   16
 C12
M  END
>  <ref_pdb>  (4) 
Ax0310a

>  <ref_mols>  (4) 
Ax0310a,Ax1019a

>  <original SMILES>  (4) 
Cc1ccc(NC(=O)[C@H]2CCCO2)c(O)c1

>  <rationale>  (4) 
info halogenbond:G127+D39+A86+E85+Q95+E106+H104+Y64+C65+S87+N129+R93+L131+I82+G128+P91+H21+V84+G133+Y90+Y89+H97+L81+F134+L98+R20+G103+S66+S67+S7+G108+R38+V124+M99+S36; hbond:S87+S125+E88+Q95+G108+G103+L131+H104+R68+V124+P91+F83+S7+S66+G112+R20+Y89+S77+A135+Y63+A92+A101+M99+F134+L100+I82+Y64+S36+L98+V84+L81+Y94+S80+R38+S37+V102+G8+I123+G111+I113+L114+C65+L22+S96; hydroph_interaction:Y89+H21+P107+L22+L40+I123+A135+I82+L98+F83+R93+F134+H104+R20+A86+V74+P91+A101+F76+M99+L114+A92+Y94+R68+Y72+Y64+V18+V102+W28+G127+G128+L81; pication:H104+R93+Y63+F134+Y90+R68+F83+R20; pistack:H104+F134+Y63+F83+Y94; saltbridge:R93+H104+E106+D109+E88+R68+R20; 

>  <intxn_cluster>  (4) 
-1

>  <intxn_cluster_rank>  (4) 
-1

>  <N_interactions>  (4) 
8

>  <∆∆G>  (4) 
-6.463937

>  <$/mg>  (4) 
163.0

>  <comRMSD>  (4) 
0.812932

>  <N_rotatable_bonds>  (4) 
4

>  <deep_P1_sidechain>  (4) 
nan

>  <farthest_distance_to_substrate>  (4) 
2.226083

>  <hbond:SER:7>  (4) 
hbond:SER:7    NaN
hbond:SER:7     -1
Name: 2, dtype: object

>  <halogenbond:SER:7>  (4) 
halogenbond:SER:7    NaN
halogenbond:SER:7     -1
Name: 2, dtype: object

>  <hbond:GLY:8>  (4) 
hbond:GLY:8    NaN
hbond:GLY:8     -1
Name: 2, dtype: object

>  <hydroph_interaction:VAL:18>  (4) 
hydroph_interaction:VAL:18    NaN
hydroph_interaction:VAL:18     -1
Name: 2, dtype: object

>  <hbond:ASN:19>  (4) 
hbond:ASN:19    0.0
hbond:ASN:19      0
Name: 2, dtype: object

>  <hydroph_interaction:ASN:19>  (4) 
hydroph_interaction:ASN:19    0.0
hydroph_interaction:ASN:19      0
Name: 2, dtype: object

>  <halogenbond:ASN:19>  (4) 
halogenbond:ASN:19    0.0
halogenbond:ASN:19      0
Name: 2, dtype: object

>  <hbond:ARG:20>  (4) 
hbond:ARG:20    NaN
hbond:ARG:20     -1
Name: 2, dtype: object

>  <hydroph_interaction:ARG:20>  (4) 
hydroph_interaction:ARG:20    NaN
hydroph_interaction:ARG:20     -1
Name: 2, dtype: object

>  <saltbridge:ARG:20>  (4) 
saltbridge:ARG:20    NaN
saltbridge:ARG:20     -1
Name: 2, dtype: object

>  <halogenbond:ARG:20>  (4) 
halogenbond:ARG:20    NaN
halogenbond:ARG:20     -1
Name: 2, dtype: object

>  <pication:ARG:20>  (4) 
pication:ARG:20    NaN
pication:ARG:20     -1
Name: 2, dtype: object

>  <hbond:HIS:21>  (4) 
hbond:HIS:21    0.0
hbond:HIS:21      0
Name: 2, dtype: object

>  <hydroph_interaction:HIS:21>  (4) 
hydroph_interaction:HIS:21    1.0
hydroph_interaction:HIS:21      1
Name: 2, dtype: object

>  <pistack:HIS:21>  (4) 
pistack:HIS:21    0.0
pistack:HIS:21      0
Name: 2, dtype: object

>  <pication:HIS:21>  (4) 
pication:HIS:21    0.0
pication:HIS:21      0
Name: 2, dtype: object

>  <saltbridge:HIS:21>  (4) 
saltbridge:HIS:21    0.0
saltbridge:HIS:21      0
Name: 2, dtype: object

>  <halogenbond:HIS:21>  (4) 
halogenbond:HIS:21    NaN
halogenbond:HIS:21     -1
Name: 2, dtype: object

>  <hydroph_interaction:LEU:22>  (4) 
hydroph_interaction:LEU:22    1.0
hydroph_interaction:LEU:22      1
Name: 2, dtype: object

>  <hbond:LEU:22>  (4) 
hbond:LEU:22    NaN
hbond:LEU:22     -1
Name: 2, dtype: object

>  <hydroph_interaction:TRP:28>  (4) 
hydroph_interaction:TRP:28    NaN
hydroph_interaction:TRP:28     -1
Name: 2, dtype: object

>  <hbond:SER:36>  (4) 
hbond:SER:36    NaN
hbond:SER:36     -1
Name: 2, dtype: object

>  <halogenbond:SER:36>  (4) 
halogenbond:SER:36    NaN
halogenbond:SER:36     -1
Name: 2, dtype: object

>  <hbond:SER:37>  (4) 
hbond:SER:37    NaN
hbond:SER:37     -1
Name: 2, dtype: object

>  <hbond:ARG:38>  (4) 
hbond:ARG:38    NaN
hbond:ARG:38     -1
Name: 2, dtype: object

>  <halogenbond:ARG:38>  (4) 
halogenbond:ARG:38    NaN
halogenbond:ARG:38     -1
Name: 2, dtype: object

>  <saltbridge:ASP:39>  (4) 
saltbridge:ASP:39    0.0
saltbridge:ASP:39      0
Name: 2, dtype: object

>  <halogenbond:ASP:39>  (4) 
halogenbond:ASP:39    NaN
halogenbond:ASP:39     -1
Name: 2, dtype: object

>  <hbond:ASP:39>  (4) 
hbond:ASP:39    0.0
hbond:ASP:39      0
Name: 2, dtype: object

>  <hydroph_interaction:ASP:39>  (4) 
hydroph_interaction:ASP:39    0.0
hydroph_interaction:ASP:39      0
Name: 2, dtype: object

>  <hydroph_interaction:LEU:40>  (4) 
hydroph_interaction:LEU:40    NaN
hydroph_interaction:LEU:40     -1
Name: 2, dtype: object

>  <hydroph_interaction:TYR:63>  (4) 
hydroph_interaction:TYR:63    0.0
hydroph_interaction:TYR:63      0
Name: 2, dtype: object

>  <hbond:TYR:63>  (4) 
hbond:TYR:63    NaN
hbond:TYR:63     -1
Name: 2, dtype: object

>  <pistack:TYR:63>  (4) 
pistack:TYR:63    NaN
pistack:TYR:63     -1
Name: 2, dtype: object

>  <pication:TYR:63>  (4) 
pication:TYR:63    NaN
pication:TYR:63     -1
Name: 2, dtype: object

>  <halogenbond:TYR:64>  (4) 
halogenbond:TYR:64    NaN
halogenbond:TYR:64     -1
Name: 2, dtype: object

>  <hbond:TYR:64>  (4) 
hbond:TYR:64    NaN
hbond:TYR:64     -1
Name: 2, dtype: object

>  <hydroph_interaction:TYR:64>  (4) 
hydroph_interaction:TYR:64    NaN
hydroph_interaction:TYR:64     -1
Name: 2, dtype: object

>  <halogenbond:CYS:65>  (4) 
halogenbond:CYS:65    NaN
halogenbond:CYS:65     -1
Name: 2, dtype: object

>  <hbond:CYS:65>  (4) 
hbond:CYS:65    NaN
hbond:CYS:65     -1
Name: 2, dtype: object

>  <hbond:SER:66>  (4) 
hbond:SER:66    NaN
hbond:SER:66     -1
Name: 2, dtype: object

>  <halogenbond:SER:66>  (4) 
halogenbond:SER:66    NaN
halogenbond:SER:66     -1
Name: 2, dtype: object

>  <hbond:SER:67>  (4) 
hbond:SER:67    0.0
hbond:SER:67      0
Name: 2, dtype: object

>  <halogenbond:SER:67>  (4) 
halogenbond:SER:67    NaN
halogenbond:SER:67     -1
Name: 2, dtype: object

>  <hbond:ARG:68>  (4) 
hbond:ARG:68    NaN
hbond:ARG:68     -1
Name: 2, dtype: object

>  <saltbridge:ARG:68>  (4) 
saltbridge:ARG:68    NaN
saltbridge:ARG:68     -1
Name: 2, dtype: object

>  <hydroph_interaction:ARG:68>  (4) 
hydroph_interaction:ARG:68    NaN
hydroph_interaction:ARG:68     -1
Name: 2, dtype: object

>  <pication:ARG:68>  (4) 
pication:ARG:68    NaN
pication:ARG:68     -1
Name: 2, dtype: object

>  <hydroph_interaction:TYR:72>  (4) 
hydroph_interaction:TYR:72    NaN
hydroph_interaction:TYR:72     -1
Name: 2, dtype: object

>  <hydroph_interaction:VAL:74>  (4) 
hydroph_interaction:VAL:74    NaN
hydroph_interaction:VAL:74     -1
Name: 2, dtype: object

>  <hydroph_interaction:PHE:76>  (4) 
hydroph_interaction:PHE:76    NaN
hydroph_interaction:PHE:76     -1
Name: 2, dtype: object

>  <hbond:SER:77>  (4) 
hbond:SER:77    NaN
hbond:SER:77     -1
Name: 2, dtype: object

>  <hbond:SER:80>  (4) 
hbond:SER:80    NaN
hbond:SER:80     -1
Name: 2, dtype: object

>  <hbond:LEU:81>  (4) 
hbond:LEU:81    NaN
hbond:LEU:81     -1
Name: 2, dtype: object

>  <halogenbond:LEU:81>  (4) 
halogenbond:LEU:81    NaN
halogenbond:LEU:81     -1
Name: 2, dtype: object

>  <hydroph_interaction:LEU:81>  (4) 
hydroph_interaction:LEU:81    NaN
hydroph_interaction:LEU:81     -1
Name: 2, dtype: object

>  <hydroph_interaction:ILE:82>  (4) 
hydroph_interaction:ILE:82    NaN
hydroph_interaction:ILE:82     -1
Name: 2, dtype: object

>  <halogenbond:ILE:82>  (4) 
halogenbond:ILE:82    NaN
halogenbond:ILE:82     -1
Name: 2, dtype: object

>  <hbond:ILE:82>  (4) 
hbond:ILE:82    NaN
hbond:ILE:82     -1
Name: 2, dtype: object

>  <hbond:PHE:83>  (4) 
hbond:PHE:83    NaN
hbond:PHE:83     -1
Name: 2, dtype: object

>  <hydroph_interaction:PHE:83>  (4) 
hydroph_interaction:PHE:83    NaN
hydroph_interaction:PHE:83     -1
Name: 2, dtype: object

>  <halogenbond:PHE:83>  (4) 
halogenbond:PHE:83    0.0
halogenbond:PHE:83      0
Name: 2, dtype: object

>  <pistack:PHE:83>  (4) 
pistack:PHE:83    NaN
pistack:PHE:83     -1
Name: 2, dtype: object

>  <pication:PHE:83>  (4) 
pication:PHE:83    NaN
pication:PHE:83     -1
Name: 2, dtype: object

>  <hydroph_interaction:VAL:84>  (4) 
hydroph_interaction:VAL:84    0.0
hydroph_interaction:VAL:84      0
Name: 2, dtype: object

>  <halogenbond:VAL:84>  (4) 
halogenbond:VAL:84    NaN
halogenbond:VAL:84     -1
Name: 2, dtype: object

>  <hbond:VAL:84>  (4) 
hbond:VAL:84    NaN
hbond:VAL:84     -1
Name: 2, dtype: object

>  <hydroph_interaction:GLU:85>  (4) 
hydroph_interaction:GLU:85    0.0
hydroph_interaction:GLU:85      0
Name: 2, dtype: object

>  <hbond:GLU:85>  (4) 
hbond:GLU:85    0.0
hbond:GLU:85      0
Name: 2, dtype: object

>  <halogenbond:GLU:85>  (4) 
halogenbond:GLU:85    NaN
halogenbond:GLU:85     -1
Name: 2, dtype: object

>  <saltbridge:GLU:85>  (4) 
saltbridge:GLU:85    0.0
saltbridge:GLU:85      0
Name: 2, dtype: object

>  <halogenbond:ALA:86>  (4) 
halogenbond:ALA:86    NaN
halogenbond:ALA:86     -1
Name: 2, dtype: object

>  <hbond:ALA:86>  (4) 
hbond:ALA:86    0.0
hbond:ALA:86      0
Name: 2, dtype: object

>  <hydroph_interaction:ALA:86>  (4) 
hydroph_interaction:ALA:86    NaN
hydroph_interaction:ALA:86     -1
Name: 2, dtype: object

>  <hbond:SER:87>  (4) 
hbond:SER:87    1
hbond:SER:87    1
Name: 2, dtype: object

>  <halogenbond:SER:87>  (4) 
halogenbond:SER:87    NaN
halogenbond:SER:87     -1
Name: 2, dtype: object

>  <hbond:GLU:88>  (4) 
hbond:GLU:88    1.0
hbond:GLU:88      1
Name: 2, dtype: object

>  <hydroph_interaction:GLU:88>  (4) 
hydroph_interaction:GLU:88    0.0
hydroph_interaction:GLU:88      0
Name: 2, dtype: object

>  <halogenbond:GLU:88>  (4) 
halogenbond:GLU:88    0.0
halogenbond:GLU:88      0
Name: 2, dtype: object

>  <saltbridge:GLU:88>  (4) 
saltbridge:GLU:88    NaN
saltbridge:GLU:88     -1
Name: 2, dtype: object

>  <hydroph_interaction:TYR:89>  (4) 
hydroph_interaction:TYR:89    1.0
hydroph_interaction:TYR:89      1
Name: 2, dtype: object

>  <pistack:TYR:89>  (4) 
pistack:TYR:89    0.0
pistack:TYR:89      0
Name: 2, dtype: object

>  <hbond:TYR:89>  (4) 
hbond:TYR:89    NaN
hbond:TYR:89     -1
Name: 2, dtype: object

>  <halogenbond:TYR:89>  (4) 
halogenbond:TYR:89    NaN
halogenbond:TYR:89     -1
Name: 2, dtype: object

>  <hydroph_interaction:TYR:90>  (4) 
hydroph_interaction:TYR:90    0.0
hydroph_interaction:TYR:90      0
Name: 2, dtype: object

>  <hbond:TYR:90>  (4) 
hbond:TYR:90    0.0
hbond:TYR:90      0
Name: 2, dtype: object

>  <pistack:TYR:90>  (4) 
pistack:TYR:90    0.0
pistack:TYR:90      0
Name: 2, dtype: object

>  <halogenbond:TYR:90>  (4) 
halogenbond:TYR:90    NaN
halogenbond:TYR:90     -1
Name: 2, dtype: object

>  <pication:TYR:90>  (4) 
pication:TYR:90    NaN
pication:TYR:90     -1
Name: 2, dtype: object

>  <hbond:PRO:91>  (4) 
hbond:PRO:91    NaN
hbond:PRO:91     -1
Name: 2, dtype: object

>  <hydroph_interaction:PRO:91>  (4) 
hydroph_interaction:PRO:91    NaN
hydroph_interaction:PRO:91     -1
Name: 2, dtype: object

>  <halogenbond:PRO:91>  (4) 
halogenbond:PRO:91    NaN
halogenbond:PRO:91     -1
Name: 2, dtype: object

>  <hbond:ALA:92>  (4) 
hbond:ALA:92    NaN
hbond:ALA:92     -1
Name: 2, dtype: object

>  <hydroph_interaction:ALA:92>  (4) 
hydroph_interaction:ALA:92    NaN
hydroph_interaction:ALA:92     -1
Name: 2, dtype: object

>  <saltbridge:ARG:93>  (4) 
saltbridge:ARG:93    NaN
saltbridge:ARG:93     -1
Name: 2, dtype: object

>  <hbond:ARG:93>  (4) 
hbond:ARG:93    0.0
hbond:ARG:93      0
Name: 2, dtype: object

>  <hydroph_interaction:ARG:93>  (4) 
hydroph_interaction:ARG:93    NaN
hydroph_interaction:ARG:93     -1
Name: 2, dtype: object

>  <halogenbond:ARG:93>  (4) 
halogenbond:ARG:93    NaN
halogenbond:ARG:93     -1
Name: 2, dtype: object

>  <pication:ARG:93>  (4) 
pication:ARG:93    NaN
pication:ARG:93     -1
Name: 2, dtype: object

>  <hydroph_interaction:TYR:94>  (4) 
hydroph_interaction:TYR:94    NaN
hydroph_interaction:TYR:94     -1
Name: 2, dtype: object

>  <pistack:TYR:94>  (4) 
pistack:TYR:94    NaN
pistack:TYR:94     -1
Name: 2, dtype: object

>  <hbond:TYR:94>  (4) 
hbond:TYR:94    NaN
hbond:TYR:94     -1
Name: 2, dtype: object

>  <hbond:GLN:95>  (4) 
hbond:GLN:95    NaN
hbond:GLN:95     -1
Name: 2, dtype: object

>  <hydroph_interaction:GLN:95>  (4) 
hydroph_interaction:GLN:95    0.0
hydroph_interaction:GLN:95      0
Name: 2, dtype: object

>  <halogenbond:GLN:95>  (4) 
halogenbond:GLN:95    NaN
halogenbond:GLN:95     -1
Name: 2, dtype: object

>  <hbond:SER:96>  (4) 
hbond:SER:96    NaN
hbond:SER:96     -1
Name: 2, dtype: object

>  <halogenbond:HIS:97>  (4) 
halogenbond:HIS:97    NaN
halogenbond:HIS:97     -1
Name: 2, dtype: object

>  <hydroph_interaction:LEU:98>  (4) 
hydroph_interaction:LEU:98    NaN
hydroph_interaction:LEU:98     -1
Name: 2, dtype: object

>  <hbond:LEU:98>  (4) 
hbond:LEU:98    NaN
hbond:LEU:98     -1
Name: 2, dtype: object

>  <halogenbond:LEU:98>  (4) 
halogenbond:LEU:98    NaN
halogenbond:LEU:98     -1
Name: 2, dtype: object

>  <hbond:MET:99>  (4) 
hbond:MET:99    NaN
hbond:MET:99     -1
Name: 2, dtype: object

>  <hydroph_interaction:MET:99>  (4) 
hydroph_interaction:MET:99    NaN
hydroph_interaction:MET:99     -1
Name: 2, dtype: object

>  <halogenbond:MET:99>  (4) 
halogenbond:MET:99    NaN
halogenbond:MET:99     -1
Name: 2, dtype: object

>  <hydroph_interaction:LEU:100>  (4) 
hydroph_interaction:LEU:100    0.0
hydroph_interaction:LEU:100      0
Name: 2, dtype: object

>  <hbond:LEU:100>  (4) 
hbond:LEU:100    NaN
hbond:LEU:100     -1
Name: 2, dtype: object

>  <hbond:ALA:101>  (4) 
hbond:ALA:101    NaN
hbond:ALA:101     -1
Name: 2, dtype: object

>  <hydroph_interaction:ALA:101>  (4) 
hydroph_interaction:ALA:101    NaN
hydroph_interaction:ALA:101     -1
Name: 2, dtype: object

>  <hydroph_interaction:VAL:102>  (4) 
hydroph_interaction:VAL:102    NaN
hydroph_interaction:VAL:102     -1
Name: 2, dtype: object

>  <hbond:VAL:102>  (4) 
hbond:VAL:102    NaN
hbond:VAL:102     -1
Name: 2, dtype: object

>  <hbond:GLY:103>  (4) 
hbond:GLY:103    NaN
hbond:GLY:103     -1
Name: 2, dtype: object

>  <halogenbond:GLY:103>  (4) 
halogenbond:GLY:103    NaN
halogenbond:GLY:103     -1
Name: 2, dtype: object

>  <hbond:HIS:104>  (4) 
hbond:HIS:104    NaN
hbond:HIS:104     -1
Name: 2, dtype: object

>  <saltbridge:HIS:104>  (4) 
saltbridge:HIS:104    NaN
saltbridge:HIS:104     -1
Name: 2, dtype: object

>  <pication:HIS:104>  (4) 
pication:HIS:104    NaN
pication:HIS:104     -1
Name: 2, dtype: object

>  <halogenbond:HIS:104>  (4) 
halogenbond:HIS:104    NaN
halogenbond:HIS:104     -1
Name: 2, dtype: object

>  <hydroph_interaction:HIS:104>  (4) 
hydroph_interaction:HIS:104    NaN
hydroph_interaction:HIS:104     -1
Name: 2, dtype: object

>  <pistack:HIS:104>  (4) 
pistack:HIS:104    NaN
pistack:HIS:104     -1
Name: 2, dtype: object

>  <halogenbond:SER:105>  (4) 
halogenbond:SER:105    0.0
halogenbond:SER:105      0
Name: 2, dtype: object

>  <hbond:SER:105>  (4) 
hbond:SER:105    0.0
hbond:SER:105      0
Name: 2, dtype: object

>  <hbond:GLU:106>  (4) 
hbond:GLU:106    0.0
hbond:GLU:106      0
Name: 2, dtype: object

>  <hydroph_interaction:GLU:106>  (4) 
hydroph_interaction:GLU:106    0.0
hydroph_interaction:GLU:106      0
Name: 2, dtype: object

>  <saltbridge:GLU:106>  (4) 
saltbridge:GLU:106    NaN
saltbridge:GLU:106     -1
Name: 2, dtype: object

>  <halogenbond:GLU:106>  (4) 
halogenbond:GLU:106    NaN
halogenbond:GLU:106     -1
Name: 2, dtype: object

>  <hydroph_interaction:PRO:107>  (4) 
hydroph_interaction:PRO:107    1
hydroph_interaction:PRO:107    1
Name: 2, dtype: object

>  <hbond:PRO:107>  (4) 
hbond:PRO:107    0.0
hbond:PRO:107      0
Name: 2, dtype: object

>  <halogenbond:PRO:107>  (4) 
halogenbond:PRO:107    0.0
halogenbond:PRO:107      0
Name: 2, dtype: object

>  <hbond:GLY:108>  (4) 
hbond:GLY:108    NaN
hbond:GLY:108     -1
Name: 2, dtype: object

>  <halogenbond:GLY:108>  (4) 
halogenbond:GLY:108    NaN
halogenbond:GLY:108     -1
Name: 2, dtype: object

>  <hbond:ASP:109>  (4) 
hbond:ASP:109    0.0
hbond:ASP:109      0
Name: 2, dtype: object

>  <hydroph_interaction:ASP:109>  (4) 
hydroph_interaction:ASP:109    0.0
hydroph_interaction:ASP:109      0
Name: 2, dtype: object

>  <saltbridge:ASP:109>  (4) 
saltbridge:ASP:109    NaN
saltbridge:ASP:109     -1
Name: 2, dtype: object

>  <halogenbond:CYS:110>  (4) 
halogenbond:CYS:110    0.0
halogenbond:CYS:110      0
Name: 2, dtype: object

>  <hbond:CYS:110>  (4) 
hbond:CYS:110    0.0
hbond:CYS:110      0
Name: 2, dtype: object

>  <hbond:GLY:111>  (4) 
hbond:GLY:111    NaN
hbond:GLY:111     -1
Name: 2, dtype: object

>  <hbond:GLY:112>  (4) 
hbond:GLY:112    NaN
hbond:GLY:112     -1
Name: 2, dtype: object

>  <hbond:ILE:113>  (4) 
hbond:ILE:113    NaN
hbond:ILE:113     -1
Name: 2, dtype: object

>  <hydroph_interaction:LEU:114>  (4) 
hydroph_interaction:LEU:114    NaN
hydroph_interaction:LEU:114     -1
Name: 2, dtype: object

>  <hbond:LEU:114>  (4) 
hbond:LEU:114    NaN
hbond:LEU:114     -1
Name: 2, dtype: object

>  <hydroph_interaction:ILE:123>  (4) 
hydroph_interaction:ILE:123    NaN
hydroph_interaction:ILE:123     -1
Name: 2, dtype: object

>  <hbond:ILE:123>  (4) 
hbond:ILE:123    NaN
hbond:ILE:123     -1
Name: 2, dtype: object

>  <hydroph_interaction:VAL:124>  (4) 
hydroph_interaction:VAL:124    0.0
hydroph_interaction:VAL:124      0
Name: 2, dtype: object

>  <hbond:VAL:124>  (4) 
hbond:VAL:124    NaN
hbond:VAL:124     -1
Name: 2, dtype: object

>  <halogenbond:VAL:124>  (4) 
halogenbond:VAL:124    NaN
halogenbond:VAL:124     -1
Name: 2, dtype: object

>  <hbond:SER:125>  (4) 
hbond:SER:125    2
hbond:SER:125    2
Name: 2, dtype: object

>  <halogenbond:SER:125>  (4) 
halogenbond:SER:125    0.0
halogenbond:SER:125      0
Name: 2, dtype: object

>  <hydroph_interaction:THR:126>  (4) 
hydroph_interaction:THR:126    0.0
hydroph_interaction:THR:126      0
Name: 2, dtype: object

>  <hbond:THR:126>  (4) 
hbond:THR:126    0.0
hbond:THR:126      0
Name: 2, dtype: object

>  <halogenbond:THR:126>  (4) 
halogenbond:THR:126    0.0
halogenbond:THR:126      0
Name: 2, dtype: object

>  <hbond:GLY:127>  (4) 
hbond:GLY:127    0
hbond:GLY:127    0
Name: 2, dtype: object

>  <halogenbond:GLY:127>  (4) 
halogenbond:GLY:127    NaN
halogenbond:GLY:127     -1
Name: 2, dtype: object

>  <hydroph_interaction:GLY:127>  (4) 
hydroph_interaction:GLY:127    NaN
hydroph_interaction:GLY:127     -1
Name: 2, dtype: object

>  <hbond:GLY:128>  (4) 
hbond:GLY:128    0.0
hbond:GLY:128      0
Name: 2, dtype: object

>  <halogenbond:GLY:128>  (4) 
halogenbond:GLY:128    NaN
halogenbond:GLY:128     -1
Name: 2, dtype: object

>  <hydroph_interaction:GLY:128>  (4) 
hydroph_interaction:GLY:128    NaN
hydroph_interaction:GLY:128     -1
Name: 2, dtype: object

>  <hbond:ASN:129>  (4) 
hbond:ASN:129    0.0
hbond:ASN:129      0
Name: 2, dtype: object

>  <hydroph_interaction:ASN:129>  (4) 
hydroph_interaction:ASN:129    0.0
hydroph_interaction:ASN:129      0
Name: 2, dtype: object

>  <halogenbond:ASN:129>  (4) 
halogenbond:ASN:129    NaN
halogenbond:ASN:129     -1
Name: 2, dtype: object

>  <hbond:GLY:130>  (4) 
hbond:GLY:130    0.0
hbond:GLY:130      0
Name: 2, dtype: object

>  <hbond:LEU:131>  (4) 
hbond:LEU:131    NaN
hbond:LEU:131     -1
Name: 2, dtype: object

>  <hydroph_interaction:LEU:131>  (4) 
hydroph_interaction:LEU:131    0.0
hydroph_interaction:LEU:131      0
Name: 2, dtype: object

>  <halogenbond:LEU:131>  (4) 
halogenbond:LEU:131    NaN
halogenbond:LEU:131     -1
Name: 2, dtype: object

>  <hydroph_interaction:VAL:132>  (4) 
hydroph_interaction:VAL:132    0.0
hydroph_interaction:VAL:132      0
Name: 2, dtype: object

>  <hbond:VAL:132>  (4) 
hbond:VAL:132    0.0
hbond:VAL:132      0
Name: 2, dtype: object

>  <hbond:GLY:133>  (4) 
hbond:GLY:133    0.0
hbond:GLY:133      0
Name: 2, dtype: object

>  <halogenbond:GLY:133>  (4) 
halogenbond:GLY:133    NaN
halogenbond:GLY:133     -1
Name: 2, dtype: object

>  <hydroph_interaction:PHE:134>  (4) 
hydroph_interaction:PHE:134    NaN
hydroph_interaction:PHE:134     -1
Name: 2, dtype: object

>  <hbond:PHE:134>  (4) 
hbond:PHE:134    NaN
hbond:PHE:134     -1
Name: 2, dtype: object

>  <pistack:PHE:134>  (4) 
pistack:PHE:134    NaN
pistack:PHE:134     -1
Name: 2, dtype: object

>  <pication:PHE:134>  (4) 
pication:PHE:134    NaN
pication:PHE:134     -1
Name: 2, dtype: object

>  <halogenbond:PHE:134>  (4) 
halogenbond:PHE:134    NaN
halogenbond:PHE:134     -1
Name: 2, dtype: object

>  <hydroph_interaction:ALA:135>  (4) 
hydroph_interaction:ALA:135    NaN
hydroph_interaction:ALA:135     -1
Name: 2, dtype: object

>  <hbond:ALA:135>  (4) 
hbond:ALA:135    NaN
hbond:ALA:135     -1
Name: 2, dtype: object

$$$$
Z1587360007
     RDKit          3D

 14 14  0  0  0  0  0  0  0  0999 V2000
   30.2382    8.5330    8.8409 C   0  0  0  0  0  0  0  0  0  0  0  0
   31.1457    9.3400    7.9847 C   0  0  0  0  0  0  0  0  0  0  0  0
   31.9198    8.7152    7.0623 C   0  0  0  0  0  0  0  0  0  0  0  0
   32.7932    9.3819    6.2176 C   0  0  0  0  0  0  0  0  0  0  0  0
   32.9138   10.7396    6.3189 C   0  0  0  0  0  0  0  0  0  0  0  0
   33.7926   11.4177    5.4810 C   0  0  0  0  0  0  0  0  0  0  0  0
   32.1462   11.4098    7.2863 C   0  0  0  0  0  0  0  0  0  0  0  0
   32.3077   12.8809    7.4742 C   0  0  1  0  0  0  0  0  0  0  0  0
   31.2927   13.4610    8.4769 C   0  0  0  0  0  0  0  0  0  0  0  0
   33.6109   13.1390    7.8808 N   0  0  0  0  0  0  0  0  0  0  0  0
   34.3620   13.9715    7.1355 C   0  0  0  0  0  0  0  0  0  0  0  0
   35.3924   14.4816    7.8394 N   0  0  0  0  0  0  0  0  0  0  0  0
   34.1670   14.2381    5.9619 O   0  0  0  0  0  0  0  0  0  0  0  0
   31.2513   10.7002    8.0958 C   0  0  0  0  0  0  0  0  0  0  0  0
  1  2  1  0
  2  3  2  0
  3  4  1  0
  4  5  2  0
  5  6  1  0
  5  7  1  0
  7  8  1  0
  8  9  1  1
  8 10  1  0
 10 11  1  0
 11 12  1  0
 11 13  2  0
  7 14  2  0
 14  2  1  0
A    1
 C1 
A    2
 C2 
A    3
 C3 
A    4
 C4 
A    5
 C5 
A    6
 C6 
A    7
 C7 
A    8
 C8 
A    9
 C9 
A   10
 N1 
A   11
 C10
A   12
 N2 
A   13
 O1 
A   14
 C11
M  END
>  <ref_pdb>  (5) 
Ax0310a

>  <ref_mols>  (5) 
Ax0416a,Ax1080a,Ax0451a

>  <original SMILES>  (5) 
Cc1ccc(C)c([C@H](C)NC(N)=O)c1

>  <rationale>  (5) 
info halogenbond:G127+D39+A86+Q95+E106+T126+H104+Y64+C65+N129+F83+R93+L131+I82+G128+P91+N19+H21+V84+G133+Y90+Y89+H97+L81+F134+L98+R20+G103+S66+S67+S7+G108+R38+V124+M99+S36; hbond:G127+Q95+D39+A86+D109+G108+G103+G128+G130+L131+N129+N19+H104+R68+V124+R93+P91+F83+S67+S7+S66+G112+G133+V132+R20+Y89+S77+A135+Y63+A92+A101+M99+F134+L100+I82+Y64+S36+L98+V84+L81+Y94+S80+R38+S37+V102+G8+I123+G111+I113+L114+C65+L22+S96; hydroph_interaction:V124+H21+L22+E106+D109+N129+D39+N19+L40+I123+A135+Q95+I82+L100+L98+L131+F83+R93+V132+Y63+F134+H104+R20+A86+V74+P91+A101+F76+M99+L114+A92+Y94+R68+Y72+Y64+V18+V102+W28+G127+G128+L81; pication:H104+R93+Y63+F134+Y90+R68+F83+R20; pistack:Y89+Y90+H104+F134+Y63+F83+Y94; saltbridge:R93+H104+E106+D109+E85+E88+R68+R20; 

>  <intxn_cluster>  (5) 
-1

>  <intxn_cluster_rank>  (5) 
-1

>  <N_interactions>  (5) 
4

>  <∆∆G>  (5) 
-9.539207

>  <$/mg>  (5) 
0.0

>  <comRMSD>  (5) 
0.784945

>  <N_rotatable_bonds>  (5) 
5

>  <deep_P1_sidechain>  (5) 
nan

>  <farthest_distance_to_substrate>  (5) 
2.600884

>  <hbond:SER:7>  (5) 
hbond:SER:7    NaN
hbond:SER:7     -1
Name: 3, dtype: object

>  <halogenbond:SER:7>  (5) 
halogenbond:SER:7    NaN
halogenbond:SER:7     -1
Name: 3, dtype: object

>  <hbond:GLY:8>  (5) 
hbond:GLY:8    NaN
hbond:GLY:8     -1
Name: 3, dtype: object

>  <hydroph_interaction:VAL:18>  (5) 
hydroph_interaction:VAL:18    NaN
hydroph_interaction:VAL:18     -1
Name: 3, dtype: object

>  <hbond:ASN:19>  (5) 
hbond:ASN:19    NaN
hbond:ASN:19     -1
Name: 3, dtype: object

>  <hydroph_interaction:ASN:19>  (5) 
hydroph_interaction:ASN:19    NaN
hydroph_interaction:ASN:19     -1
Name: 3, dtype: object

>  <halogenbond:ASN:19>  (5) 
halogenbond:ASN:19    NaN
halogenbond:ASN:19     -1
Name: 3, dtype: object

>  <hbond:ARG:20>  (5) 
hbond:ARG:20    NaN
hbond:ARG:20     -1
Name: 3, dtype: object

>  <hydroph_interaction:ARG:20>  (5) 
hydroph_interaction:ARG:20    NaN
hydroph_interaction:ARG:20     -1
Name: 3, dtype: object

>  <saltbridge:ARG:20>  (5) 
saltbridge:ARG:20    NaN
saltbridge:ARG:20     -1
Name: 3, dtype: object

>  <halogenbond:ARG:20>  (5) 
halogenbond:ARG:20    NaN
halogenbond:ARG:20     -1
Name: 3, dtype: object

>  <pication:ARG:20>  (5) 
pication:ARG:20    NaN
pication:ARG:20     -1
Name: 3, dtype: object

>  <hbond:HIS:21>  (5) 
hbond:HIS:21    0.0
hbond:HIS:21      0
Name: 3, dtype: object

>  <hydroph_interaction:HIS:21>  (5) 
hydroph_interaction:HIS:21    NaN
hydroph_interaction:HIS:21     -1
Name: 3, dtype: object

>  <pistack:HIS:21>  (5) 
pistack:HIS:21    0.0
pistack:HIS:21      0
Name: 3, dtype: object

>  <pication:HIS:21>  (5) 
pication:HIS:21    0.0
pication:HIS:21      0
Name: 3, dtype: object

>  <saltbridge:HIS:21>  (5) 
saltbridge:HIS:21    0.0
saltbridge:HIS:21      0
Name: 3, dtype: object

>  <halogenbond:HIS:21>  (5) 
halogenbond:HIS:21    NaN
halogenbond:HIS:21     -1
Name: 3, dtype: object

>  <hydroph_interaction:LEU:22>  (5) 
hydroph_interaction:LEU:22    NaN
hydroph_interaction:LEU:22     -1
Name: 3, dtype: object

>  <hbond:LEU:22>  (5) 
hbond:LEU:22    NaN
hbond:LEU:22     -1
Name: 3, dtype: object

>  <hydroph_interaction:TRP:28>  (5) 
hydroph_interaction:TRP:28    NaN
hydroph_interaction:TRP:28     -1
Name: 3, dtype: object

>  <hbond:SER:36>  (5) 
hbond:SER:36    NaN
hbond:SER:36     -1
Name: 3, dtype: object

>  <halogenbond:SER:36>  (5) 
halogenbond:SER:36    NaN
halogenbond:SER:36     -1
Name: 3, dtype: object

>  <hbond:SER:37>  (5) 
hbond:SER:37    NaN
hbond:SER:37     -1
Name: 3, dtype: object

>  <hbond:ARG:38>  (5) 
hbond:ARG:38    NaN
hbond:ARG:38     -1
Name: 3, dtype: object

>  <halogenbond:ARG:38>  (5) 
halogenbond:ARG:38    NaN
halogenbond:ARG:38     -1
Name: 3, dtype: object

>  <saltbridge:ASP:39>  (5) 
saltbridge:ASP:39    0.0
saltbridge:ASP:39      0
Name: 3, dtype: object

>  <halogenbond:ASP:39>  (5) 
halogenbond:ASP:39    NaN
halogenbond:ASP:39     -1
Name: 3, dtype: object

>  <hbond:ASP:39>  (5) 
hbond:ASP:39    NaN
hbond:ASP:39     -1
Name: 3, dtype: object

>  <hydroph_interaction:ASP:39>  (5) 
hydroph_interaction:ASP:39    NaN
hydroph_interaction:ASP:39     -1
Name: 3, dtype: object

>  <hydroph_interaction:LEU:40>  (5) 
hydroph_interaction:LEU:40    NaN
hydroph_interaction:LEU:40     -1
Name: 3, dtype: object

>  <hydroph_interaction:TYR:63>  (5) 
hydroph_interaction:TYR:63    NaN
hydroph_interaction:TYR:63     -1
Name: 3, dtype: object

>  <hbond:TYR:63>  (5) 
hbond:TYR:63    NaN
hbond:TYR:63     -1
Name: 3, dtype: object

>  <pistack:TYR:63>  (5) 
pistack:TYR:63    NaN
pistack:TYR:63     -1
Name: 3, dtype: object

>  <pication:TYR:63>  (5) 
pication:TYR:63    NaN
pication:TYR:63     -1
Name: 3, dtype: object

>  <halogenbond:TYR:64>  (5) 
halogenbond:TYR:64    NaN
halogenbond:TYR:64     -1
Name: 3, dtype: object

>  <hbond:TYR:64>  (5) 
hbond:TYR:64    NaN
hbond:TYR:64     -1
Name: 3, dtype: object

>  <hydroph_interaction:TYR:64>  (5) 
hydroph_interaction:TYR:64    NaN
hydroph_interaction:TYR:64     -1
Name: 3, dtype: object

>  <halogenbond:CYS:65>  (5) 
halogenbond:CYS:65    NaN
halogenbond:CYS:65     -1
Name: 3, dtype: object

>  <hbond:CYS:65>  (5) 
hbond:CYS:65    NaN
hbond:CYS:65     -1
Name: 3, dtype: object

>  <hbond:SER:66>  (5) 
hbond:SER:66    NaN
hbond:SER:66     -1
Name: 3, dtype: object

>  <halogenbond:SER:66>  (5) 
halogenbond:SER:66    NaN
halogenbond:SER:66     -1
Name: 3, dtype: object

>  <hbond:SER:67>  (5) 
hbond:SER:67    NaN
hbond:SER:67     -1
Name: 3, dtype: object

>  <halogenbond:SER:67>  (5) 
halogenbond:SER:67    NaN
halogenbond:SER:67     -1
Name: 3, dtype: object

>  <hbond:ARG:68>  (5) 
hbond:ARG:68    NaN
hbond:ARG:68     -1
Name: 3, dtype: object

>  <saltbridge:ARG:68>  (5) 
saltbridge:ARG:68    NaN
saltbridge:ARG:68     -1
Name: 3, dtype: object

>  <hydroph_interaction:ARG:68>  (5) 
hydroph_interaction:ARG:68    NaN
hydroph_interaction:ARG:68     -1
Name: 3, dtype: object

>  <pication:ARG:68>  (5) 
pication:ARG:68    NaN
pication:ARG:68     -1
Name: 3, dtype: object

>  <hydroph_interaction:TYR:72>  (5) 
hydroph_interaction:TYR:72    NaN
hydroph_interaction:TYR:72     -1
Name: 3, dtype: object

>  <hydroph_interaction:VAL:74>  (5) 
hydroph_interaction:VAL:74    NaN
hydroph_interaction:VAL:74     -1
Name: 3, dtype: object

>  <hydroph_interaction:PHE:76>  (5) 
hydroph_interaction:PHE:76    NaN
hydroph_interaction:PHE:76     -1
Name: 3, dtype: object

>  <hbond:SER:77>  (5) 
hbond:SER:77    NaN
hbond:SER:77     -1
Name: 3, dtype: object

>  <hbond:SER:80>  (5) 
hbond:SER:80    NaN
hbond:SER:80     -1
Name: 3, dtype: object

>  <hbond:LEU:81>  (5) 
hbond:LEU:81    NaN
hbond:LEU:81     -1
Name: 3, dtype: object

>  <halogenbond:LEU:81>  (5) 
halogenbond:LEU:81    NaN
halogenbond:LEU:81     -1
Name: 3, dtype: object

>  <hydroph_interaction:LEU:81>  (5) 
hydroph_interaction:LEU:81    NaN
hydroph_interaction:LEU:81     -1
Name: 3, dtype: object

>  <hydroph_interaction:ILE:82>  (5) 
hydroph_interaction:ILE:82    NaN
hydroph_interaction:ILE:82     -1
Name: 3, dtype: object

>  <halogenbond:ILE:82>  (5) 
halogenbond:ILE:82    NaN
halogenbond:ILE:82     -1
Name: 3, dtype: object

>  <hbond:ILE:82>  (5) 
hbond:ILE:82    NaN
hbond:ILE:82     -1
Name: 3, dtype: object

>  <hbond:PHE:83>  (5) 
hbond:PHE:83    NaN
hbond:PHE:83     -1
Name: 3, dtype: object

>  <hydroph_interaction:PHE:83>  (5) 
hydroph_interaction:PHE:83    NaN
hydroph_interaction:PHE:83     -1
Name: 3, dtype: object

>  <halogenbond:PHE:83>  (5) 
halogenbond:PHE:83    NaN
halogenbond:PHE:83     -1
Name: 3, dtype: object

>  <pistack:PHE:83>  (5) 
pistack:PHE:83    NaN
pistack:PHE:83     -1
Name: 3, dtype: object

>  <pication:PHE:83>  (5) 
pication:PHE:83    NaN
pication:PHE:83     -1
Name: 3, dtype: object

>  <hydroph_interaction:VAL:84>  (5) 
hydroph_interaction:VAL:84    0.0
hydroph_interaction:VAL:84      0
Name: 3, dtype: object

>  <halogenbond:VAL:84>  (5) 
halogenbond:VAL:84    NaN
halogenbond:VAL:84     -1
Name: 3, dtype: object

>  <hbond:VAL:84>  (5) 
hbond:VAL:84    NaN
hbond:VAL:84     -1
Name: 3, dtype: object

>  <hydroph_interaction:GLU:85>  (5) 
hydroph_interaction:GLU:85    0.0
hydroph_interaction:GLU:85      0
Name: 3, dtype: object

>  <hbond:GLU:85>  (5) 
hbond:GLU:85    0.0
hbond:GLU:85      0
Name: 3, dtype: object

>  <halogenbond:GLU:85>  (5) 
halogenbond:GLU:85    0.0
halogenbond:GLU:85      0
Name: 3, dtype: object

>  <saltbridge:GLU:85>  (5) 
saltbridge:GLU:85    NaN
saltbridge:GLU:85     -1
Name: 3, dtype: object

>  <halogenbond:ALA:86>  (5) 
halogenbond:ALA:86    NaN
halogenbond:ALA:86     -1
Name: 3, dtype: object

>  <hbond:ALA:86>  (5) 
hbond:ALA:86    1.0
hbond:ALA:86      1
Name: 3, dtype: object

>  <hydroph_interaction:ALA:86>  (5) 
hydroph_interaction:ALA:86    NaN
hydroph_interaction:ALA:86     -1
Name: 3, dtype: object

>  <hbond:SER:87>  (5) 
hbond:SER:87    0
hbond:SER:87    0
Name: 3, dtype: object

>  <halogenbond:SER:87>  (5) 
halogenbond:SER:87    0.0
halogenbond:SER:87      0
Name: 3, dtype: object

>  <hbond:GLU:88>  (5) 
hbond:GLU:88    0.0
hbond:GLU:88      0
Name: 3, dtype: object

>  <hydroph_interaction:GLU:88>  (5) 
hydroph_interaction:GLU:88    0.0
hydroph_interaction:GLU:88      0
Name: 3, dtype: object

>  <halogenbond:GLU:88>  (5) 
halogenbond:GLU:88    0.0
halogenbond:GLU:88      0
Name: 3, dtype: object

>  <saltbridge:GLU:88>  (5) 
saltbridge:GLU:88    NaN
saltbridge:GLU:88     -1
Name: 3, dtype: object

>  <hydroph_interaction:TYR:89>  (5) 
hydroph_interaction:TYR:89    0.0
hydroph_interaction:TYR:89      0
Name: 3, dtype: object

>  <pistack:TYR:89>  (5) 
pistack:TYR:89    NaN
pistack:TYR:89     -1
Name: 3, dtype: object

>  <hbond:TYR:89>  (5) 
hbond:TYR:89    NaN
hbond:TYR:89     -1
Name: 3, dtype: object

>  <halogenbond:TYR:89>  (5) 
halogenbond:TYR:89    NaN
halogenbond:TYR:89     -1
Name: 3, dtype: object

>  <hydroph_interaction:TYR:90>  (5) 
hydroph_interaction:TYR:90    0.0
hydroph_interaction:TYR:90      0
Name: 3, dtype: object

>  <hbond:TYR:90>  (5) 
hbond:TYR:90    0.0
hbond:TYR:90      0
Name: 3, dtype: object

>  <pistack:TYR:90>  (5) 
pistack:TYR:90    NaN
pistack:TYR:90     -1
Name: 3, dtype: object

>  <halogenbond:TYR:90>  (5) 
halogenbond:TYR:90    NaN
halogenbond:TYR:90     -1
Name: 3, dtype: object

>  <pication:TYR:90>  (5) 
pication:TYR:90    NaN
pication:TYR:90     -1
Name: 3, dtype: object

>  <hbond:PRO:91>  (5) 
hbond:PRO:91    NaN
hbond:PRO:91     -1
Name: 3, dtype: object

>  <hydroph_interaction:PRO:91>  (5) 
hydroph_interaction:PRO:91    NaN
hydroph_interaction:PRO:91     -1
Name: 3, dtype: object

>  <halogenbond:PRO:91>  (5) 
halogenbond:PRO:91    NaN
halogenbond:PRO:91     -1
Name: 3, dtype: object

>  <hbond:ALA:92>  (5) 
hbond:ALA:92    NaN
hbond:ALA:92     -1
Name: 3, dtype: object

>  <hydroph_interaction:ALA:92>  (5) 
hydroph_interaction:ALA:92    NaN
hydroph_interaction:ALA:92     -1
Name: 3, dtype: object

>  <saltbridge:ARG:93>  (5) 
saltbridge:ARG:93    NaN
saltbridge:ARG:93     -1
Name: 3, dtype: object

>  <hbond:ARG:93>  (5) 
hbond:ARG:93    NaN
hbond:ARG:93     -1
Name: 3, dtype: object

>  <hydroph_interaction:ARG:93>  (5) 
hydroph_interaction:ARG:93    NaN
hydroph_interaction:ARG:93     -1
Name: 3, dtype: object

>  <halogenbond:ARG:93>  (5) 
halogenbond:ARG:93    NaN
halogenbond:ARG:93     -1
Name: 3, dtype: object

>  <pication:ARG:93>  (5) 
pication:ARG:93    NaN
pication:ARG:93     -1
Name: 3, dtype: object

>  <hydroph_interaction:TYR:94>  (5) 
hydroph_interaction:TYR:94    NaN
hydroph_interaction:TYR:94     -1
Name: 3, dtype: object

>  <pistack:TYR:94>  (5) 
pistack:TYR:94    NaN
pistack:TYR:94     -1
Name: 3, dtype: object

>  <hbond:TYR:94>  (5) 
hbond:TYR:94    NaN
hbond:TYR:94     -1
Name: 3, dtype: object

>  <hbond:GLN:95>  (5) 
hbond:GLN:95    NaN
hbond:GLN:95     -1
Name: 3, dtype: object

>  <hydroph_interaction:GLN:95>  (5) 
hydroph_interaction:GLN:95    NaN
hydroph_interaction:GLN:95     -1
Name: 3, dtype: object

>  <halogenbond:GLN:95>  (5) 
halogenbond:GLN:95    NaN
halogenbond:GLN:95     -1
Name: 3, dtype: object

>  <hbond:SER:96>  (5) 
hbond:SER:96    NaN
hbond:SER:96     -1
Name: 3, dtype: object

>  <halogenbond:HIS:97>  (5) 
halogenbond:HIS:97    NaN
halogenbond:HIS:97     -1
Name: 3, dtype: object

>  <hydroph_interaction:LEU:98>  (5) 
hydroph_interaction:LEU:98    NaN
hydroph_interaction:LEU:98     -1
Name: 3, dtype: object

>  <hbond:LEU:98>  (5) 
hbond:LEU:98    NaN
hbond:LEU:98     -1
Name: 3, dtype: object

>  <halogenbond:LEU:98>  (5) 
halogenbond:LEU:98    NaN
halogenbond:LEU:98     -1
Name: 3, dtype: object

>  <hbond:MET:99>  (5) 
hbond:MET:99    NaN
hbond:MET:99     -1
Name: 3, dtype: object

>  <hydroph_interaction:MET:99>  (5) 
hydroph_interaction:MET:99    NaN
hydroph_interaction:MET:99     -1
Name: 3, dtype: object

>  <halogenbond:MET:99>  (5) 
halogenbond:MET:99    NaN
halogenbond:MET:99     -1
Name: 3, dtype: object

>  <hydroph_interaction:LEU:100>  (5) 
hydroph_interaction:LEU:100    NaN
hydroph_interaction:LEU:100     -1
Name: 3, dtype: object

>  <hbond:LEU:100>  (5) 
hbond:LEU:100    NaN
hbond:LEU:100     -1
Name: 3, dtype: object

>  <hbond:ALA:101>  (5) 
hbond:ALA:101    NaN
hbond:ALA:101     -1
Name: 3, dtype: object

>  <hydroph_interaction:ALA:101>  (5) 
hydroph_interaction:ALA:101    NaN
hydroph_interaction:ALA:101     -1
Name: 3, dtype: object

>  <hydroph_interaction:VAL:102>  (5) 
hydroph_interaction:VAL:102    NaN
hydroph_interaction:VAL:102     -1
Name: 3, dtype: object

>  <hbond:VAL:102>  (5) 
hbond:VAL:102    NaN
hbond:VAL:102     -1
Name: 3, dtype: object

>  <hbond:GLY:103>  (5) 
hbond:GLY:103    NaN
hbond:GLY:103     -1
Name: 3, dtype: object

>  <halogenbond:GLY:103>  (5) 
halogenbond:GLY:103    NaN
halogenbond:GLY:103     -1
Name: 3, dtype: object

>  <hbond:HIS:104>  (5) 
hbond:HIS:104    NaN
hbond:HIS:104     -1
Name: 3, dtype: object

>  <saltbridge:HIS:104>  (5) 
saltbridge:HIS:104    NaN
saltbridge:HIS:104     -1
Name: 3, dtype: object

>  <pication:HIS:104>  (5) 
pication:HIS:104    NaN
pication:HIS:104     -1
Name: 3, dtype: object

>  <halogenbond:HIS:104>  (5) 
halogenbond:HIS:104    NaN
halogenbond:HIS:104     -1
Name: 3, dtype: object

>  <hydroph_interaction:HIS:104>  (5) 
hydroph_interaction:HIS:104    NaN
hydroph_interaction:HIS:104     -1
Name: 3, dtype: object

>  <pistack:HIS:104>  (5) 
pistack:HIS:104    NaN
pistack:HIS:104     -1
Name: 3, dtype: object

>  <halogenbond:SER:105>  (5) 
halogenbond:SER:105    0.0
halogenbond:SER:105      0
Name: 3, dtype: object

>  <hbond:SER:105>  (5) 
hbond:SER:105    0.0
hbond:SER:105      0
Name: 3, dtype: object

>  <hbond:GLU:106>  (5) 
hbond:GLU:106    0.0
hbond:GLU:106      0
Name: 3, dtype: object

>  <hydroph_interaction:GLU:106>  (5) 
hydroph_interaction:GLU:106    NaN
hydroph_interaction:GLU:106     -1
Name: 3, dtype: object

>  <saltbridge:GLU:106>  (5) 
saltbridge:GLU:106    NaN
saltbridge:GLU:106     -1
Name: 3, dtype: object

>  <halogenbond:GLU:106>  (5) 
halogenbond:GLU:106    NaN
halogenbond:GLU:106     -1
Name: 3, dtype: object

>  <hydroph_interaction:PRO:107>  (5) 
hydroph_interaction:PRO:107    0
hydroph_interaction:PRO:107    0
Name: 3, dtype: object

>  <hbond:PRO:107>  (5) 
hbond:PRO:107    0.0
hbond:PRO:107      0
Name: 3, dtype: object

>  <halogenbond:PRO:107>  (5) 
halogenbond:PRO:107    0.0
halogenbond:PRO:107      0
Name: 3, dtype: object

>  <hbond:GLY:108>  (5) 
hbond:GLY:108    NaN
hbond:GLY:108     -1
Name: 3, dtype: object

>  <halogenbond:GLY:108>  (5) 
halogenbond:GLY:108    NaN
halogenbond:GLY:108     -1
Name: 3, dtype: object

>  <hbond:ASP:109>  (5) 
hbond:ASP:109    NaN
hbond:ASP:109     -1
Name: 3, dtype: object

>  <hydroph_interaction:ASP:109>  (5) 
hydroph_interaction:ASP:109    NaN
hydroph_interaction:ASP:109     -1
Name: 3, dtype: object

>  <saltbridge:ASP:109>  (5) 
saltbridge:ASP:109    NaN
saltbridge:ASP:109     -1
Name: 3, dtype: object

>  <halogenbond:CYS:110>  (5) 
halogenbond:CYS:110    0.0
halogenbond:CYS:110      0
Name: 3, dtype: object

>  <hbond:CYS:110>  (5) 
hbond:CYS:110    0.0
hbond:CYS:110      0
Name: 3, dtype: object

>  <hbond:GLY:111>  (5) 
hbond:GLY:111    NaN
hbond:GLY:111     -1
Name: 3, dtype: object

>  <hbond:GLY:112>  (5) 
hbond:GLY:112    NaN
hbond:GLY:112     -1
Name: 3, dtype: object

>  <hbond:ILE:113>  (5) 
hbond:ILE:113    NaN
hbond:ILE:113     -1
Name: 3, dtype: object

>  <hydroph_interaction:LEU:114>  (5) 
hydroph_interaction:LEU:114    NaN
hydroph_interaction:LEU:114     -1
Name: 3, dtype: object

>  <hbond:LEU:114>  (5) 
hbond:LEU:114    NaN
hbond:LEU:114     -1
Name: 3, dtype: object

>  <hydroph_interaction:ILE:123>  (5) 
hydroph_interaction:ILE:123    NaN
hydroph_interaction:ILE:123     -1
Name: 3, dtype: object

>  <hbond:ILE:123>  (5) 
hbond:ILE:123    NaN
hbond:ILE:123     -1
Name: 3, dtype: object

>  <hydroph_interaction:VAL:124>  (5) 
hydroph_interaction:VAL:124    1.0
hydroph_interaction:VAL:124      1
Name: 3, dtype: object

>  <hbond:VAL:124>  (5) 
hbond:VAL:124    NaN
hbond:VAL:124     -1
Name: 3, dtype: object

>  <halogenbond:VAL:124>  (5) 
halogenbond:VAL:124    NaN
halogenbond:VAL:124     -1
Name: 3, dtype: object

>  <hbond:SER:125>  (5) 
hbond:SER:125    0
hbond:SER:125    0
Name: 3, dtype: object

>  <halogenbond:SER:125>  (5) 
halogenbond:SER:125    0.0
halogenbond:SER:125      0
Name: 3, dtype: object

>  <hydroph_interaction:THR:126>  (5) 
hydroph_interaction:THR:126    0.0
hydroph_interaction:THR:126      0
Name: 3, dtype: object

>  <hbond:THR:126>  (5) 
hbond:THR:126    0.0
hbond:THR:126      0
Name: 3, dtype: object

>  <halogenbond:THR:126>  (5) 
halogenbond:THR:126    NaN
halogenbond:THR:126     -1
Name: 3, dtype: object

>  <hbond:GLY:127>  (5) 
hbond:GLY:127    2
hbond:GLY:127    2
Name: 3, dtype: object

>  <halogenbond:GLY:127>  (5) 
halogenbond:GLY:127    NaN
halogenbond:GLY:127     -1
Name: 3, dtype: object

>  <hydroph_interaction:GLY:127>  (5) 
hydroph_interaction:GLY:127    NaN
hydroph_interaction:GLY:127     -1
Name: 3, dtype: object

>  <hbond:GLY:128>  (5) 
hbond:GLY:128    NaN
hbond:GLY:128     -1
Name: 3, dtype: object

>  <halogenbond:GLY:128>  (5) 
halogenbond:GLY:128    NaN
halogenbond:GLY:128     -1
Name: 3, dtype: object

>  <hydroph_interaction:GLY:128>  (5) 
hydroph_interaction:GLY:128    NaN
hydroph_interaction:GLY:128     -1
Name: 3, dtype: object

>  <hbond:ASN:129>  (5) 
hbond:ASN:129    NaN
hbond:ASN:129     -1
Name: 3, dtype: object

>  <hydroph_interaction:ASN:129>  (5) 
hydroph_interaction:ASN:129    NaN
hydroph_interaction:ASN:129     -1
Name: 3, dtype: object

>  <halogenbond:ASN:129>  (5) 
halogenbond:ASN:129    NaN
halogenbond:ASN:129     -1
Name: 3, dtype: object

>  <hbond:GLY:130>  (5) 
hbond:GLY:130    NaN
hbond:GLY:130     -1
Name: 3, dtype: object

>  <hbond:LEU:131>  (5) 
hbond:LEU:131    NaN
hbond:LEU:131     -1
Name: 3, dtype: object

>  <hydroph_interaction:LEU:131>  (5) 
hydroph_interaction:LEU:131    NaN
hydroph_interaction:LEU:131     -1
Name: 3, dtype: object

>  <halogenbond:LEU:131>  (5) 
halogenbond:LEU:131    NaN
halogenbond:LEU:131     -1
Name: 3, dtype: object

>  <hydroph_interaction:VAL:132>  (5) 
hydroph_interaction:VAL:132    NaN
hydroph_interaction:VAL:132     -1
Name: 3, dtype: object

>  <hbond:VAL:132>  (5) 
hbond:VAL:132    NaN
hbond:VAL:132     -1
Name: 3, dtype: object

>  <hbond:GLY:133>  (5) 
hbond:GLY:133    NaN
hbond:GLY:133     -1
Name: 3, dtype: object

>  <halogenbond:GLY:133>  (5) 
halogenbond:GLY:133    NaN
halogenbond:GLY:133     -1
Name: 3, dtype: object

>  <hydroph_interaction:PHE:134>  (5) 
hydroph_interaction:PHE:134    NaN
hydroph_interaction:PHE:134     -1
Name: 3, dtype: object

>  <hbond:PHE:134>  (5) 
hbond:PHE:134    NaN
hbond:PHE:134     -1
Name: 3, dtype: object

>  <pistack:PHE:134>  (5) 
pistack:PHE:134    NaN
pistack:PHE:134     -1
Name: 3, dtype: object

>  <pication:PHE:134>  (5) 
pication:PHE:134    NaN
pication:PHE:134     -1
Name: 3, dtype: object

>  <halogenbond:PHE:134>  (5) 
halogenbond:PHE:134    NaN
halogenbond:PHE:134     -1
Name: 3, dtype: object

>  <hydroph_interaction:ALA:135>  (5) 
hydroph_interaction:ALA:135    NaN
hydroph_interaction:ALA:135     -1
Name: 3, dtype: object

>  <hbond:ALA:135>  (5) 
hbond:ALA:135    NaN
hbond:ALA:135     -1
Name: 3, dtype: object

$$$$
Z2724541022
     RDKit          3D

 15 15  0  0  0  0  0  0  0  0999 V2000
   33.4835   12.4048    6.0864 C   0  0  0  0  0  0  0  0  0  0  0  0
   32.1878   12.4459    6.6930 O   0  0  0  0  0  0  0  0  0  0  0  0
   31.7138   11.1919    6.9491 C   0  0  0  0  0  0  0  0  0  0  0  0
   32.0842   10.1841    6.3588 O   0  0  0  0  0  0  0  0  0  0  0  0
   30.7957   11.1827    7.9399 N   0  0  0  0  0  0  0  0  0  0  0  0
   29.8778   12.2467    8.1702 N   0  0  0  0  0  0  0  0  0  0  0  0
   29.3381   12.9202    7.0629 C   0  0  0  0  0  0  0  0  0  0  0  0
   29.9276   12.8831    5.9942 O   0  0  0  0  0  0  0  0  0  0  0  0
   28.0259   13.7231    7.1376 C   0  0  0  0  0  0  0  0  0  0  0  0
   27.1005   13.3477    8.1780 N   0  0  0  0  0  0  0  0  0  0  0  0
   27.5826   13.3357    9.4653 N   0  0  0  0  0  0  0  0  0  0  0  0
   26.5305   12.9531   10.1969 C   0  0  0  0  0  0  0  0  0  0  0  0
   25.3313   12.7224    9.3634 C   0  0  0  0  0  0  0  0  0  0  0  0
   25.7666   12.9791    8.1214 C   0  0  0  0  0  0  0  0  0  0  0  0
   25.0550   12.8998    6.9032 C   0  0  0  0  0  0  0  0  0  0  0  0
  1  2  1  0
  2  3  1  0
  3  4  2  0
  3  5  1  0
  5  6  1  0
  6  7  1  0
  7  8  2  0
  7  9  1  0
  9 10  1  0
 10 11  1  0
 11 12  2  0
 12 13  1  0
 13 14  2  0
 14 15  1  0
 14 10  1  0
A    1
 C1 
A    2
 O1 
A    3
 C2 
A    4
 O2 
A    5
 N1 
A    6
 N2 
A    7
 C3 
A    8
 O3 
A    9
 C4 
A   10
 N3 
A   11
 N4 
A   12
 C5 
A   13
 C6 
A   14
 C7 
A   15
 C8 
M  END
>  <ref_pdb>  (6) 
Ax0310a

>  <ref_mols>  (6) 
Ax0451a,Ax0554a

>  <original SMILES>  (6) 
COC(=O)NNC(=O)Cn1nccc1C

>  <rationale>  (6) 
info halogenbond:C110+A86+S125+E85+E106+E88+T126+H104+Y64+C65+S87+N129+F83+R93+L131+I82+G128+P91+N19+H21+V84+G133+Y90+Y89+H97+L81+F134+L98+R20+G103+S66+S67+S7+G108+R38+V124+M99+S36; hbond:S87+S125+Q95+D39+E85+G108+G103+N129+N19+H104+R68+V124+R93+P91+F83+S67+S7+S66+G112+G133+V132+R20+Y89+S77+A135+Y63+A92+A101+M99+F134+L100+I82+Y64+S36+L98+V84+L81+Y94+S80+R38+S37+V102+G8+I123+G111+I113+L114+C65+L22+S96; hydroph_interaction:Y89+H21+L22+D39+N19+L40+I123+A135+Q95+I82+L98+F83+R93+H104+R20+A86+V74+P91+A101+F76+M99+L114+A92+Y94+R68+Y72+Y64+V18+V102+W28+G127+G128+L81; pication:H104+R93+Y63+F134+Y90+R68+F83+R20; pistack:H21+Y89+Y90+H104+F134+F83+Y94; saltbridge:D39+R93+H104+E106+D109+E85+E88+R68+R20; 

>  <intxn_cluster>  (6) 
-1

>  <intxn_cluster_rank>  (6) 
-1

>  <N_interactions>  (6) 
8

>  <∆∆G>  (6) 
-6.398748

>  <$/mg>  (6) 
163.0

>  <comRMSD>  (6) 
0.752237

>  <N_rotatable_bonds>  (6) 
4

>  <deep_P1_sidechain>  (6) 
nan

>  <farthest_distance_to_substrate>  (6) 
3.17853

>  <hbond:SER:7>  (6) 
hbond:SER:7    NaN
hbond:SER:7     -1
Name: 4, dtype: object

>  <halogenbond:SER:7>  (6) 
halogenbond:SER:7    NaN
halogenbond:SER:7     -1
Name: 4, dtype: object

>  <hbond:GLY:8>  (6) 
hbond:GLY:8    NaN
hbond:GLY:8     -1
Name: 4, dtype: object

>  <hydroph_interaction:VAL:18>  (6) 
hydroph_interaction:VAL:18    NaN
hydroph_interaction:VAL:18     -1
Name: 4, dtype: object

>  <hbond:ASN:19>  (6) 
hbond:ASN:19    NaN
hbond:ASN:19     -1
Name: 4, dtype: object

>  <hydroph_interaction:ASN:19>  (6) 
hydroph_interaction:ASN:19    1.0
hydroph_interaction:ASN:19      1
Name: 4, dtype: object

>  <halogenbond:ASN:19>  (6) 
halogenbond:ASN:19    NaN
halogenbond:ASN:19     -1
Name: 4, dtype: object

>  <hbond:ARG:20>  (6) 
hbond:ARG:20    NaN
hbond:ARG:20     -1
Name: 4, dtype: object

>  <hydroph_interaction:ARG:20>  (6) 
hydroph_interaction:ARG:20    NaN
hydroph_interaction:ARG:20     -1
Name: 4, dtype: object

>  <saltbridge:ARG:20>  (6) 
saltbridge:ARG:20    NaN
saltbridge:ARG:20     -1
Name: 4, dtype: object

>  <halogenbond:ARG:20>  (6) 
halogenbond:ARG:20    NaN
halogenbond:ARG:20     -1
Name: 4, dtype: object

>  <pication:ARG:20>  (6) 
pication:ARG:20    NaN
pication:ARG:20     -1
Name: 4, dtype: object

>  <hbond:HIS:21>  (6) 
hbond:HIS:21    0.0
hbond:HIS:21      0
Name: 4, dtype: object

>  <hydroph_interaction:HIS:21>  (6) 
hydroph_interaction:HIS:21    1.0
hydroph_interaction:HIS:21      1
Name: 4, dtype: object

>  <pistack:HIS:21>  (6) 
pistack:HIS:21    1.0
pistack:HIS:21      1
Name: 4, dtype: object

>  <pication:HIS:21>  (6) 
pication:HIS:21    0.0
pication:HIS:21      0
Name: 4, dtype: object

>  <saltbridge:HIS:21>  (6) 
saltbridge:HIS:21    0.0
saltbridge:HIS:21      0
Name: 4, dtype: object

>  <halogenbond:HIS:21>  (6) 
halogenbond:HIS:21    NaN
halogenbond:HIS:21     -1
Name: 4, dtype: object

>  <hydroph_interaction:LEU:22>  (6) 
hydroph_interaction:LEU:22    1.0
hydroph_interaction:LEU:22      1
Name: 4, dtype: object

>  <hbond:LEU:22>  (6) 
hbond:LEU:22    NaN
hbond:LEU:22     -1
Name: 4, dtype: object

>  <hydroph_interaction:TRP:28>  (6) 
hydroph_interaction:TRP:28    NaN
hydroph_interaction:TRP:28     -1
Name: 4, dtype: object

>  <hbond:SER:36>  (6) 
hbond:SER:36    NaN
hbond:SER:36     -1
Name: 4, dtype: object

>  <halogenbond:SER:36>  (6) 
halogenbond:SER:36    NaN
halogenbond:SER:36     -1
Name: 4, dtype: object

>  <hbond:SER:37>  (6) 
hbond:SER:37    NaN
hbond:SER:37     -1
Name: 4, dtype: object

>  <hbond:ARG:38>  (6) 
hbond:ARG:38    NaN
hbond:ARG:38     -1
Name: 4, dtype: object

>  <halogenbond:ARG:38>  (6) 
halogenbond:ARG:38    NaN
halogenbond:ARG:38     -1
Name: 4, dtype: object

>  <saltbridge:ASP:39>  (6) 
saltbridge:ASP:39    NaN
saltbridge:ASP:39     -1
Name: 4, dtype: object

>  <halogenbond:ASP:39>  (6) 
halogenbond:ASP:39    0.0
halogenbond:ASP:39      0
Name: 4, dtype: object

>  <hbond:ASP:39>  (6) 
hbond:ASP:39    NaN
hbond:ASP:39     -1
Name: 4, dtype: object

>  <hydroph_interaction:ASP:39>  (6) 
hydroph_interaction:ASP:39    NaN
hydroph_interaction:ASP:39     -1
Name: 4, dtype: object

>  <hydroph_interaction:LEU:40>  (6) 
hydroph_interaction:LEU:40    NaN
hydroph_interaction:LEU:40     -1
Name: 4, dtype: object

>  <hydroph_interaction:TYR:63>  (6) 
hydroph_interaction:TYR:63    0.0
hydroph_interaction:TYR:63      0
Name: 4, dtype: object

>  <hbond:TYR:63>  (6) 
hbond:TYR:63    NaN
hbond:TYR:63     -1
Name: 4, dtype: object

>  <pistack:TYR:63>  (6) 
pistack:TYR:63    0.0
pistack:TYR:63      0
Name: 4, dtype: object

>  <pication:TYR:63>  (6) 
pication:TYR:63    NaN
pication:TYR:63     -1
Name: 4, dtype: object

>  <halogenbond:TYR:64>  (6) 
halogenbond:TYR:64    NaN
halogenbond:TYR:64     -1
Name: 4, dtype: object

>  <hbond:TYR:64>  (6) 
hbond:TYR:64    NaN
hbond:TYR:64     -1
Name: 4, dtype: object

>  <hydroph_interaction:TYR:64>  (6) 
hydroph_interaction:TYR:64    NaN
hydroph_interaction:TYR:64     -1
Name: 4, dtype: object

>  <halogenbond:CYS:65>  (6) 
halogenbond:CYS:65    NaN
halogenbond:CYS:65     -1
Name: 4, dtype: object

>  <hbond:CYS:65>  (6) 
hbond:CYS:65    NaN
hbond:CYS:65     -1
Name: 4, dtype: object

>  <hbond:SER:66>  (6) 
hbond:SER:66    NaN
hbond:SER:66     -1
Name: 4, dtype: object

>  <halogenbond:SER:66>  (6) 
halogenbond:SER:66    NaN
halogenbond:SER:66     -1
Name: 4, dtype: object

>  <hbond:SER:67>  (6) 
hbond:SER:67    NaN
hbond:SER:67     -1
Name: 4, dtype: object

>  <halogenbond:SER:67>  (6) 
halogenbond:SER:67    NaN
halogenbond:SER:67     -1
Name: 4, dtype: object

>  <hbond:ARG:68>  (6) 
hbond:ARG:68    NaN
hbond:ARG:68     -1
Name: 4, dtype: object

>  <saltbridge:ARG:68>  (6) 
saltbridge:ARG:68    NaN
saltbridge:ARG:68     -1
Name: 4, dtype: object

>  <hydroph_interaction:ARG:68>  (6) 
hydroph_interaction:ARG:68    NaN
hydroph_interaction:ARG:68     -1
Name: 4, dtype: object

>  <pication:ARG:68>  (6) 
pication:ARG:68    NaN
pication:ARG:68     -1
Name: 4, dtype: object

>  <hydroph_interaction:TYR:72>  (6) 
hydroph_interaction:TYR:72    NaN
hydroph_interaction:TYR:72     -1
Name: 4, dtype: object

>  <hydroph_interaction:VAL:74>  (6) 
hydroph_interaction:VAL:74    NaN
hydroph_interaction:VAL:74     -1
Name: 4, dtype: object

>  <hydroph_interaction:PHE:76>  (6) 
hydroph_interaction:PHE:76    NaN
hydroph_interaction:PHE:76     -1
Name: 4, dtype: object

>  <hbond:SER:77>  (6) 
hbond:SER:77    NaN
hbond:SER:77     -1
Name: 4, dtype: object

>  <hbond:SER:80>  (6) 
hbond:SER:80    NaN
hbond:SER:80     -1
Name: 4, dtype: object

>  <hbond:LEU:81>  (6) 
hbond:LEU:81    NaN
hbond:LEU:81     -1
Name: 4, dtype: object

>  <halogenbond:LEU:81>  (6) 
halogenbond:LEU:81    NaN
halogenbond:LEU:81     -1
Name: 4, dtype: object

>  <hydroph_interaction:LEU:81>  (6) 
hydroph_interaction:LEU:81    NaN
hydroph_interaction:LEU:81     -1
Name: 4, dtype: object

>  <hydroph_interaction:ILE:82>  (6) 
hydroph_interaction:ILE:82    NaN
hydroph_interaction:ILE:82     -1
Name: 4, dtype: object

>  <halogenbond:ILE:82>  (6) 
halogenbond:ILE:82    NaN
halogenbond:ILE:82     -1
Name: 4, dtype: object

>  <hbond:ILE:82>  (6) 
hbond:ILE:82    NaN
hbond:ILE:82     -1
Name: 4, dtype: object

>  <hbond:PHE:83>  (6) 
hbond:PHE:83    NaN
hbond:PHE:83     -1
Name: 4, dtype: object

>  <hydroph_interaction:PHE:83>  (6) 
hydroph_interaction:PHE:83    NaN
hydroph_interaction:PHE:83     -1
Name: 4, dtype: object

>  <halogenbond:PHE:83>  (6) 
halogenbond:PHE:83    NaN
halogenbond:PHE:83     -1
Name: 4, dtype: object

>  <pistack:PHE:83>  (6) 
pistack:PHE:83    NaN
pistack:PHE:83     -1
Name: 4, dtype: object

>  <pication:PHE:83>  (6) 
pication:PHE:83    NaN
pication:PHE:83     -1
Name: 4, dtype: object

>  <hydroph_interaction:VAL:84>  (6) 
hydroph_interaction:VAL:84    0.0
hydroph_interaction:VAL:84      0
Name: 4, dtype: object

>  <halogenbond:VAL:84>  (6) 
halogenbond:VAL:84    NaN
halogenbond:VAL:84     -1
Name: 4, dtype: object

>  <hbond:VAL:84>  (6) 
hbond:VAL:84    NaN
hbond:VAL:84     -1
Name: 4, dtype: object

>  <hydroph_interaction:GLU:85>  (6) 
hydroph_interaction:GLU:85    0.0
hydroph_interaction:GLU:85      0
Name: 4, dtype: object

>  <hbond:GLU:85>  (6) 
hbond:GLU:85    NaN
hbond:GLU:85     -1
Name: 4, dtype: object

>  <halogenbond:GLU:85>  (6) 
halogenbond:GLU:85    NaN
halogenbond:GLU:85     -1
Name: 4, dtype: object

>  <saltbridge:GLU:85>  (6) 
saltbridge:GLU:85    NaN
saltbridge:GLU:85     -1
Name: 4, dtype: object

>  <halogenbond:ALA:86>  (6) 
halogenbond:ALA:86    NaN
halogenbond:ALA:86     -1
Name: 4, dtype: object

>  <hbond:ALA:86>  (6) 
hbond:ALA:86    0.0
hbond:ALA:86      0
Name: 4, dtype: object

>  <hydroph_interaction:ALA:86>  (6) 
hydroph_interaction:ALA:86    NaN
hydroph_interaction:ALA:86     -1
Name: 4, dtype: object

>  <hbond:SER:87>  (6) 
hbond:SER:87    1
hbond:SER:87    1
Name: 4, dtype: object

>  <halogenbond:SER:87>  (6) 
halogenbond:SER:87    NaN
halogenbond:SER:87     -1
Name: 4, dtype: object

>  <hbond:GLU:88>  (6) 
hbond:GLU:88    0.0
hbond:GLU:88      0
Name: 4, dtype: object

>  <hydroph_interaction:GLU:88>  (6) 
hydroph_interaction:GLU:88    0.0
hydroph_interaction:GLU:88      0
Name: 4, dtype: object

>  <halogenbond:GLU:88>  (6) 
halogenbond:GLU:88    NaN
halogenbond:GLU:88     -1
Name: 4, dtype: object

>  <saltbridge:GLU:88>  (6) 
saltbridge:GLU:88    NaN
saltbridge:GLU:88     -1
Name: 4, dtype: object

>  <hydroph_interaction:TYR:89>  (6) 
hydroph_interaction:TYR:89    1.0
hydroph_interaction:TYR:89      1
Name: 4, dtype: object

>  <pistack:TYR:89>  (6) 
pistack:TYR:89    NaN
pistack:TYR:89     -1
Name: 4, dtype: object

>  <hbond:TYR:89>  (6) 
hbond:TYR:89    NaN
hbond:TYR:89     -1
Name: 4, dtype: object

>  <halogenbond:TYR:89>  (6) 
halogenbond:TYR:89    NaN
halogenbond:TYR:89     -1
Name: 4, dtype: object

>  <hydroph_interaction:TYR:90>  (6) 
hydroph_interaction:TYR:90    0.0
hydroph_interaction:TYR:90      0
Name: 4, dtype: object

>  <hbond:TYR:90>  (6) 
hbond:TYR:90    0.0
hbond:TYR:90      0
Name: 4, dtype: object

>  <pistack:TYR:90>  (6) 
pistack:TYR:90    NaN
pistack:TYR:90     -1
Name: 4, dtype: object

>  <halogenbond:TYR:90>  (6) 
halogenbond:TYR:90    NaN
halogenbond:TYR:90     -1
Name: 4, dtype: object

>  <pication:TYR:90>  (6) 
pication:TYR:90    NaN
pication:TYR:90     -1
Name: 4, dtype: object

>  <hbond:PRO:91>  (6) 
hbond:PRO:91    NaN
hbond:PRO:91     -1
Name: 4, dtype: object

>  <hydroph_interaction:PRO:91>  (6) 
hydroph_interaction:PRO:91    NaN
hydroph_interaction:PRO:91     -1
Name: 4, dtype: object

>  <halogenbond:PRO:91>  (6) 
halogenbond:PRO:91    NaN
halogenbond:PRO:91     -1
Name: 4, dtype: object

>  <hbond:ALA:92>  (6) 
hbond:ALA:92    NaN
hbond:ALA:92     -1
Name: 4, dtype: object

>  <hydroph_interaction:ALA:92>  (6) 
hydroph_interaction:ALA:92    NaN
hydroph_interaction:ALA:92     -1
Name: 4, dtype: object

>  <saltbridge:ARG:93>  (6) 
saltbridge:ARG:93    NaN
saltbridge:ARG:93     -1
Name: 4, dtype: object

>  <hbond:ARG:93>  (6) 
hbond:ARG:93    NaN
hbond:ARG:93     -1
Name: 4, dtype: object

>  <hydroph_interaction:ARG:93>  (6) 
hydroph_interaction:ARG:93    NaN
hydroph_interaction:ARG:93     -1
Name: 4, dtype: object

>  <halogenbond:ARG:93>  (6) 
halogenbond:ARG:93    NaN
halogenbond:ARG:93     -1
Name: 4, dtype: object

>  <pication:ARG:93>  (6) 
pication:ARG:93    NaN
pication:ARG:93     -1
Name: 4, dtype: object

>  <hydroph_interaction:TYR:94>  (6) 
hydroph_interaction:TYR:94    NaN
hydroph_interaction:TYR:94     -1
Name: 4, dtype: object

>  <pistack:TYR:94>  (6) 
pistack:TYR:94    NaN
pistack:TYR:94     -1
Name: 4, dtype: object

>  <hbond:TYR:94>  (6) 
hbond:TYR:94    NaN
hbond:TYR:94     -1
Name: 4, dtype: object

>  <hbond:GLN:95>  (6) 
hbond:GLN:95    NaN
hbond:GLN:95     -1
Name: 4, dtype: object

>  <hydroph_interaction:GLN:95>  (6) 
hydroph_interaction:GLN:95    NaN
hydroph_interaction:GLN:95     -1
Name: 4, dtype: object

>  <halogenbond:GLN:95>  (6) 
halogenbond:GLN:95    0.0
halogenbond:GLN:95      0
Name: 4, dtype: object

>  <hbond:SER:96>  (6) 
hbond:SER:96    NaN
hbond:SER:96     -1
Name: 4, dtype: object

>  <halogenbond:HIS:97>  (6) 
halogenbond:HIS:97    NaN
halogenbond:HIS:97     -1
Name: 4, dtype: object

>  <hydroph_interaction:LEU:98>  (6) 
hydroph_interaction:LEU:98    NaN
hydroph_interaction:LEU:98     -1
Name: 4, dtype: object

>  <hbond:LEU:98>  (6) 
hbond:LEU:98    NaN
hbond:LEU:98     -1
Name: 4, dtype: object

>  <halogenbond:LEU:98>  (6) 
halogenbond:LEU:98    NaN
halogenbond:LEU:98     -1
Name: 4, dtype: object

>  <hbond:MET:99>  (6) 
hbond:MET:99    NaN
hbond:MET:99     -1
Name: 4, dtype: object

>  <hydroph_interaction:MET:99>  (6) 
hydroph_interaction:MET:99    NaN
hydroph_interaction:MET:99     -1
Name: 4, dtype: object

>  <halogenbond:MET:99>  (6) 
halogenbond:MET:99    NaN
halogenbond:MET:99     -1
Name: 4, dtype: object

>  <hydroph_interaction:LEU:100>  (6) 
hydroph_interaction:LEU:100    0.0
hydroph_interaction:LEU:100      0
Name: 4, dtype: object

>  <hbond:LEU:100>  (6) 
hbond:LEU:100    NaN
hbond:LEU:100     -1
Name: 4, dtype: object

>  <hbond:ALA:101>  (6) 
hbond:ALA:101    NaN
hbond:ALA:101     -1
Name: 4, dtype: object

>  <hydroph_interaction:ALA:101>  (6) 
hydroph_interaction:ALA:101    NaN
hydroph_interaction:ALA:101     -1
Name: 4, dtype: object

>  <hydroph_interaction:VAL:102>  (6) 
hydroph_interaction:VAL:102    NaN
hydroph_interaction:VAL:102     -1
Name: 4, dtype: object

>  <hbond:VAL:102>  (6) 
hbond:VAL:102    NaN
hbond:VAL:102     -1
Name: 4, dtype: object

>  <hbond:GLY:103>  (6) 
hbond:GLY:103    NaN
hbond:GLY:103     -1
Name: 4, dtype: object

>  <halogenbond:GLY:103>  (6) 
halogenbond:GLY:103    NaN
halogenbond:GLY:103     -1
Name: 4, dtype: object

>  <hbond:HIS:104>  (6) 
hbond:HIS:104    NaN
hbond:HIS:104     -1
Name: 4, dtype: object

>  <saltbridge:HIS:104>  (6) 
saltbridge:HIS:104    NaN
saltbridge:HIS:104     -1
Name: 4, dtype: object

>  <pication:HIS:104>  (6) 
pication:HIS:104    NaN
pication:HIS:104     -1
Name: 4, dtype: object

>  <halogenbond:HIS:104>  (6) 
halogenbond:HIS:104    NaN
halogenbond:HIS:104     -1
Name: 4, dtype: object

>  <hydroph_interaction:HIS:104>  (6) 
hydroph_interaction:HIS:104    NaN
hydroph_interaction:HIS:104     -1
Name: 4, dtype: object

>  <pistack:HIS:104>  (6) 
pistack:HIS:104    NaN
pistack:HIS:104     -1
Name: 4, dtype: object

>  <halogenbond:SER:105>  (6) 
halogenbond:SER:105    0.0
halogenbond:SER:105      0
Name: 4, dtype: object

>  <hbond:SER:105>  (6) 
hbond:SER:105    0.0
hbond:SER:105      0
Name: 4, dtype: object

>  <hbond:GLU:106>  (6) 
hbond:GLU:106    0.0
hbond:GLU:106      0
Name: 4, dtype: object

>  <hydroph_interaction:GLU:106>  (6) 
hydroph_interaction:GLU:106    0.0
hydroph_interaction:GLU:106      0
Name: 4, dtype: object

>  <saltbridge:GLU:106>  (6) 
saltbridge:GLU:106    NaN
saltbridge:GLU:106     -1
Name: 4, dtype: object

>  <halogenbond:GLU:106>  (6) 
halogenbond:GLU:106    NaN
halogenbond:GLU:106     -1
Name: 4, dtype: object

>  <hydroph_interaction:PRO:107>  (6) 
hydroph_interaction:PRO:107    0
hydroph_interaction:PRO:107    0
Name: 4, dtype: object

>  <hbond:PRO:107>  (6) 
hbond:PRO:107    0.0
hbond:PRO:107      0
Name: 4, dtype: object

>  <halogenbond:PRO:107>  (6) 
halogenbond:PRO:107    0.0
halogenbond:PRO:107      0
Name: 4, dtype: object

>  <hbond:GLY:108>  (6) 
hbond:GLY:108    NaN
hbond:GLY:108     -1
Name: 4, dtype: object

>  <halogenbond:GLY:108>  (6) 
halogenbond:GLY:108    NaN
halogenbond:GLY:108     -1
Name: 4, dtype: object

>  <hbond:ASP:109>  (6) 
hbond:ASP:109    0.0
hbond:ASP:109      0
Name: 4, dtype: object

>  <hydroph_interaction:ASP:109>  (6) 
hydroph_interaction:ASP:109    0.0
hydroph_interaction:ASP:109      0
Name: 4, dtype: object

>  <saltbridge:ASP:109>  (6) 
saltbridge:ASP:109    NaN
saltbridge:ASP:109     -1
Name: 4, dtype: object

>  <halogenbond:CYS:110>  (6) 
halogenbond:CYS:110    NaN
halogenbond:CYS:110     -1
Name: 4, dtype: object

>  <hbond:CYS:110>  (6) 
hbond:CYS:110    0.0
hbond:CYS:110      0
Name: 4, dtype: object

>  <hbond:GLY:111>  (6) 
hbond:GLY:111    NaN
hbond:GLY:111     -1
Name: 4, dtype: object

>  <hbond:GLY:112>  (6) 
hbond:GLY:112    NaN
hbond:GLY:112     -1
Name: 4, dtype: object

>  <hbond:ILE:113>  (6) 
hbond:ILE:113    NaN
hbond:ILE:113     -1
Name: 4, dtype: object

>  <hydroph_interaction:LEU:114>  (6) 
hydroph_interaction:LEU:114    NaN
hydroph_interaction:LEU:114     -1
Name: 4, dtype: object

>  <hbond:LEU:114>  (6) 
hbond:LEU:114    NaN
hbond:LEU:114     -1
Name: 4, dtype: object

>  <hydroph_interaction:ILE:123>  (6) 
hydroph_interaction:ILE:123    NaN
hydroph_interaction:ILE:123     -1
Name: 4, dtype: object

>  <hbond:ILE:123>  (6) 
hbond:ILE:123    NaN
hbond:ILE:123     -1
Name: 4, dtype: object

>  <hydroph_interaction:VAL:124>  (6) 
hydroph_interaction:VAL:124    0.0
hydroph_interaction:VAL:124      0
Name: 4, dtype: object

>  <hbond:VAL:124>  (6) 
hbond:VAL:124    NaN
hbond:VAL:124     -1
Name: 4, dtype: object

>  <halogenbond:VAL:124>  (6) 
halogenbond:VAL:124    NaN
halogenbond:VAL:124     -1
Name: 4, dtype: object

>  <hbond:SER:125>  (6) 
hbond:SER:125    2
hbond:SER:125    2
Name: 4, dtype: object

>  <halogenbond:SER:125>  (6) 
halogenbond:SER:125    NaN
halogenbond:SER:125     -1
Name: 4, dtype: object

>  <hydroph_interaction:THR:126>  (6) 
hydroph_interaction:THR:126    0.0
hydroph_interaction:THR:126      0
Name: 4, dtype: object

>  <hbond:THR:126>  (6) 
hbond:THR:126    0.0
hbond:THR:126      0
Name: 4, dtype: object

>  <halogenbond:THR:126>  (6) 
halogenbond:THR:126    NaN
halogenbond:THR:126     -1
Name: 4, dtype: object

>  <hbond:GLY:127>  (6) 
hbond:GLY:127    0
hbond:GLY:127    0
Name: 4, dtype: object

>  <halogenbond:GLY:127>  (6) 
halogenbond:GLY:127    0.0
halogenbond:GLY:127      0
Name: 4, dtype: object

>  <hydroph_interaction:GLY:127>  (6) 
hydroph_interaction:GLY:127    NaN
hydroph_interaction:GLY:127     -1
Name: 4, dtype: object

>  <hbond:GLY:128>  (6) 
hbond:GLY:128    0.0
hbond:GLY:128      0
Name: 4, dtype: object

>  <halogenbond:GLY:128>  (6) 
halogenbond:GLY:128    NaN
halogenbond:GLY:128     -1
Name: 4, dtype: object

>  <hydroph_interaction:GLY:128>  (6) 
hydroph_interaction:GLY:128    NaN
hydroph_interaction:GLY:128     -1
Name: 4, dtype: object

>  <hbond:ASN:129>  (6) 
hbond:ASN:129    NaN
hbond:ASN:129     -1
Name: 4, dtype: object

>  <hydroph_interaction:ASN:129>  (6) 
hydroph_interaction:ASN:129    0.0
hydroph_interaction:ASN:129      0
Name: 4, dtype: object

>  <halogenbond:ASN:129>  (6) 
halogenbond:ASN:129    NaN
halogenbond:ASN:129     -1
Name: 4, dtype: object

>  <hbond:GLY:130>  (6) 
hbond:GLY:130    0.0
hbond:GLY:130      0
Name: 4, dtype: object

>  <hbond:LEU:131>  (6) 
hbond:LEU:131    0.0
hbond:LEU:131      0
Name: 4, dtype: object

>  <hydroph_interaction:LEU:131>  (6) 
hydroph_interaction:LEU:131    0.0
hydroph_interaction:LEU:131      0
Name: 4, dtype: object

>  <halogenbond:LEU:131>  (6) 
halogenbond:LEU:131    NaN
halogenbond:LEU:131     -1
Name: 4, dtype: object

>  <hydroph_interaction:VAL:132>  (6) 
hydroph_interaction:VAL:132    0.0
hydroph_interaction:VAL:132      0
Name: 4, dtype: object

>  <hbond:VAL:132>  (6) 
hbond:VAL:132    NaN
hbond:VAL:132     -1
Name: 4, dtype: object

>  <hbond:GLY:133>  (6) 
hbond:GLY:133    NaN
hbond:GLY:133     -1
Name: 4, dtype: object

>  <halogenbond:GLY:133>  (6) 
halogenbond:GLY:133    NaN
halogenbond:GLY:133     -1
Name: 4, dtype: object

>  <hydroph_interaction:PHE:134>  (6) 
hydroph_interaction:PHE:134    0.0
hydroph_interaction:PHE:134      0
Name: 4, dtype: object

>  <hbond:PHE:134>  (6) 
hbond:PHE:134    NaN
hbond:PHE:134     -1
Name: 4, dtype: object

>  <pistack:PHE:134>  (6) 
pistack:PHE:134    NaN
pistack:PHE:134     -1
Name: 4, dtype: object

>  <pication:PHE:134>  (6) 
pication:PHE:134    NaN
pication:PHE:134     -1
Name: 4, dtype: object

>  <halogenbond:PHE:134>  (6) 
halogenbond:PHE:134    NaN
halogenbond:PHE:134     -1
Name: 4, dtype: object

>  <hydroph_interaction:ALA:135>  (6) 
hydroph_interaction:ALA:135    NaN
hydroph_interaction:ALA:135     -1
Name: 4, dtype: object

>  <hbond:ALA:135>  (6) 
hbond:ALA:135    NaN
hbond:ALA:135     -1
Name: 4, dtype: object

$$$$
Z2348971297
     RDKit          3D

 16 16  0  0  0  0  0  0  0  0999 V2000
   28.0669   13.0449    7.4665 C   0  0  0  0  0  0  0  0  0  0  0  0
   27.8781   14.5405    7.6155 C   0  0  0  0  0  0  0  0  0  0  0  0
   28.7486   15.1307    8.6295 N   0  0  0  0  0  0  0  0  0  0  0  0
   28.7327   16.5555    8.6632 C   0  0  0  0  0  0  0  0  0  0  0  0
   29.9787   14.6000    8.9481 C   0  0  0  0  0  0  0  0  0  0  0  0
   30.8375   15.2558    9.5417 O   0  0  0  0  0  0  0  0  0  0  0  0
   30.1657   13.3178    8.5360 N   0  0  0  0  0  0  0  0  0  0  0  0
   31.0000   13.0738    7.3834 C   0  0  0  0  0  0  0  0  0  0  0  0
   31.3469   11.7479    7.2451 C   0  0  0  0  0  0  0  0  0  0  0  0
   30.7138   10.8018    8.0152 C   0  0  0  0  0  0  0  0  0  0  0  0
   31.0542    9.4639    7.8976 C   0  0  0  0  0  0  0  0  0  0  0  0
   30.3989    8.5407    8.6919 C   0  0  0  0  0  0  0  0  0  0  0  0
   32.0402    9.0839    6.9943 C   0  0  0  0  0  0  0  0  0  0  0  0
   32.6896   10.0345    6.2028 C   0  0  0  0  0  0  0  0  0  0  0  0
   32.3380   11.3690    6.3324 C   0  0  0  0  0  0  0  0  0  0  0  0
   33.2426   12.6374    5.2397 Br  0  0  0  0  0  0  0  0  0  0  0  0
  1  2  1  0
  2  3  1  0
  3  4  1  0
  3  5  1  0
  5  6  2  0
  5  7  1  0
  7  8  1  0
  8  9  1  0
  9 10  2  0
 10 11  1  0
 11 12  1  0
 11 13  2  0
 13 14  1  0
 14 15  2  0
 15 16  1  0
 15  9  1  0
A    1
 C1 
A    2
 C2 
A    3
 N1 
A    4
 C3 
A    5
 C4 
A    6
 O1 
A    7
 N2 
A    8
 C5 
A    9
 C6 
A   10
 C7 
A   11
 C8 
A   12
 C9 
A   13
 C10
A   14
 C11
A   15
 C12
A   16
BR1 
M  END
>  <ref_pdb>  (7) 
Ax0310a

>  <ref_mols>  (7) 
Ax0416a,Ax0528a

>  <original SMILES>  (7) 
CCN(C)C(=O)NCc1cc(C)ccc1Br

>  <rationale>  (7) 
info halogenbond:G127+D39+A86+E85+E106+E88+T126+P107+Y64+C65+N129+F83+R93+L131+I82+G128+P91+N19+H21+V84+G133+Y90+Y89+H97+L81+F134+L98+R20+G103+S66+S67+S7+G108+R38+V124+M99+S36; hbond:S87+S125+T126+A86+E85+G103+G128+G130+L131+N129+H104+R68+V124+R93+P91+F83+S7+S66+G112+G133+V132+R20+Y89+S77+A135+Y63+A92+A101+M99+F134+L100+I82+Y64+S36+L98+V84+L81+Y94+S80+R38+S37+V102+G8+I123+G111+I113+L114+C65+L22+S96; hydroph_interaction:V124+L22+E106+E88+N129+N19+L40+I123+A135+I82+L100+L98+L131+F83+R93+V132+Y63+F134+H104+R20+A86+V74+P91+A101+F76+M99+L114+A92+Y94+R68+Y72+Y64+V18+V102+W28+G127+G128+L81; pication:H104+Y63+F134+Y90+R68+F83+R20; pistack:H21+Y89+H104+F134+Y63+F83+Y94; saltbridge:R93+H104+E106+D109+E85+E88+R68+R20; 

>  <intxn_cluster>  (7) 
-1

>  <intxn_cluster_rank>  (7) 
-1

>  <N_interactions>  (7) 
3

>  <∆∆G>  (7) 
-13.352054

>  <$/mg>  (7) 
0.0

>  <comRMSD>  (7) 
0.572462

>  <N_rotatable_bonds>  (7) 
6

>  <deep_P1_sidechain>  (7) 
nan

>  <farthest_distance_to_substrate>  (7) 
2.170442

>  <hbond:SER:7>  (7) 
hbond:SER:7    NaN
hbond:SER:7     -1
Name: 5, dtype: object

>  <halogenbond:SER:7>  (7) 
halogenbond:SER:7    NaN
halogenbond:SER:7     -1
Name: 5, dtype: object

>  <hbond:GLY:8>  (7) 
hbond:GLY:8    NaN
hbond:GLY:8     -1
Name: 5, dtype: object

>  <hydroph_interaction:VAL:18>  (7) 
hydroph_interaction:VAL:18    NaN
hydroph_interaction:VAL:18     -1
Name: 5, dtype: object

>  <hbond:ASN:19>  (7) 
hbond:ASN:19    0.0
hbond:ASN:19      0
Name: 5, dtype: object

>  <hydroph_interaction:ASN:19>  (7) 
hydroph_interaction:ASN:19    NaN
hydroph_interaction:ASN:19     -1
Name: 5, dtype: object

>  <halogenbond:ASN:19>  (7) 
halogenbond:ASN:19    NaN
halogenbond:ASN:19     -1
Name: 5, dtype: object

>  <hbond:ARG:20>  (7) 
hbond:ARG:20    NaN
hbond:ARG:20     -1
Name: 5, dtype: object

>  <hydroph_interaction:ARG:20>  (7) 
hydroph_interaction:ARG:20    NaN
hydroph_interaction:ARG:20     -1
Name: 5, dtype: object

>  <saltbridge:ARG:20>  (7) 
saltbridge:ARG:20    NaN
saltbridge:ARG:20     -1
Name: 5, dtype: object

>  <halogenbond:ARG:20>  (7) 
halogenbond:ARG:20    NaN
halogenbond:ARG:20     -1
Name: 5, dtype: object

>  <pication:ARG:20>  (7) 
pication:ARG:20    NaN
pication:ARG:20     -1
Name: 5, dtype: object

>  <hbond:HIS:21>  (7) 
hbond:HIS:21    0.0
hbond:HIS:21      0
Name: 5, dtype: object

>  <hydroph_interaction:HIS:21>  (7) 
hydroph_interaction:HIS:21    0.0
hydroph_interaction:HIS:21      0
Name: 5, dtype: object

>  <pistack:HIS:21>  (7) 
pistack:HIS:21    NaN
pistack:HIS:21     -1
Name: 5, dtype: object

>  <pication:HIS:21>  (7) 
pication:HIS:21    0.0
pication:HIS:21      0
Name: 5, dtype: object

>  <saltbridge:HIS:21>  (7) 
saltbridge:HIS:21    0.0
saltbridge:HIS:21      0
Name: 5, dtype: object

>  <halogenbond:HIS:21>  (7) 
halogenbond:HIS:21    NaN
halogenbond:HIS:21     -1
Name: 5, dtype: object

>  <hydroph_interaction:LEU:22>  (7) 
hydroph_interaction:LEU:22    NaN
hydroph_interaction:LEU:22     -1
Name: 5, dtype: object

>  <hbond:LEU:22>  (7) 
hbond:LEU:22    NaN
hbond:LEU:22     -1
Name: 5, dtype: object

>  <hydroph_interaction:TRP:28>  (7) 
hydroph_interaction:TRP:28    NaN
hydroph_interaction:TRP:28     -1
Name: 5, dtype: object

>  <hbond:SER:36>  (7) 
hbond:SER:36    NaN
hbond:SER:36     -1
Name: 5, dtype: object

>  <halogenbond:SER:36>  (7) 
halogenbond:SER:36    NaN
halogenbond:SER:36     -1
Name: 5, dtype: object

>  <hbond:SER:37>  (7) 
hbond:SER:37    NaN
hbond:SER:37     -1
Name: 5, dtype: object

>  <hbond:ARG:38>  (7) 
hbond:ARG:38    NaN
hbond:ARG:38     -1
Name: 5, dtype: object

>  <halogenbond:ARG:38>  (7) 
halogenbond:ARG:38    NaN
halogenbond:ARG:38     -1
Name: 5, dtype: object

>  <saltbridge:ASP:39>  (7) 
saltbridge:ASP:39    0.0
saltbridge:ASP:39      0
Name: 5, dtype: object

>  <halogenbond:ASP:39>  (7) 
halogenbond:ASP:39    NaN
halogenbond:ASP:39     -1
Name: 5, dtype: object

>  <hbond:ASP:39>  (7) 
hbond:ASP:39    0.0
hbond:ASP:39      0
Name: 5, dtype: object

>  <hydroph_interaction:ASP:39>  (7) 
hydroph_interaction:ASP:39    0.0
hydroph_interaction:ASP:39      0
Name: 5, dtype: object

>  <hydroph_interaction:LEU:40>  (7) 
hydroph_interaction:LEU:40    NaN
hydroph_interaction:LEU:40     -1
Name: 5, dtype: object

>  <hydroph_interaction:TYR:63>  (7) 
hydroph_interaction:TYR:63    NaN
hydroph_interaction:TYR:63     -1
Name: 5, dtype: object

>  <hbond:TYR:63>  (7) 
hbond:TYR:63    NaN
hbond:TYR:63     -1
Name: 5, dtype: object

>  <pistack:TYR:63>  (7) 
pistack:TYR:63    NaN
pistack:TYR:63     -1
Name: 5, dtype: object

>  <pication:TYR:63>  (7) 
pication:TYR:63    NaN
pication:TYR:63     -1
Name: 5, dtype: object

>  <halogenbond:TYR:64>  (7) 
halogenbond:TYR:64    NaN
halogenbond:TYR:64     -1
Name: 5, dtype: object

>  <hbond:TYR:64>  (7) 
hbond:TYR:64    NaN
hbond:TYR:64     -1
Name: 5, dtype: object

>  <hydroph_interaction:TYR:64>  (7) 
hydroph_interaction:TYR:64    NaN
hydroph_interaction:TYR:64     -1
Name: 5, dtype: object

>  <halogenbond:CYS:65>  (7) 
halogenbond:CYS:65    NaN
halogenbond:CYS:65     -1
Name: 5, dtype: object

>  <hbond:CYS:65>  (7) 
hbond:CYS:65    NaN
hbond:CYS:65     -1
Name: 5, dtype: object

>  <hbond:SER:66>  (7) 
hbond:SER:66    NaN
hbond:SER:66     -1
Name: 5, dtype: object

>  <halogenbond:SER:66>  (7) 
halogenbond:SER:66    NaN
halogenbond:SER:66     -1
Name: 5, dtype: object

>  <hbond:SER:67>  (7) 
hbond:SER:67    0.0
hbond:SER:67      0
Name: 5, dtype: object

>  <halogenbond:SER:67>  (7) 
halogenbond:SER:67    NaN
halogenbond:SER:67     -1
Name: 5, dtype: object

>  <hbond:ARG:68>  (7) 
hbond:ARG:68    NaN
hbond:ARG:68     -1
Name: 5, dtype: object

>  <saltbridge:ARG:68>  (7) 
saltbridge:ARG:68    NaN
saltbridge:ARG:68     -1
Name: 5, dtype: object

>  <hydroph_interaction:ARG:68>  (7) 
hydroph_interaction:ARG:68    NaN
hydroph_interaction:ARG:68     -1
Name: 5, dtype: object

>  <pication:ARG:68>  (7) 
pication:ARG:68    NaN
pication:ARG:68     -1
Name: 5, dtype: object

>  <hydroph_interaction:TYR:72>  (7) 
hydroph_interaction:TYR:72    NaN
hydroph_interaction:TYR:72     -1
Name: 5, dtype: object

>  <hydroph_interaction:VAL:74>  (7) 
hydroph_interaction:VAL:74    NaN
hydroph_interaction:VAL:74     -1
Name: 5, dtype: object

>  <hydroph_interaction:PHE:76>  (7) 
hydroph_interaction:PHE:76    NaN
hydroph_interaction:PHE:76     -1
Name: 5, dtype: object

>  <hbond:SER:77>  (7) 
hbond:SER:77    NaN
hbond:SER:77     -1
Name: 5, dtype: object

>  <hbond:SER:80>  (7) 
hbond:SER:80    NaN
hbond:SER:80     -1
Name: 5, dtype: object

>  <hbond:LEU:81>  (7) 
hbond:LEU:81    NaN
hbond:LEU:81     -1
Name: 5, dtype: object

>  <halogenbond:LEU:81>  (7) 
halogenbond:LEU:81    NaN
halogenbond:LEU:81     -1
Name: 5, dtype: object

>  <hydroph_interaction:LEU:81>  (7) 
hydroph_interaction:LEU:81    NaN
hydroph_interaction:LEU:81     -1
Name: 5, dtype: object

>  <hydroph_interaction:ILE:82>  (7) 
hydroph_interaction:ILE:82    NaN
hydroph_interaction:ILE:82     -1
Name: 5, dtype: object

>  <halogenbond:ILE:82>  (7) 
halogenbond:ILE:82    NaN
halogenbond:ILE:82     -1
Name: 5, dtype: object

>  <hbond:ILE:82>  (7) 
hbond:ILE:82    NaN
hbond:ILE:82     -1
Name: 5, dtype: object

>  <hbond:PHE:83>  (7) 
hbond:PHE:83    NaN
hbond:PHE:83     -1
Name: 5, dtype: object

>  <hydroph_interaction:PHE:83>  (7) 
hydroph_interaction:PHE:83    NaN
hydroph_interaction:PHE:83     -1
Name: 5, dtype: object

>  <halogenbond:PHE:83>  (7) 
halogenbond:PHE:83    NaN
halogenbond:PHE:83     -1
Name: 5, dtype: object

>  <pistack:PHE:83>  (7) 
pistack:PHE:83    NaN
pistack:PHE:83     -1
Name: 5, dtype: object

>  <pication:PHE:83>  (7) 
pication:PHE:83    NaN
pication:PHE:83     -1
Name: 5, dtype: object

>  <hydroph_interaction:VAL:84>  (7) 
hydroph_interaction:VAL:84    0.0
hydroph_interaction:VAL:84      0
Name: 5, dtype: object

>  <halogenbond:VAL:84>  (7) 
halogenbond:VAL:84    NaN
halogenbond:VAL:84     -1
Name: 5, dtype: object

>  <hbond:VAL:84>  (7) 
hbond:VAL:84    NaN
hbond:VAL:84     -1
Name: 5, dtype: object

>  <hydroph_interaction:GLU:85>  (7) 
hydroph_interaction:GLU:85    0.0
hydroph_interaction:GLU:85      0
Name: 5, dtype: object

>  <hbond:GLU:85>  (7) 
hbond:GLU:85    NaN
hbond:GLU:85     -1
Name: 5, dtype: object

>  <halogenbond:GLU:85>  (7) 
halogenbond:GLU:85    NaN
halogenbond:GLU:85     -1
Name: 5, dtype: object

>  <saltbridge:GLU:85>  (7) 
saltbridge:GLU:85    NaN
saltbridge:GLU:85     -1
Name: 5, dtype: object

>  <halogenbond:ALA:86>  (7) 
halogenbond:ALA:86    NaN
halogenbond:ALA:86     -1
Name: 5, dtype: object

>  <hbond:ALA:86>  (7) 
hbond:ALA:86    NaN
hbond:ALA:86     -1
Name: 5, dtype: object

>  <hydroph_interaction:ALA:86>  (7) 
hydroph_interaction:ALA:86    NaN
hydroph_interaction:ALA:86     -1
Name: 5, dtype: object

>  <hbond:SER:87>  (7) 
hbond:SER:87    1
hbond:SER:87    1
Name: 5, dtype: object

>  <halogenbond:SER:87>  (7) 
halogenbond:SER:87    0.0
halogenbond:SER:87      0
Name: 5, dtype: object

>  <hbond:GLU:88>  (7) 
hbond:GLU:88    0.0
hbond:GLU:88      0
Name: 5, dtype: object

>  <hydroph_interaction:GLU:88>  (7) 
hydroph_interaction:GLU:88    NaN
hydroph_interaction:GLU:88     -1
Name: 5, dtype: object

>  <halogenbond:GLU:88>  (7) 
halogenbond:GLU:88    NaN
halogenbond:GLU:88     -1
Name: 5, dtype: object

>  <saltbridge:GLU:88>  (7) 
saltbridge:GLU:88    NaN
saltbridge:GLU:88     -1
Name: 5, dtype: object

>  <hydroph_interaction:TYR:89>  (7) 
hydroph_interaction:TYR:89    0.0
hydroph_interaction:TYR:89      0
Name: 5, dtype: object

>  <pistack:TYR:89>  (7) 
pistack:TYR:89    NaN
pistack:TYR:89     -1
Name: 5, dtype: object

>  <hbond:TYR:89>  (7) 
hbond:TYR:89    NaN
hbond:TYR:89     -1
Name: 5, dtype: object

>  <halogenbond:TYR:89>  (7) 
halogenbond:TYR:89    NaN
halogenbond:TYR:89     -1
Name: 5, dtype: object

>  <hydroph_interaction:TYR:90>  (7) 
hydroph_interaction:TYR:90    0.0
hydroph_interaction:TYR:90      0
Name: 5, dtype: object

>  <hbond:TYR:90>  (7) 
hbond:TYR:90    0.0
hbond:TYR:90      0
Name: 5, dtype: object

>  <pistack:TYR:90>  (7) 
pistack:TYR:90    0.0
pistack:TYR:90      0
Name: 5, dtype: object

>  <halogenbond:TYR:90>  (7) 
halogenbond:TYR:90    NaN
halogenbond:TYR:90     -1
Name: 5, dtype: object

>  <pication:TYR:90>  (7) 
pication:TYR:90    NaN
pication:TYR:90     -1
Name: 5, dtype: object

>  <hbond:PRO:91>  (7) 
hbond:PRO:91    NaN
hbond:PRO:91     -1
Name: 5, dtype: object

>  <hydroph_interaction:PRO:91>  (7) 
hydroph_interaction:PRO:91    NaN
hydroph_interaction:PRO:91     -1
Name: 5, dtype: object

>  <halogenbond:PRO:91>  (7) 
halogenbond:PRO:91    NaN
halogenbond:PRO:91     -1
Name: 5, dtype: object

>  <hbond:ALA:92>  (7) 
hbond:ALA:92    NaN
hbond:ALA:92     -1
Name: 5, dtype: object

>  <hydroph_interaction:ALA:92>  (7) 
hydroph_interaction:ALA:92    NaN
hydroph_interaction:ALA:92     -1
Name: 5, dtype: object

>  <saltbridge:ARG:93>  (7) 
saltbridge:ARG:93    NaN
saltbridge:ARG:93     -1
Name: 5, dtype: object

>  <hbond:ARG:93>  (7) 
hbond:ARG:93    NaN
hbond:ARG:93     -1
Name: 5, dtype: object

>  <hydroph_interaction:ARG:93>  (7) 
hydroph_interaction:ARG:93    NaN
hydroph_interaction:ARG:93     -1
Name: 5, dtype: object

>  <halogenbond:ARG:93>  (7) 
halogenbond:ARG:93    NaN
halogenbond:ARG:93     -1
Name: 5, dtype: object

>  <pication:ARG:93>  (7) 
pication:ARG:93    0.0
pication:ARG:93      0
Name: 5, dtype: object

>  <hydroph_interaction:TYR:94>  (7) 
hydroph_interaction:TYR:94    NaN
hydroph_interaction:TYR:94     -1
Name: 5, dtype: object

>  <pistack:TYR:94>  (7) 
pistack:TYR:94    NaN
pistack:TYR:94     -1
Name: 5, dtype: object

>  <hbond:TYR:94>  (7) 
hbond:TYR:94    NaN
hbond:TYR:94     -1
Name: 5, dtype: object

>  <hbond:GLN:95>  (7) 
hbond:GLN:95    0.0
hbond:GLN:95      0
Name: 5, dtype: object

>  <hydroph_interaction:GLN:95>  (7) 
hydroph_interaction:GLN:95    0.0
hydroph_interaction:GLN:95      0
Name: 5, dtype: object

>  <halogenbond:GLN:95>  (7) 
halogenbond:GLN:95    0.0
halogenbond:GLN:95      0
Name: 5, dtype: object

>  <hbond:SER:96>  (7) 
hbond:SER:96    NaN
hbond:SER:96     -1
Name: 5, dtype: object

>  <halogenbond:HIS:97>  (7) 
halogenbond:HIS:97    NaN
halogenbond:HIS:97     -1
Name: 5, dtype: object

>  <hydroph_interaction:LEU:98>  (7) 
hydroph_interaction:LEU:98    NaN
hydroph_interaction:LEU:98     -1
Name: 5, dtype: object

>  <hbond:LEU:98>  (7) 
hbond:LEU:98    NaN
hbond:LEU:98     -1
Name: 5, dtype: object

>  <halogenbond:LEU:98>  (7) 
halogenbond:LEU:98    NaN
halogenbond:LEU:98     -1
Name: 5, dtype: object

>  <hbond:MET:99>  (7) 
hbond:MET:99    NaN
hbond:MET:99     -1
Name: 5, dtype: object

>  <hydroph_interaction:MET:99>  (7) 
hydroph_interaction:MET:99    NaN
hydroph_interaction:MET:99     -1
Name: 5, dtype: object

>  <halogenbond:MET:99>  (7) 
halogenbond:MET:99    NaN
halogenbond:MET:99     -1
Name: 5, dtype: object

>  <hydroph_interaction:LEU:100>  (7) 
hydroph_interaction:LEU:100    NaN
hydroph_interaction:LEU:100     -1
Name: 5, dtype: object

>  <hbond:LEU:100>  (7) 
hbond:LEU:100    NaN
hbond:LEU:100     -1
Name: 5, dtype: object

>  <hbond:ALA:101>  (7) 
hbond:ALA:101    NaN
hbond:ALA:101     -1
Name: 5, dtype: object

>  <hydroph_interaction:ALA:101>  (7) 
hydroph_interaction:ALA:101    NaN
hydroph_interaction:ALA:101     -1
Name: 5, dtype: object

>  <hydroph_interaction:VAL:102>  (7) 
hydroph_interaction:VAL:102    NaN
hydroph_interaction:VAL:102     -1
Name: 5, dtype: object

>  <hbond:VAL:102>  (7) 
hbond:VAL:102    NaN
hbond:VAL:102     -1
Name: 5, dtype: object

>  <hbond:GLY:103>  (7) 
hbond:GLY:103    NaN
hbond:GLY:103     -1
Name: 5, dtype: object

>  <halogenbond:GLY:103>  (7) 
halogenbond:GLY:103    NaN
halogenbond:GLY:103     -1
Name: 5, dtype: object

>  <hbond:HIS:104>  (7) 
hbond:HIS:104    NaN
hbond:HIS:104     -1
Name: 5, dtype: object

>  <saltbridge:HIS:104>  (7) 
saltbridge:HIS:104    NaN
saltbridge:HIS:104     -1
Name: 5, dtype: object

>  <pication:HIS:104>  (7) 
pication:HIS:104    NaN
pication:HIS:104     -1
Name: 5, dtype: object

>  <halogenbond:HIS:104>  (7) 
halogenbond:HIS:104    0.0
halogenbond:HIS:104      0
Name: 5, dtype: object

>  <hydroph_interaction:HIS:104>  (7) 
hydroph_interaction:HIS:104    NaN
hydroph_interaction:HIS:104     -1
Name: 5, dtype: object

>  <pistack:HIS:104>  (7) 
pistack:HIS:104    NaN
pistack:HIS:104     -1
Name: 5, dtype: object

>  <halogenbond:SER:105>  (7) 
halogenbond:SER:105    0.0
halogenbond:SER:105      0
Name: 5, dtype: object

>  <hbond:SER:105>  (7) 
hbond:SER:105    0.0
hbond:SER:105      0
Name: 5, dtype: object

>  <hbond:GLU:106>  (7) 
hbond:GLU:106    0.0
hbond:GLU:106      0
Name: 5, dtype: object

>  <hydroph_interaction:GLU:106>  (7) 
hydroph_interaction:GLU:106    NaN
hydroph_interaction:GLU:106     -1
Name: 5, dtype: object

>  <saltbridge:GLU:106>  (7) 
saltbridge:GLU:106    NaN
saltbridge:GLU:106     -1
Name: 5, dtype: object

>  <halogenbond:GLU:106>  (7) 
halogenbond:GLU:106    NaN
halogenbond:GLU:106     -1
Name: 5, dtype: object

>  <hydroph_interaction:PRO:107>  (7) 
hydroph_interaction:PRO:107    0
hydroph_interaction:PRO:107    0
Name: 5, dtype: object

>  <hbond:PRO:107>  (7) 
hbond:PRO:107    0.0
hbond:PRO:107      0
Name: 5, dtype: object

>  <halogenbond:PRO:107>  (7) 
halogenbond:PRO:107    NaN
halogenbond:PRO:107     -1
Name: 5, dtype: object

>  <hbond:GLY:108>  (7) 
hbond:GLY:108    0.0
hbond:GLY:108      0
Name: 5, dtype: object

>  <halogenbond:GLY:108>  (7) 
halogenbond:GLY:108    NaN
halogenbond:GLY:108     -1
Name: 5, dtype: object

>  <hbond:ASP:109>  (7) 
hbond:ASP:109    0.0
hbond:ASP:109      0
Name: 5, dtype: object

>  <hydroph_interaction:ASP:109>  (7) 
hydroph_interaction:ASP:109    0.0
hydroph_interaction:ASP:109      0
Name: 5, dtype: object

>  <saltbridge:ASP:109>  (7) 
saltbridge:ASP:109    NaN
saltbridge:ASP:109     -1
Name: 5, dtype: object

>  <halogenbond:CYS:110>  (7) 
halogenbond:CYS:110    0.0
halogenbond:CYS:110      0
Name: 5, dtype: object

>  <hbond:CYS:110>  (7) 
hbond:CYS:110    0.0
hbond:CYS:110      0
Name: 5, dtype: object

>  <hbond:GLY:111>  (7) 
hbond:GLY:111    NaN
hbond:GLY:111     -1
Name: 5, dtype: object

>  <hbond:GLY:112>  (7) 
hbond:GLY:112    NaN
hbond:GLY:112     -1
Name: 5, dtype: object

>  <hbond:ILE:113>  (7) 
hbond:ILE:113    NaN
hbond:ILE:113     -1
Name: 5, dtype: object

>  <hydroph_interaction:LEU:114>  (7) 
hydroph_interaction:LEU:114    NaN
hydroph_interaction:LEU:114     -1
Name: 5, dtype: object

>  <hbond:LEU:114>  (7) 
hbond:LEU:114    NaN
hbond:LEU:114     -1
Name: 5, dtype: object

>  <hydroph_interaction:ILE:123>  (7) 
hydroph_interaction:ILE:123    NaN
hydroph_interaction:ILE:123     -1
Name: 5, dtype: object

>  <hbond:ILE:123>  (7) 
hbond:ILE:123    NaN
hbond:ILE:123     -1
Name: 5, dtype: object

>  <hydroph_interaction:VAL:124>  (7) 
hydroph_interaction:VAL:124    1.0
hydroph_interaction:VAL:124      1
Name: 5, dtype: object

>  <hbond:VAL:124>  (7) 
hbond:VAL:124    NaN
hbond:VAL:124     -1
Name: 5, dtype: object

>  <halogenbond:VAL:124>  (7) 
halogenbond:VAL:124    NaN
halogenbond:VAL:124     -1
Name: 5, dtype: object

>  <hbond:SER:125>  (7) 
hbond:SER:125    1
hbond:SER:125    1
Name: 5, dtype: object

>  <halogenbond:SER:125>  (7) 
halogenbond:SER:125    0.0
halogenbond:SER:125      0
Name: 5, dtype: object

>  <hydroph_interaction:THR:126>  (7) 
hydroph_interaction:THR:126    0.0
hydroph_interaction:THR:126      0
Name: 5, dtype: object

>  <hbond:THR:126>  (7) 
hbond:THR:126    NaN
hbond:THR:126     -1
Name: 5, dtype: object

>  <halogenbond:THR:126>  (7) 
halogenbond:THR:126    NaN
halogenbond:THR:126     -1
Name: 5, dtype: object

>  <hbond:GLY:127>  (7) 
hbond:GLY:127    0
hbond:GLY:127    0
Name: 5, dtype: object

>  <halogenbond:GLY:127>  (7) 
halogenbond:GLY:127    NaN
halogenbond:GLY:127     -1
Name: 5, dtype: object

>  <hydroph_interaction:GLY:127>  (7) 
hydroph_interaction:GLY:127    NaN
hydroph_interaction:GLY:127     -1
Name: 5, dtype: object

>  <hbond:GLY:128>  (7) 
hbond:GLY:128    NaN
hbond:GLY:128     -1
Name: 5, dtype: object

>  <halogenbond:GLY:128>  (7) 
halogenbond:GLY:128    NaN
halogenbond:GLY:128     -1
Name: 5, dtype: object

>  <hydroph_interaction:GLY:128>  (7) 
hydroph_interaction:GLY:128    NaN
hydroph_interaction:GLY:128     -1
Name: 5, dtype: object

>  <hbond:ASN:129>  (7) 
hbond:ASN:129    NaN
hbond:ASN:129     -1
Name: 5, dtype: object

>  <hydroph_interaction:ASN:129>  (7) 
hydroph_interaction:ASN:129    NaN
hydroph_interaction:ASN:129     -1
Name: 5, dtype: object

>  <halogenbond:ASN:129>  (7) 
halogenbond:ASN:129    NaN
halogenbond:ASN:129     -1
Name: 5, dtype: object

>  <hbond:GLY:130>  (7) 
hbond:GLY:130    NaN
hbond:GLY:130     -1
Name: 5, dtype: object

>  <hbond:LEU:131>  (7) 
hbond:LEU:131    NaN
hbond:LEU:131     -1
Name: 5, dtype: object

>  <hydroph_interaction:LEU:131>  (7) 
hydroph_interaction:LEU:131    NaN
hydroph_interaction:LEU:131     -1
Name: 5, dtype: object

>  <halogenbond:LEU:131>  (7) 
halogenbond:LEU:131    NaN
halogenbond:LEU:131     -1
Name: 5, dtype: object

>  <hydroph_interaction:VAL:132>  (7) 
hydroph_interaction:VAL:132    NaN
hydroph_interaction:VAL:132     -1
Name: 5, dtype: object

>  <hbond:VAL:132>  (7) 
hbond:VAL:132    NaN
hbond:VAL:132     -1
Name: 5, dtype: object

>  <hbond:GLY:133>  (7) 
hbond:GLY:133    NaN
hbond:GLY:133     -1
Name: 5, dtype: object

>  <halogenbond:GLY:133>  (7) 
halogenbond:GLY:133    NaN
halogenbond:GLY:133     -1
Name: 5, dtype: object

>  <hydroph_interaction:PHE:134>  (7) 
hydroph_interaction:PHE:134    NaN
hydroph_interaction:PHE:134     -1
Name: 5, dtype: object

>  <hbond:PHE:134>  (7) 
hbond:PHE:134    NaN
hbond:PHE:134     -1
Name: 5, dtype: object

>  <pistack:PHE:134>  (7) 
pistack:PHE:134    NaN
pistack:PHE:134     -1
Name: 5, dtype: object

>  <pication:PHE:134>  (7) 
pication:PHE:134    NaN
pication:PHE:134     -1
Name: 5, dtype: object

>  <halogenbond:PHE:134>  (7) 
halogenbond:PHE:134    NaN
halogenbond:PHE:134     -1
Name: 5, dtype: object

>  <hydroph_interaction:ALA:135>  (7) 
hydroph_interaction:ALA:135    NaN
hydroph_interaction:ALA:135     -1
Name: 5, dtype: object

>  <hbond:ALA:135>  (7) 
hbond:ALA:135    NaN
hbond:ALA:135     -1
Name: 5, dtype: object

$$$$
Z4656766694
     RDKit          3D

 16 17  0  0  0  0  0  0  0  0999 V2000
   30.3683    8.5294    8.7636 C   0  0  0  0  0  0  0  0  0  0  0  0
   31.0803    9.5499    7.9091 C   0  0  0  0  0  0  0  0  0  0  0  0
   32.1232    9.0213    6.9196 C   0  0  0  0  0  0  0  0  0  0  0  0
   32.8236   10.0795    6.0731 C   0  0  0  0  0  0  0  0  0  0  0  0
   32.4059   11.4763    6.3303 C   0  0  0  0  0  0  0  0  0  0  0  0
   33.3736   12.9385    5.1615 I   0  0  0  0  0  0  0  0  0  0  0  0
   31.4422   11.8673    7.2680 C   0  0  0  0  0  0  0  0  0  0  0  0
   31.1465   13.2001    7.4302 N   0  0  0  0  0  0  0  0  0  0  0  0
   29.8009   13.7292    7.3102 C   0  0  1  0  0  0  0  0  0  0  0  0
   28.6681   12.8548    7.6223 C   0  0  0  0  0  0  0  0  0  0  0  0
   27.6638   13.8680    8.0862 C   0  0  0  0  0  0  0  0  0  0  0  0
   28.2651   15.1092    8.3793 N   0  0  0  0  0  0  0  0  0  0  0  0
   27.7016   15.9467    9.3587 C   0  0  0  0  0  0  0  0  0  0  0  0
   29.5931   14.7806    8.4212 C   0  0  0  0  0  0  0  0  0  0  0  0
   30.4508   15.2211    9.1855 O   0  0  0  0  0  0  0  0  0  0  0  0
   30.8004   10.9003    8.0291 C   0  0  0  0  0  0  0  0  0  0  0  0
  1  2  1  0
  2  3  2  0
  3  4  1  0
  4  5  2  0
  5  6  1  0
  5  7  1  0
  7  8  1  0
  9  8  1  1
  9 10  1  0
 10 11  1  0
 11 12  1  0
 12 13  1  0
 12 14  1  0
 14 15  2  0
  7 16  2  0
 16  2  1  0
 14  9  1  0
A    1
 C1 
A    2
 C2 
A    3
 C3 
A    4
 C4 
A    5
 C5 
A    6
 I1 
A    7
 C6 
A    8
 N1 
A    9
 C7 
A   10
 C8 
A   11
 C9 
A   12
 N2 
A   13
 C10
A   14
 C11
A   15
 O1 
A   16
 C12
M  END
>  <ref_pdb>  (8) 
Ax0310a

>  <ref_mols>  (8) 
Ax0416a,Ax0528a

>  <original SMILES>  (8) 
Cc1ccc(I)c(NC2CCN(C)C2=O)c1

>  <rationale>  (8) 
info halogenbond:C110+G127+A86+E85+Q95+E106+E88+T126+H104+Y64+C65+S87+N129+F83+R93+L131+I82+G128+P91+N19+H21+V84+G133+Y90+Y89+H97+L81+F134+L98+R20+G103+S66+S67+S7+G108+R38+V124+M99+S36; hbond:S87+Q95+D39+G108+G103+G128+G130+L131+N129+N19+H104+R68+V124+R93+P91+F83+S7+S66+G112+G133+V132+R20+Y89+S77+A135+Y63+A92+A101+M99+F134+L100+I82+Y64+S36+L98+V84+L81+Y94+S80+R38+S37+V102+G8+I123+G111+I113+L114+C65+L22+S96; hydroph_interaction:V124+L22+E106+N129+N19+L40+I123+A135+I82+L100+L98+L131+F83+R93+F134+H104+A86+V74+P91+A101+F76+M99+L114+A92+Y94+R68+Y72+Y64+V18+V102+W28+G127+G128+L81; pication:H104+Y63+F134+Y90+R68+F83+R20; pistack:Y89+H104+F134+Y63+F83+Y94; saltbridge:R93+H104+E106+D109+E85+E88+R68+R20; 

>  <intxn_cluster>  (8) 
-1

>  <intxn_cluster_rank>  (8) 
-1

>  <N_interactions>  (8) 
3

>  <∆∆G>  (8) 
-11.058258

>  <$/mg>  (8) 
0.0

>  <comRMSD>  (8) 
0.781592

>  <N_rotatable_bonds>  (8) 
4

>  <deep_P1_sidechain>  (8) 
nan

>  <farthest_distance_to_substrate>  (8) 
2.264638

>  <hbond:SER:7>  (8) 
hbond:SER:7    NaN
hbond:SER:7     -1
Name: 6, dtype: object

>  <halogenbond:SER:7>  (8) 
halogenbond:SER:7    NaN
halogenbond:SER:7     -1
Name: 6, dtype: object

>  <hbond:GLY:8>  (8) 
hbond:GLY:8    NaN
hbond:GLY:8     -1
Name: 6, dtype: object

>  <hydroph_interaction:VAL:18>  (8) 
hydroph_interaction:VAL:18    NaN
hydroph_interaction:VAL:18     -1
Name: 6, dtype: object

>  <hbond:ASN:19>  (8) 
hbond:ASN:19    NaN
hbond:ASN:19     -1
Name: 6, dtype: object

>  <hydroph_interaction:ASN:19>  (8) 
hydroph_interaction:ASN:19    NaN
hydroph_interaction:ASN:19     -1
Name: 6, dtype: object

>  <halogenbond:ASN:19>  (8) 
halogenbond:ASN:19    NaN
halogenbond:ASN:19     -1
Name: 6, dtype: object

>  <hbond:ARG:20>  (8) 
hbond:ARG:20    NaN
hbond:ARG:20     -1
Name: 6, dtype: object

>  <hydroph_interaction:ARG:20>  (8) 
hydroph_interaction:ARG:20    0.0
hydroph_interaction:ARG:20      0
Name: 6, dtype: object

>  <saltbridge:ARG:20>  (8) 
saltbridge:ARG:20    NaN
saltbridge:ARG:20     -1
Name: 6, dtype: object

>  <halogenbond:ARG:20>  (8) 
halogenbond:ARG:20    NaN
halogenbond:ARG:20     -1
Name: 6, dtype: object

>  <pication:ARG:20>  (8) 
pication:ARG:20    NaN
pication:ARG:20     -1
Name: 6, dtype: object

>  <hbond:HIS:21>  (8) 
hbond:HIS:21    0.0
hbond:HIS:21      0
Name: 6, dtype: object

>  <hydroph_interaction:HIS:21>  (8) 
hydroph_interaction:HIS:21    0.0
hydroph_interaction:HIS:21      0
Name: 6, dtype: object

>  <pistack:HIS:21>  (8) 
pistack:HIS:21    0.0
pistack:HIS:21      0
Name: 6, dtype: object

>  <pication:HIS:21>  (8) 
pication:HIS:21    0.0
pication:HIS:21      0
Name: 6, dtype: object

>  <saltbridge:HIS:21>  (8) 
saltbridge:HIS:21    0.0
saltbridge:HIS:21      0
Name: 6, dtype: object

>  <halogenbond:HIS:21>  (8) 
halogenbond:HIS:21    NaN
halogenbond:HIS:21     -1
Name: 6, dtype: object

>  <hydroph_interaction:LEU:22>  (8) 
hydroph_interaction:LEU:22    NaN
hydroph_interaction:LEU:22     -1
Name: 6, dtype: object

>  <hbond:LEU:22>  (8) 
hbond:LEU:22    NaN
hbond:LEU:22     -1
Name: 6, dtype: object

>  <hydroph_interaction:TRP:28>  (8) 
hydroph_interaction:TRP:28    NaN
hydroph_interaction:TRP:28     -1
Name: 6, dtype: object

>  <hbond:SER:36>  (8) 
hbond:SER:36    NaN
hbond:SER:36     -1
Name: 6, dtype: object

>  <halogenbond:SER:36>  (8) 
halogenbond:SER:36    NaN
halogenbond:SER:36     -1
Name: 6, dtype: object

>  <hbond:SER:37>  (8) 
hbond:SER:37    NaN
hbond:SER:37     -1
Name: 6, dtype: object

>  <hbond:ARG:38>  (8) 
hbond:ARG:38    NaN
hbond:ARG:38     -1
Name: 6, dtype: object

>  <halogenbond:ARG:38>  (8) 
halogenbond:ARG:38    NaN
halogenbond:ARG:38     -1
Name: 6, dtype: object

>  <saltbridge:ASP:39>  (8) 
saltbridge:ASP:39    0.0
saltbridge:ASP:39      0
Name: 6, dtype: object

>  <halogenbond:ASP:39>  (8) 
halogenbond:ASP:39    0.0
halogenbond:ASP:39      0
Name: 6, dtype: object

>  <hbond:ASP:39>  (8) 
hbond:ASP:39    NaN
hbond:ASP:39     -1
Name: 6, dtype: object

>  <hydroph_interaction:ASP:39>  (8) 
hydroph_interaction:ASP:39    0.0
hydroph_interaction:ASP:39      0
Name: 6, dtype: object

>  <hydroph_interaction:LEU:40>  (8) 
hydroph_interaction:LEU:40    NaN
hydroph_interaction:LEU:40     -1
Name: 6, dtype: object

>  <hydroph_interaction:TYR:63>  (8) 
hydroph_interaction:TYR:63    0.0
hydroph_interaction:TYR:63      0
Name: 6, dtype: object

>  <hbond:TYR:63>  (8) 
hbond:TYR:63    NaN
hbond:TYR:63     -1
Name: 6, dtype: object

>  <pistack:TYR:63>  (8) 
pistack:TYR:63    NaN
pistack:TYR:63     -1
Name: 6, dtype: object

>  <pication:TYR:63>  (8) 
pication:TYR:63    NaN
pication:TYR:63     -1
Name: 6, dtype: object

>  <halogenbond:TYR:64>  (8) 
halogenbond:TYR:64    NaN
halogenbond:TYR:64     -1
Name: 6, dtype: object

>  <hbond:TYR:64>  (8) 
hbond:TYR:64    NaN
hbond:TYR:64     -1
Name: 6, dtype: object

>  <hydroph_interaction:TYR:64>  (8) 
hydroph_interaction:TYR:64    NaN
hydroph_interaction:TYR:64     -1
Name: 6, dtype: object

>  <halogenbond:CYS:65>  (8) 
halogenbond:CYS:65    NaN
halogenbond:CYS:65     -1
Name: 6, dtype: object

>  <hbond:CYS:65>  (8) 
hbond:CYS:65    NaN
hbond:CYS:65     -1
Name: 6, dtype: object

>  <hbond:SER:66>  (8) 
hbond:SER:66    NaN
hbond:SER:66     -1
Name: 6, dtype: object

>  <halogenbond:SER:66>  (8) 
halogenbond:SER:66    NaN
halogenbond:SER:66     -1
Name: 6, dtype: object

>  <hbond:SER:67>  (8) 
hbond:SER:67    0.0
hbond:SER:67      0
Name: 6, dtype: object

>  <halogenbond:SER:67>  (8) 
halogenbond:SER:67    NaN
halogenbond:SER:67     -1
Name: 6, dtype: object

>  <hbond:ARG:68>  (8) 
hbond:ARG:68    NaN
hbond:ARG:68     -1
Name: 6, dtype: object

>  <saltbridge:ARG:68>  (8) 
saltbridge:ARG:68    NaN
saltbridge:ARG:68     -1
Name: 6, dtype: object

>  <hydroph_interaction:ARG:68>  (8) 
hydroph_interaction:ARG:68    NaN
hydroph_interaction:ARG:68     -1
Name: 6, dtype: object

>  <pication:ARG:68>  (8) 
pication:ARG:68    NaN
pication:ARG:68     -1
Name: 6, dtype: object

>  <hydroph_interaction:TYR:72>  (8) 
hydroph_interaction:TYR:72    NaN
hydroph_interaction:TYR:72     -1
Name: 6, dtype: object

>  <hydroph_interaction:VAL:74>  (8) 
hydroph_interaction:VAL:74    NaN
hydroph_interaction:VAL:74     -1
Name: 6, dtype: object

>  <hydroph_interaction:PHE:76>  (8) 
hydroph_interaction:PHE:76    NaN
hydroph_interaction:PHE:76     -1
Name: 6, dtype: object

>  <hbond:SER:77>  (8) 
hbond:SER:77    NaN
hbond:SER:77     -1
Name: 6, dtype: object

>  <hbond:SER:80>  (8) 
hbond:SER:80    NaN
hbond:SER:80     -1
Name: 6, dtype: object

>  <hbond:LEU:81>  (8) 
hbond:LEU:81    NaN
hbond:LEU:81     -1
Name: 6, dtype: object

>  <halogenbond:LEU:81>  (8) 
halogenbond:LEU:81    NaN
halogenbond:LEU:81     -1
Name: 6, dtype: object

>  <hydroph_interaction:LEU:81>  (8) 
hydroph_interaction:LEU:81    NaN
hydroph_interaction:LEU:81     -1
Name: 6, dtype: object

>  <hydroph_interaction:ILE:82>  (8) 
hydroph_interaction:ILE:82    NaN
hydroph_interaction:ILE:82     -1
Name: 6, dtype: object

>  <halogenbond:ILE:82>  (8) 
halogenbond:ILE:82    NaN
halogenbond:ILE:82     -1
Name: 6, dtype: object

>  <hbond:ILE:82>  (8) 
hbond:ILE:82    NaN
hbond:ILE:82     -1
Name: 6, dtype: object

>  <hbond:PHE:83>  (8) 
hbond:PHE:83    NaN
hbond:PHE:83     -1
Name: 6, dtype: object

>  <hydroph_interaction:PHE:83>  (8) 
hydroph_interaction:PHE:83    NaN
hydroph_interaction:PHE:83     -1
Name: 6, dtype: object

>  <halogenbond:PHE:83>  (8) 
halogenbond:PHE:83    NaN
halogenbond:PHE:83     -1
Name: 6, dtype: object

>  <pistack:PHE:83>  (8) 
pistack:PHE:83    NaN
pistack:PHE:83     -1
Name: 6, dtype: object

>  <pication:PHE:83>  (8) 
pication:PHE:83    NaN
pication:PHE:83     -1
Name: 6, dtype: object

>  <hydroph_interaction:VAL:84>  (8) 
hydroph_interaction:VAL:84    0.0
hydroph_interaction:VAL:84      0
Name: 6, dtype: object

>  <halogenbond:VAL:84>  (8) 
halogenbond:VAL:84    NaN
halogenbond:VAL:84     -1
Name: 6, dtype: object

>  <hbond:VAL:84>  (8) 
hbond:VAL:84    NaN
hbond:VAL:84     -1
Name: 6, dtype: object

>  <hydroph_interaction:GLU:85>  (8) 
hydroph_interaction:GLU:85    0.0
hydroph_interaction:GLU:85      0
Name: 6, dtype: object

>  <hbond:GLU:85>  (8) 
hbond:GLU:85    0.0
hbond:GLU:85      0
Name: 6, dtype: object

>  <halogenbond:GLU:85>  (8) 
halogenbond:GLU:85    NaN
halogenbond:GLU:85     -1
Name: 6, dtype: object

>  <saltbridge:GLU:85>  (8) 
saltbridge:GLU:85    NaN
saltbridge:GLU:85     -1
Name: 6, dtype: object

>  <halogenbond:ALA:86>  (8) 
halogenbond:ALA:86    NaN
halogenbond:ALA:86     -1
Name: 6, dtype: object

>  <hbond:ALA:86>  (8) 
hbond:ALA:86    0.0
hbond:ALA:86      0
Name: 6, dtype: object

>  <hydroph_interaction:ALA:86>  (8) 
hydroph_interaction:ALA:86    NaN
hydroph_interaction:ALA:86     -1
Name: 6, dtype: object

>  <hbond:SER:87>  (8) 
hbond:SER:87    2
hbond:SER:87    2
Name: 6, dtype: object

>  <halogenbond:SER:87>  (8) 
halogenbond:SER:87    NaN
halogenbond:SER:87     -1
Name: 6, dtype: object

>  <hbond:GLU:88>  (8) 
hbond:GLU:88    0.0
hbond:GLU:88      0
Name: 6, dtype: object

>  <hydroph_interaction:GLU:88>  (8) 
hydroph_interaction:GLU:88    0.0
hydroph_interaction:GLU:88      0
Name: 6, dtype: object

>  <halogenbond:GLU:88>  (8) 
halogenbond:GLU:88    NaN
halogenbond:GLU:88     -1
Name: 6, dtype: object

>  <saltbridge:GLU:88>  (8) 
saltbridge:GLU:88    NaN
saltbridge:GLU:88     -1
Name: 6, dtype: object

>  <hydroph_interaction:TYR:89>  (8) 
hydroph_interaction:TYR:89    0.0
hydroph_interaction:TYR:89      0
Name: 6, dtype: object

>  <pistack:TYR:89>  (8) 
pistack:TYR:89    NaN
pistack:TYR:89     -1
Name: 6, dtype: object

>  <hbond:TYR:89>  (8) 
hbond:TYR:89    NaN
hbond:TYR:89     -1
Name: 6, dtype: object

>  <halogenbond:TYR:89>  (8) 
halogenbond:TYR:89    NaN
halogenbond:TYR:89     -1
Name: 6, dtype: object

>  <hydroph_interaction:TYR:90>  (8) 
hydroph_interaction:TYR:90    0.0
hydroph_interaction:TYR:90      0
Name: 6, dtype: object

>  <hbond:TYR:90>  (8) 
hbond:TYR:90    0.0
hbond:TYR:90      0
Name: 6, dtype: object

>  <pistack:TYR:90>  (8) 
pistack:TYR:90    0.0
pistack:TYR:90      0
Name: 6, dtype: object

>  <halogenbond:TYR:90>  (8) 
halogenbond:TYR:90    NaN
halogenbond:TYR:90     -1
Name: 6, dtype: object

>  <pication:TYR:90>  (8) 
pication:TYR:90    NaN
pication:TYR:90     -1
Name: 6, dtype: object

>  <hbond:PRO:91>  (8) 
hbond:PRO:91    NaN
hbond:PRO:91     -1
Name: 6, dtype: object

>  <hydroph_interaction:PRO:91>  (8) 
hydroph_interaction:PRO:91    NaN
hydroph_interaction:PRO:91     -1
Name: 6, dtype: object

>  <halogenbond:PRO:91>  (8) 
halogenbond:PRO:91    NaN
halogenbond:PRO:91     -1
Name: 6, dtype: object

>  <hbond:ALA:92>  (8) 
hbond:ALA:92    NaN
hbond:ALA:92     -1
Name: 6, dtype: object

>  <hydroph_interaction:ALA:92>  (8) 
hydroph_interaction:ALA:92    NaN
hydroph_interaction:ALA:92     -1
Name: 6, dtype: object

>  <saltbridge:ARG:93>  (8) 
saltbridge:ARG:93    NaN
saltbridge:ARG:93     -1
Name: 6, dtype: object

>  <hbond:ARG:93>  (8) 
hbond:ARG:93    NaN
hbond:ARG:93     -1
Name: 6, dtype: object

>  <hydroph_interaction:ARG:93>  (8) 
hydroph_interaction:ARG:93    NaN
hydroph_interaction:ARG:93     -1
Name: 6, dtype: object

>  <halogenbond:ARG:93>  (8) 
halogenbond:ARG:93    NaN
halogenbond:ARG:93     -1
Name: 6, dtype: object

>  <pication:ARG:93>  (8) 
pication:ARG:93    0.0
pication:ARG:93      0
Name: 6, dtype: object

>  <hydroph_interaction:TYR:94>  (8) 
hydroph_interaction:TYR:94    NaN
hydroph_interaction:TYR:94     -1
Name: 6, dtype: object

>  <pistack:TYR:94>  (8) 
pistack:TYR:94    NaN
pistack:TYR:94     -1
Name: 6, dtype: object

>  <hbond:TYR:94>  (8) 
hbond:TYR:94    NaN
hbond:TYR:94     -1
Name: 6, dtype: object

>  <hbond:GLN:95>  (8) 
hbond:GLN:95    NaN
hbond:GLN:95     -1
Name: 6, dtype: object

>  <hydroph_interaction:GLN:95>  (8) 
hydroph_interaction:GLN:95    0.0
hydroph_interaction:GLN:95      0
Name: 6, dtype: object

>  <halogenbond:GLN:95>  (8) 
halogenbond:GLN:95    NaN
halogenbond:GLN:95     -1
Name: 6, dtype: object

>  <hbond:SER:96>  (8) 
hbond:SER:96    NaN
hbond:SER:96     -1
Name: 6, dtype: object

>  <halogenbond:HIS:97>  (8) 
halogenbond:HIS:97    NaN
halogenbond:HIS:97     -1
Name: 6, dtype: object

>  <hydroph_interaction:LEU:98>  (8) 
hydroph_interaction:LEU:98    NaN
hydroph_interaction:LEU:98     -1
Name: 6, dtype: object

>  <hbond:LEU:98>  (8) 
hbond:LEU:98    NaN
hbond:LEU:98     -1
Name: 6, dtype: object

>  <halogenbond:LEU:98>  (8) 
halogenbond:LEU:98    NaN
halogenbond:LEU:98     -1
Name: 6, dtype: object

>  <hbond:MET:99>  (8) 
hbond:MET:99    NaN
hbond:MET:99     -1
Name: 6, dtype: object

>  <hydroph_interaction:MET:99>  (8) 
hydroph_interaction:MET:99    NaN
hydroph_interaction:MET:99     -1
Name: 6, dtype: object

>  <halogenbond:MET:99>  (8) 
halogenbond:MET:99    NaN
halogenbond:MET:99     -1
Name: 6, dtype: object

>  <hydroph_interaction:LEU:100>  (8) 
hydroph_interaction:LEU:100    NaN
hydroph_interaction:LEU:100     -1
Name: 6, dtype: object

>  <hbond:LEU:100>  (8) 
hbond:LEU:100    NaN
hbond:LEU:100     -1
Name: 6, dtype: object

>  <hbond:ALA:101>  (8) 
hbond:ALA:101    NaN
hbond:ALA:101     -1
Name: 6, dtype: object

>  <hydroph_interaction:ALA:101>  (8) 
hydroph_interaction:ALA:101    NaN
hydroph_interaction:ALA:101     -1
Name: 6, dtype: object

>  <hydroph_interaction:VAL:102>  (8) 
hydroph_interaction:VAL:102    NaN
hydroph_interaction:VAL:102     -1
Name: 6, dtype: object

>  <hbond:VAL:102>  (8) 
hbond:VAL:102    NaN
hbond:VAL:102     -1
Name: 6, dtype: object

>  <hbond:GLY:103>  (8) 
hbond:GLY:103    NaN
hbond:GLY:103     -1
Name: 6, dtype: object

>  <halogenbond:GLY:103>  (8) 
halogenbond:GLY:103    NaN
halogenbond:GLY:103     -1
Name: 6, dtype: object

>  <hbond:HIS:104>  (8) 
hbond:HIS:104    NaN
hbond:HIS:104     -1
Name: 6, dtype: object

>  <saltbridge:HIS:104>  (8) 
saltbridge:HIS:104    NaN
saltbridge:HIS:104     -1
Name: 6, dtype: object

>  <pication:HIS:104>  (8) 
pication:HIS:104    NaN
pication:HIS:104     -1
Name: 6, dtype: object

>  <halogenbond:HIS:104>  (8) 
halogenbond:HIS:104    NaN
halogenbond:HIS:104     -1
Name: 6, dtype: object

>  <hydroph_interaction:HIS:104>  (8) 
hydroph_interaction:HIS:104    NaN
hydroph_interaction:HIS:104     -1
Name: 6, dtype: object

>  <pistack:HIS:104>  (8) 
pistack:HIS:104    NaN
pistack:HIS:104     -1
Name: 6, dtype: object

>  <halogenbond:SER:105>  (8) 
halogenbond:SER:105    0.0
halogenbond:SER:105      0
Name: 6, dtype: object

>  <hbond:SER:105>  (8) 
hbond:SER:105    0.0
hbond:SER:105      0
Name: 6, dtype: object

>  <hbond:GLU:106>  (8) 
hbond:GLU:106    0.0
hbond:GLU:106      0
Name: 6, dtype: object

>  <hydroph_interaction:GLU:106>  (8) 
hydroph_interaction:GLU:106    NaN
hydroph_interaction:GLU:106     -1
Name: 6, dtype: object

>  <saltbridge:GLU:106>  (8) 
saltbridge:GLU:106    NaN
saltbridge:GLU:106     -1
Name: 6, dtype: object

>  <halogenbond:GLU:106>  (8) 
halogenbond:GLU:106    NaN
halogenbond:GLU:106     -1
Name: 6, dtype: object

>  <hydroph_interaction:PRO:107>  (8) 
hydroph_interaction:PRO:107    0
hydroph_interaction:PRO:107    0
Name: 6, dtype: object

>  <hbond:PRO:107>  (8) 
hbond:PRO:107    0.0
hbond:PRO:107      0
Name: 6, dtype: object

>  <halogenbond:PRO:107>  (8) 
halogenbond:PRO:107    0.0
halogenbond:PRO:107      0
Name: 6, dtype: object

>  <hbond:GLY:108>  (8) 
hbond:GLY:108    NaN
hbond:GLY:108     -1
Name: 6, dtype: object

>  <halogenbond:GLY:108>  (8) 
halogenbond:GLY:108    NaN
halogenbond:GLY:108     -1
Name: 6, dtype: object

>  <hbond:ASP:109>  (8) 
hbond:ASP:109    0.0
hbond:ASP:109      0
Name: 6, dtype: object

>  <hydroph_interaction:ASP:109>  (8) 
hydroph_interaction:ASP:109    0.0
hydroph_interaction:ASP:109      0
Name: 6, dtype: object

>  <saltbridge:ASP:109>  (8) 
saltbridge:ASP:109    NaN
saltbridge:ASP:109     -1
Name: 6, dtype: object

>  <halogenbond:CYS:110>  (8) 
halogenbond:CYS:110    NaN
halogenbond:CYS:110     -1
Name: 6, dtype: object

>  <hbond:CYS:110>  (8) 
hbond:CYS:110    0.0
hbond:CYS:110      0
Name: 6, dtype: object

>  <hbond:GLY:111>  (8) 
hbond:GLY:111    NaN
hbond:GLY:111     -1
Name: 6, dtype: object

>  <hbond:GLY:112>  (8) 
hbond:GLY:112    NaN
hbond:GLY:112     -1
Name: 6, dtype: object

>  <hbond:ILE:113>  (8) 
hbond:ILE:113    NaN
hbond:ILE:113     -1
Name: 6, dtype: object

>  <hydroph_interaction:LEU:114>  (8) 
hydroph_interaction:LEU:114    NaN
hydroph_interaction:LEU:114     -1
Name: 6, dtype: object

>  <hbond:LEU:114>  (8) 
hbond:LEU:114    NaN
hbond:LEU:114     -1
Name: 6, dtype: object

>  <hydroph_interaction:ILE:123>  (8) 
hydroph_interaction:ILE:123    NaN
hydroph_interaction:ILE:123     -1
Name: 6, dtype: object

>  <hbond:ILE:123>  (8) 
hbond:ILE:123    NaN
hbond:ILE:123     -1
Name: 6, dtype: object

>  <hydroph_interaction:VAL:124>  (8) 
hydroph_interaction:VAL:124    1.0
hydroph_interaction:VAL:124      1
Name: 6, dtype: object

>  <hbond:VAL:124>  (8) 
hbond:VAL:124    NaN
hbond:VAL:124     -1
Name: 6, dtype: object

>  <halogenbond:VAL:124>  (8) 
halogenbond:VAL:124    NaN
halogenbond:VAL:124     -1
Name: 6, dtype: object

>  <hbond:SER:125>  (8) 
hbond:SER:125    0
hbond:SER:125    0
Name: 6, dtype: object

>  <halogenbond:SER:125>  (8) 
halogenbond:SER:125    0.0
halogenbond:SER:125      0
Name: 6, dtype: object

>  <hydroph_interaction:THR:126>  (8) 
hydroph_interaction:THR:126    0.0
hydroph_interaction:THR:126      0
Name: 6, dtype: object

>  <hbond:THR:126>  (8) 
hbond:THR:126    0.0
hbond:THR:126      0
Name: 6, dtype: object

>  <halogenbond:THR:126>  (8) 
halogenbond:THR:126    NaN
halogenbond:THR:126     -1
Name: 6, dtype: object

>  <hbond:GLY:127>  (8) 
hbond:GLY:127    0
hbond:GLY:127    0
Name: 6, dtype: object

>  <halogenbond:GLY:127>  (8) 
halogenbond:GLY:127    NaN
halogenbond:GLY:127     -1
Name: 6, dtype: object

>  <hydroph_interaction:GLY:127>  (8) 
hydroph_interaction:GLY:127    NaN
hydroph_interaction:GLY:127     -1
Name: 6, dtype: object

>  <hbond:GLY:128>  (8) 
hbond:GLY:128    NaN
hbond:GLY:128     -1
Name: 6, dtype: object

>  <halogenbond:GLY:128>  (8) 
halogenbond:GLY:128    NaN
halogenbond:GLY:128     -1
Name: 6, dtype: object

>  <hydroph_interaction:GLY:128>  (8) 
hydroph_interaction:GLY:128    NaN
hydroph_interaction:GLY:128     -1
Name: 6, dtype: object

>  <hbond:ASN:129>  (8) 
hbond:ASN:129    NaN
hbond:ASN:129     -1
Name: 6, dtype: object

>  <hydroph_interaction:ASN:129>  (8) 
hydroph_interaction:ASN:129    NaN
hydroph_interaction:ASN:129     -1
Name: 6, dtype: object

>  <halogenbond:ASN:129>  (8) 
halogenbond:ASN:129    NaN
halogenbond:ASN:129     -1
Name: 6, dtype: object

>  <hbond:GLY:130>  (8) 
hbond:GLY:130    NaN
hbond:GLY:130     -1
Name: 6, dtype: object

>  <hbond:LEU:131>  (8) 
hbond:LEU:131    NaN
hbond:LEU:131     -1
Name: 6, dtype: object

>  <hydroph_interaction:LEU:131>  (8) 
hydroph_interaction:LEU:131    NaN
hydroph_interaction:LEU:131     -1
Name: 6, dtype: object

>  <halogenbond:LEU:131>  (8) 
halogenbond:LEU:131    NaN
halogenbond:LEU:131     -1
Name: 6, dtype: object

>  <hydroph_interaction:VAL:132>  (8) 
hydroph_interaction:VAL:132    0.0
hydroph_interaction:VAL:132      0
Name: 6, dtype: object

>  <hbond:VAL:132>  (8) 
hbond:VAL:132    NaN
hbond:VAL:132     -1
Name: 6, dtype: object

>  <hbond:GLY:133>  (8) 
hbond:GLY:133    NaN
hbond:GLY:133     -1
Name: 6, dtype: object

>  <halogenbond:GLY:133>  (8) 
halogenbond:GLY:133    NaN
halogenbond:GLY:133     -1
Name: 6, dtype: object

>  <hydroph_interaction:PHE:134>  (8) 
hydroph_interaction:PHE:134    NaN
hydroph_interaction:PHE:134     -1
Name: 6, dtype: object

>  <hbond:PHE:134>  (8) 
hbond:PHE:134    NaN
hbond:PHE:134     -1
Name: 6, dtype: object

>  <pistack:PHE:134>  (8) 
pistack:PHE:134    NaN
pistack:PHE:134     -1
Name: 6, dtype: object

>  <pication:PHE:134>  (8) 
pication:PHE:134    NaN
pication:PHE:134     -1
Name: 6, dtype: object

>  <halogenbond:PHE:134>  (8) 
halogenbond:PHE:134    NaN
halogenbond:PHE:134     -1
Name: 6, dtype: object

>  <hydroph_interaction:ALA:135>  (8) 
hydroph_interaction:ALA:135    NaN
hydroph_interaction:ALA:135     -1
Name: 6, dtype: object

>  <hbond:ALA:135>  (8) 
hbond:ALA:135    NaN
hbond:ALA:135     -1
Name: 6, dtype: object

$$$$
Z5436418018
     RDKit          3D

 16 17  0  0  0  0  0  0  0  0999 V2000
   28.7889   15.4844    8.3977 C   0  0  0  0  0  0  0  0  0  0  0  0
   29.8380   14.4033    8.7154 C   0  0  0  0  0  0  0  0  0  0  0  0
   29.7267   13.3054    7.7599 N   0  0  0  0  0  0  0  0  0  0  0  0
   28.3348   12.9621    7.5875 C   0  0  0  0  0  0  0  0  0  0  0  0
   30.5859   13.0630    6.6976 C   0  0  0  0  0  0  0  0  0  0  0  0
   30.6490   13.7850    5.7144 O   0  0  0  0  0  0  0  0  0  0  0  0
   31.3688   11.7914    6.6412 C   0  0  0  0  0  0  0  0  0  0  0  0
   32.3756   11.7125    5.7530 C   0  0  0  0  0  0  0  0  0  0  0  0
   33.1457   10.4939    5.6007 C   0  0  0  0  0  0  0  0  0  0  0  0
   34.5187   10.4186    4.3583 Br  0  0  0  0  0  0  0  0  0  0  0  0
   32.8451    9.4440    6.3509 C   0  0  0  0  0  0  0  0  0  0  0  0
   31.8145    9.5567    7.2662 C   0  0  0  0  0  0  0  0  0  0  0  0
   31.0745   10.6948    7.4454 C   0  0  0  0  0  0  0  0  0  0  0  0
   30.1190   10.5929    8.4088 N   0  0  0  0  0  0  0  0  0  0  0  0
   30.1499    9.3958    8.9387 C   0  0  0  0  0  0  0  0  0  0  0  0
   31.2720    8.3395    8.3236 S   0  0  0  0  0  0  0  0  0  0  0  0
  1  2  1  0
  2  3  1  0
  3  4  1  0
  3  5  1  0
  5  6  2  0
  5  7  1  0
  7  8  2  0
  8  9  1  0
  9 10  1  0
  9 11  2  0
 11 12  1  0
 12 13  2  0
 13 14  1  0
 14 15  2  0
 15 16  1  0
 13  7  1  0
 16 12  1  0
A    1
 C1 
A    2
 C2 
A    3
 N1 
A    4
 C3 
A    5
 C4 
A    6
 O1 
A    7
 C5 
A    8
 C6 
A    9
 C7 
A   10
BR1 
A   11
 C8 
A   12
 C9 
A   13
 C10
A   14
 N2 
A   15
 C11
A   16
 S1 
M  END
>  <ref_pdb>  (9) 
Ax0310a

>  <ref_mols>  (9) 
Ax0554a,Ax0528a

>  <original SMILES>  (9) 
CCN(C)C(=O)c1cc(Br)cc2scnc12

>  <rationale>  (9) 
info halogenbond:D39+A86+S125+E85+Q95+E106+E88+T126+P107+H104+Y64+C65+S87+N129+F83+R93+L131+I82+G128+P91+N19+H21+V84+G133+Y90+Y89+H97+L81+F134+L98+R20+G103+S66+S67+S7+G108+R38+V124+M99+S36; hbond:E88+D39+A86+E85+G108+G103+G128+G130+L131+N129+N19+H104+R68+V124+R93+P91+F83+S67+S7+S66+G112+G133+V132+R20+Y89+S77+A135+Y63+A92+A101+M99+F134+L100+I82+Y64+S36+L98+V84+L81+Y94+S80+R38+S37+V102+G8+I123+G111+I113+L114+C65+L22+S96; hydroph_interaction:Y90+Y89+P107+L22+E85+E106+E88+N129+D39+N19+L40+I123+A135+Q95+I82+L100+L98+L131+F83+R93+V132+Y63+F134+H104+R20+A86+V74+P91+A101+F76+M99+L114+A92+Y94+R68+Y72+Y64+V18+V102+W28+G127+G128+L81; pication:H104+R93+Y63+F134+Y90+R68+F83+R20; pistack:Y89+Y90+H104+F134+Y63+F83+Y94; saltbridge:R93+H104+E106+D109+E85+E88+R68+R20; 

>  <intxn_cluster>  (9) 
-1

>  <intxn_cluster_rank>  (9) 
-1

>  <N_interactions>  (9) 
4

>  <∆∆G>  (9) 
-8.875871

>  <$/mg>  (9) 
244.5

>  <comRMSD>  (9) 
0.892193

>  <N_rotatable_bonds>  (9) 
4

>  <deep_P1_sidechain>  (9) 
nan

>  <farthest_distance_to_substrate>  (9) 
2.855634

>  <hbond:SER:7>  (9) 
hbond:SER:7    NaN
hbond:SER:7     -1
Name: 7, dtype: object

>  <halogenbond:SER:7>  (9) 
halogenbond:SER:7    NaN
halogenbond:SER:7     -1
Name: 7, dtype: object

>  <hbond:GLY:8>  (9) 
hbond:GLY:8    NaN
hbond:GLY:8     -1
Name: 7, dtype: object

>  <hydroph_interaction:VAL:18>  (9) 
hydroph_interaction:VAL:18    NaN
hydroph_interaction:VAL:18     -1
Name: 7, dtype: object

>  <hbond:ASN:19>  (9) 
hbond:ASN:19    NaN
hbond:ASN:19     -1
Name: 7, dtype: object

>  <hydroph_interaction:ASN:19>  (9) 
hydroph_interaction:ASN:19    NaN
hydroph_interaction:ASN:19     -1
Name: 7, dtype: object

>  <halogenbond:ASN:19>  (9) 
halogenbond:ASN:19    NaN
halogenbond:ASN:19     -1
Name: 7, dtype: object

>  <hbond:ARG:20>  (9) 
hbond:ARG:20    NaN
hbond:ARG:20     -1
Name: 7, dtype: object

>  <hydroph_interaction:ARG:20>  (9) 
hydroph_interaction:ARG:20    NaN
hydroph_interaction:ARG:20     -1
Name: 7, dtype: object

>  <saltbridge:ARG:20>  (9) 
saltbridge:ARG:20    NaN
saltbridge:ARG:20     -1
Name: 7, dtype: object

>  <halogenbond:ARG:20>  (9) 
halogenbond:ARG:20    NaN
halogenbond:ARG:20     -1
Name: 7, dtype: object

>  <pication:ARG:20>  (9) 
pication:ARG:20    NaN
pication:ARG:20     -1
Name: 7, dtype: object

>  <hbond:HIS:21>  (9) 
hbond:HIS:21    0.0
hbond:HIS:21      0
Name: 7, dtype: object

>  <hydroph_interaction:HIS:21>  (9) 
hydroph_interaction:HIS:21    0.0
hydroph_interaction:HIS:21      0
Name: 7, dtype: object

>  <pistack:HIS:21>  (9) 
pistack:HIS:21    0.0
pistack:HIS:21      0
Name: 7, dtype: object

>  <pication:HIS:21>  (9) 
pication:HIS:21    0.0
pication:HIS:21      0
Name: 7, dtype: object

>  <saltbridge:HIS:21>  (9) 
saltbridge:HIS:21    0.0
saltbridge:HIS:21      0
Name: 7, dtype: object

>  <halogenbond:HIS:21>  (9) 
halogenbond:HIS:21    NaN
halogenbond:HIS:21     -1
Name: 7, dtype: object

>  <hydroph_interaction:LEU:22>  (9) 
hydroph_interaction:LEU:22    NaN
hydroph_interaction:LEU:22     -1
Name: 7, dtype: object

>  <hbond:LEU:22>  (9) 
hbond:LEU:22    NaN
hbond:LEU:22     -1
Name: 7, dtype: object

>  <hydroph_interaction:TRP:28>  (9) 
hydroph_interaction:TRP:28    NaN
hydroph_interaction:TRP:28     -1
Name: 7, dtype: object

>  <hbond:SER:36>  (9) 
hbond:SER:36    NaN
hbond:SER:36     -1
Name: 7, dtype: object

>  <halogenbond:SER:36>  (9) 
halogenbond:SER:36    NaN
halogenbond:SER:36     -1
Name: 7, dtype: object

>  <hbond:SER:37>  (9) 
hbond:SER:37    NaN
hbond:SER:37     -1
Name: 7, dtype: object

>  <hbond:ARG:38>  (9) 
hbond:ARG:38    NaN
hbond:ARG:38     -1
Name: 7, dtype: object

>  <halogenbond:ARG:38>  (9) 
halogenbond:ARG:38    NaN
halogenbond:ARG:38     -1
Name: 7, dtype: object

>  <saltbridge:ASP:39>  (9) 
saltbridge:ASP:39    0.0
saltbridge:ASP:39      0
Name: 7, dtype: object

>  <halogenbond:ASP:39>  (9) 
halogenbond:ASP:39    NaN
halogenbond:ASP:39     -1
Name: 7, dtype: object

>  <hbond:ASP:39>  (9) 
hbond:ASP:39    NaN
hbond:ASP:39     -1
Name: 7, dtype: object

>  <hydroph_interaction:ASP:39>  (9) 
hydroph_interaction:ASP:39    NaN
hydroph_interaction:ASP:39     -1
Name: 7, dtype: object

>  <hydroph_interaction:LEU:40>  (9) 
hydroph_interaction:LEU:40    NaN
hydroph_interaction:LEU:40     -1
Name: 7, dtype: object

>  <hydroph_interaction:TYR:63>  (9) 
hydroph_interaction:TYR:63    NaN
hydroph_interaction:TYR:63     -1
Name: 7, dtype: object

>  <hbond:TYR:63>  (9) 
hbond:TYR:63    NaN
hbond:TYR:63     -1
Name: 7, dtype: object

>  <pistack:TYR:63>  (9) 
pistack:TYR:63    NaN
pistack:TYR:63     -1
Name: 7, dtype: object

>  <pication:TYR:63>  (9) 
pication:TYR:63    NaN
pication:TYR:63     -1
Name: 7, dtype: object

>  <halogenbond:TYR:64>  (9) 
halogenbond:TYR:64    NaN
halogenbond:TYR:64     -1
Name: 7, dtype: object

>  <hbond:TYR:64>  (9) 
hbond:TYR:64    NaN
hbond:TYR:64     -1
Name: 7, dtype: object

>  <hydroph_interaction:TYR:64>  (9) 
hydroph_interaction:TYR:64    NaN
hydroph_interaction:TYR:64     -1
Name: 7, dtype: object

>  <halogenbond:CYS:65>  (9) 
halogenbond:CYS:65    NaN
halogenbond:CYS:65     -1
Name: 7, dtype: object

>  <hbond:CYS:65>  (9) 
hbond:CYS:65    NaN
hbond:CYS:65     -1
Name: 7, dtype: object

>  <hbond:SER:66>  (9) 
hbond:SER:66    NaN
hbond:SER:66     -1
Name: 7, dtype: object

>  <halogenbond:SER:66>  (9) 
halogenbond:SER:66    NaN
halogenbond:SER:66     -1
Name: 7, dtype: object

>  <hbond:SER:67>  (9) 
hbond:SER:67    NaN
hbond:SER:67     -1
Name: 7, dtype: object

>  <halogenbond:SER:67>  (9) 
halogenbond:SER:67    NaN
halogenbond:SER:67     -1
Name: 7, dtype: object

>  <hbond:ARG:68>  (9) 
hbond:ARG:68    NaN
hbond:ARG:68     -1
Name: 7, dtype: object

>  <saltbridge:ARG:68>  (9) 
saltbridge:ARG:68    NaN
saltbridge:ARG:68     -1
Name: 7, dtype: object

>  <hydroph_interaction:ARG:68>  (9) 
hydroph_interaction:ARG:68    NaN
hydroph_interaction:ARG:68     -1
Name: 7, dtype: object

>  <pication:ARG:68>  (9) 
pication:ARG:68    NaN
pication:ARG:68     -1
Name: 7, dtype: object

>  <hydroph_interaction:TYR:72>  (9) 
hydroph_interaction:TYR:72    NaN
hydroph_interaction:TYR:72     -1
Name: 7, dtype: object

>  <hydroph_interaction:VAL:74>  (9) 
hydroph_interaction:VAL:74    NaN
hydroph_interaction:VAL:74     -1
Name: 7, dtype: object

>  <hydroph_interaction:PHE:76>  (9) 
hydroph_interaction:PHE:76    NaN
hydroph_interaction:PHE:76     -1
Name: 7, dtype: object

>  <hbond:SER:77>  (9) 
hbond:SER:77    NaN
hbond:SER:77     -1
Name: 7, dtype: object

>  <hbond:SER:80>  (9) 
hbond:SER:80    NaN
hbond:SER:80     -1
Name: 7, dtype: object

>  <hbond:LEU:81>  (9) 
hbond:LEU:81    NaN
hbond:LEU:81     -1
Name: 7, dtype: object

>  <halogenbond:LEU:81>  (9) 
halogenbond:LEU:81    NaN
halogenbond:LEU:81     -1
Name: 7, dtype: object

>  <hydroph_interaction:LEU:81>  (9) 
hydroph_interaction:LEU:81    NaN
hydroph_interaction:LEU:81     -1
Name: 7, dtype: object

>  <hydroph_interaction:ILE:82>  (9) 
hydroph_interaction:ILE:82    NaN
hydroph_interaction:ILE:82     -1
Name: 7, dtype: object

>  <halogenbond:ILE:82>  (9) 
halogenbond:ILE:82    NaN
halogenbond:ILE:82     -1
Name: 7, dtype: object

>  <hbond:ILE:82>  (9) 
hbond:ILE:82    NaN
hbond:ILE:82     -1
Name: 7, dtype: object

>  <hbond:PHE:83>  (9) 
hbond:PHE:83    NaN
hbond:PHE:83     -1
Name: 7, dtype: object

>  <hydroph_interaction:PHE:83>  (9) 
hydroph_interaction:PHE:83    NaN
hydroph_interaction:PHE:83     -1
Name: 7, dtype: object

>  <halogenbond:PHE:83>  (9) 
halogenbond:PHE:83    NaN
halogenbond:PHE:83     -1
Name: 7, dtype: object

>  <pistack:PHE:83>  (9) 
pistack:PHE:83    NaN
pistack:PHE:83     -1
Name: 7, dtype: object

>  <pication:PHE:83>  (9) 
pication:PHE:83    NaN
pication:PHE:83     -1
Name: 7, dtype: object

>  <hydroph_interaction:VAL:84>  (9) 
hydroph_interaction:VAL:84    0.0
hydroph_interaction:VAL:84      0
Name: 7, dtype: object

>  <halogenbond:VAL:84>  (9) 
halogenbond:VAL:84    NaN
halogenbond:VAL:84     -1
Name: 7, dtype: object

>  <hbond:VAL:84>  (9) 
hbond:VAL:84    NaN
hbond:VAL:84     -1
Name: 7, dtype: object

>  <hydroph_interaction:GLU:85>  (9) 
hydroph_interaction:GLU:85    NaN
hydroph_interaction:GLU:85     -1
Name: 7, dtype: object

>  <hbond:GLU:85>  (9) 
hbond:GLU:85    NaN
hbond:GLU:85     -1
Name: 7, dtype: object

>  <halogenbond:GLU:85>  (9) 
halogenbond:GLU:85    NaN
halogenbond:GLU:85     -1
Name: 7, dtype: object

>  <saltbridge:GLU:85>  (9) 
saltbridge:GLU:85    NaN
saltbridge:GLU:85     -1
Name: 7, dtype: object

>  <halogenbond:ALA:86>  (9) 
halogenbond:ALA:86    NaN
halogenbond:ALA:86     -1
Name: 7, dtype: object

>  <hbond:ALA:86>  (9) 
hbond:ALA:86    NaN
hbond:ALA:86     -1
Name: 7, dtype: object

>  <hydroph_interaction:ALA:86>  (9) 
hydroph_interaction:ALA:86    NaN
hydroph_interaction:ALA:86     -1
Name: 7, dtype: object

>  <hbond:SER:87>  (9) 
hbond:SER:87    0
hbond:SER:87    0
Name: 7, dtype: object

>  <halogenbond:SER:87>  (9) 
halogenbond:SER:87    NaN
halogenbond:SER:87     -1
Name: 7, dtype: object

>  <hbond:GLU:88>  (9) 
hbond:GLU:88    1.0
hbond:GLU:88      1
Name: 7, dtype: object

>  <hydroph_interaction:GLU:88>  (9) 
hydroph_interaction:GLU:88    NaN
hydroph_interaction:GLU:88     -1
Name: 7, dtype: object

>  <halogenbond:GLU:88>  (9) 
halogenbond:GLU:88    NaN
halogenbond:GLU:88     -1
Name: 7, dtype: object

>  <saltbridge:GLU:88>  (9) 
saltbridge:GLU:88    NaN
saltbridge:GLU:88     -1
Name: 7, dtype: object

>  <hydroph_interaction:TYR:89>  (9) 
hydroph_interaction:TYR:89    1.0
hydroph_interaction:TYR:89      1
Name: 7, dtype: object

>  <pistack:TYR:89>  (9) 
pistack:TYR:89    NaN
pistack:TYR:89     -1
Name: 7, dtype: object

>  <hbond:TYR:89>  (9) 
hbond:TYR:89    NaN
hbond:TYR:89     -1
Name: 7, dtype: object

>  <halogenbond:TYR:89>  (9) 
halogenbond:TYR:89    NaN
halogenbond:TYR:89     -1
Name: 7, dtype: object

>  <hydroph_interaction:TYR:90>  (9) 
hydroph_interaction:TYR:90    1.0
hydroph_interaction:TYR:90      1
Name: 7, dtype: object

>  <hbond:TYR:90>  (9) 
hbond:TYR:90    0.0
hbond:TYR:90      0
Name: 7, dtype: object

>  <pistack:TYR:90>  (9) 
pistack:TYR:90    NaN
pistack:TYR:90     -1
Name: 7, dtype: object

>  <halogenbond:TYR:90>  (9) 
halogenbond:TYR:90    NaN
halogenbond:TYR:90     -1
Name: 7, dtype: object

>  <pication:TYR:90>  (9) 
pication:TYR:90    NaN
pication:TYR:90     -1
Name: 7, dtype: object

>  <hbond:PRO:91>  (9) 
hbond:PRO:91    NaN
hbond:PRO:91     -1
Name: 7, dtype: object

>  <hydroph_interaction:PRO:91>  (9) 
hydroph_interaction:PRO:91    NaN
hydroph_interaction:PRO:91     -1
Name: 7, dtype: object

>  <halogenbond:PRO:91>  (9) 
halogenbond:PRO:91    NaN
halogenbond:PRO:91     -1
Name: 7, dtype: object

>  <hbond:ALA:92>  (9) 
hbond:ALA:92    NaN
hbond:ALA:92     -1
Name: 7, dtype: object

>  <hydroph_interaction:ALA:92>  (9) 
hydroph_interaction:ALA:92    NaN
hydroph_interaction:ALA:92     -1
Name: 7, dtype: object

>  <saltbridge:ARG:93>  (9) 
saltbridge:ARG:93    NaN
saltbridge:ARG:93     -1
Name: 7, dtype: object

>  <hbond:ARG:93>  (9) 
hbond:ARG:93    NaN
hbond:ARG:93     -1
Name: 7, dtype: object

>  <hydroph_interaction:ARG:93>  (9) 
hydroph_interaction:ARG:93    NaN
hydroph_interaction:ARG:93     -1
Name: 7, dtype: object

>  <halogenbond:ARG:93>  (9) 
halogenbond:ARG:93    NaN
halogenbond:ARG:93     -1
Name: 7, dtype: object

>  <pication:ARG:93>  (9) 
pication:ARG:93    NaN
pication:ARG:93     -1
Name: 7, dtype: object

>  <hydroph_interaction:TYR:94>  (9) 
hydroph_interaction:TYR:94    NaN
hydroph_interaction:TYR:94     -1
Name: 7, dtype: object

>  <pistack:TYR:94>  (9) 
pistack:TYR:94    NaN
pistack:TYR:94     -1
Name: 7, dtype: object

>  <hbond:TYR:94>  (9) 
hbond:TYR:94    NaN
hbond:TYR:94     -1
Name: 7, dtype: object

>  <hbond:GLN:95>  (9) 
hbond:GLN:95    0.0
hbond:GLN:95      0
Name: 7, dtype: object

>  <hydroph_interaction:GLN:95>  (9) 
hydroph_interaction:GLN:95    NaN
hydroph_interaction:GLN:95     -1
Name: 7, dtype: object

>  <halogenbond:GLN:95>  (9) 
halogenbond:GLN:95    NaN
halogenbond:GLN:95     -1
Name: 7, dtype: object

>  <hbond:SER:96>  (9) 
hbond:SER:96    NaN
hbond:SER:96     -1
Name: 7, dtype: object

>  <halogenbond:HIS:97>  (9) 
halogenbond:HIS:97    NaN
halogenbond:HIS:97     -1
Name: 7, dtype: object

>  <hydroph_interaction:LEU:98>  (9) 
hydroph_interaction:LEU:98    NaN
hydroph_interaction:LEU:98     -1
Name: 7, dtype: object

>  <hbond:LEU:98>  (9) 
hbond:LEU:98    NaN
hbond:LEU:98     -1
Name: 7, dtype: object

>  <halogenbond:LEU:98>  (9) 
halogenbond:LEU:98    NaN
halogenbond:LEU:98     -1
Name: 7, dtype: object

>  <hbond:MET:99>  (9) 
hbond:MET:99    NaN
hbond:MET:99     -1
Name: 7, dtype: object

>  <hydroph_interaction:MET:99>  (9) 
hydroph_interaction:MET:99    NaN
hydroph_interaction:MET:99     -1
Name: 7, dtype: object

>  <halogenbond:MET:99>  (9) 
halogenbond:MET:99    NaN
halogenbond:MET:99     -1
Name: 7, dtype: object

>  <hydroph_interaction:LEU:100>  (9) 
hydroph_interaction:LEU:100    NaN
hydroph_interaction:LEU:100     -1
Name: 7, dtype: object

>  <hbond:LEU:100>  (9) 
hbond:LEU:100    NaN
hbond:LEU:100     -1
Name: 7, dtype: object

>  <hbond:ALA:101>  (9) 
hbond:ALA:101    NaN
hbond:ALA:101     -1
Name: 7, dtype: object

>  <hydroph_interaction:ALA:101>  (9) 
hydroph_interaction:ALA:101    NaN
hydroph_interaction:ALA:101     -1
Name: 7, dtype: object

>  <hydroph_interaction:VAL:102>  (9) 
hydroph_interaction:VAL:102    NaN
hydroph_interaction:VAL:102     -1
Name: 7, dtype: object

>  <hbond:VAL:102>  (9) 
hbond:VAL:102    NaN
hbond:VAL:102     -1
Name: 7, dtype: object

>  <hbond:GLY:103>  (9) 
hbond:GLY:103    NaN
hbond:GLY:103     -1
Name: 7, dtype: object

>  <halogenbond:GLY:103>  (9) 
halogenbond:GLY:103    NaN
halogenbond:GLY:103     -1
Name: 7, dtype: object

>  <hbond:HIS:104>  (9) 
hbond:HIS:104    NaN
hbond:HIS:104     -1
Name: 7, dtype: object

>  <saltbridge:HIS:104>  (9) 
saltbridge:HIS:104    NaN
saltbridge:HIS:104     -1
Name: 7, dtype: object

>  <pication:HIS:104>  (9) 
pication:HIS:104    NaN
pication:HIS:104     -1
Name: 7, dtype: object

>  <halogenbond:HIS:104>  (9) 
halogenbond:HIS:104    NaN
halogenbond:HIS:104     -1
Name: 7, dtype: object

>  <hydroph_interaction:HIS:104>  (9) 
hydroph_interaction:HIS:104    NaN
hydroph_interaction:HIS:104     -1
Name: 7, dtype: object

>  <pistack:HIS:104>  (9) 
pistack:HIS:104    NaN
pistack:HIS:104     -1
Name: 7, dtype: object

>  <halogenbond:SER:105>  (9) 
halogenbond:SER:105    0.0
halogenbond:SER:105      0
Name: 7, dtype: object

>  <hbond:SER:105>  (9) 
hbond:SER:105    0.0
hbond:SER:105      0
Name: 7, dtype: object

>  <hbond:GLU:106>  (9) 
hbond:GLU:106    0.0
hbond:GLU:106      0
Name: 7, dtype: object

>  <hydroph_interaction:GLU:106>  (9) 
hydroph_interaction:GLU:106    NaN
hydroph_interaction:GLU:106     -1
Name: 7, dtype: object

>  <saltbridge:GLU:106>  (9) 
saltbridge:GLU:106    NaN
saltbridge:GLU:106     -1
Name: 7, dtype: object

>  <halogenbond:GLU:106>  (9) 
halogenbond:GLU:106    NaN
halogenbond:GLU:106     -1
Name: 7, dtype: object

>  <hydroph_interaction:PRO:107>  (9) 
hydroph_interaction:PRO:107    1
hydroph_interaction:PRO:107    1
Name: 7, dtype: object

>  <hbond:PRO:107>  (9) 
hbond:PRO:107    0.0
hbond:PRO:107      0
Name: 7, dtype: object

>  <halogenbond:PRO:107>  (9) 
halogenbond:PRO:107    NaN
halogenbond:PRO:107     -1
Name: 7, dtype: object

>  <hbond:GLY:108>  (9) 
hbond:GLY:108    NaN
hbond:GLY:108     -1
Name: 7, dtype: object

>  <halogenbond:GLY:108>  (9) 
halogenbond:GLY:108    NaN
halogenbond:GLY:108     -1
Name: 7, dtype: object

>  <hbond:ASP:109>  (9) 
hbond:ASP:109    0.0
hbond:ASP:109      0
Name: 7, dtype: object

>  <hydroph_interaction:ASP:109>  (9) 
hydroph_interaction:ASP:109    0.0
hydroph_interaction:ASP:109      0
Name: 7, dtype: object

>  <saltbridge:ASP:109>  (9) 
saltbridge:ASP:109    NaN
saltbridge:ASP:109     -1
Name: 7, dtype: object

>  <halogenbond:CYS:110>  (9) 
halogenbond:CYS:110    0.0
halogenbond:CYS:110      0
Name: 7, dtype: object

>  <hbond:CYS:110>  (9) 
hbond:CYS:110    0.0
hbond:CYS:110      0
Name: 7, dtype: object

>  <hbond:GLY:111>  (9) 
hbond:GLY:111    NaN
hbond:GLY:111     -1
Name: 7, dtype: object

>  <hbond:GLY:112>  (9) 
hbond:GLY:112    NaN
hbond:GLY:112     -1
Name: 7, dtype: object

>  <hbond:ILE:113>  (9) 
hbond:ILE:113    NaN
hbond:ILE:113     -1
Name: 7, dtype: object

>  <hydroph_interaction:LEU:114>  (9) 
hydroph_interaction:LEU:114    NaN
hydroph_interaction:LEU:114     -1
Name: 7, dtype: object

>  <hbond:LEU:114>  (9) 
hbond:LEU:114    NaN
hbond:LEU:114     -1
Name: 7, dtype: object

>  <hydroph_interaction:ILE:123>  (9) 
hydroph_interaction:ILE:123    NaN
hydroph_interaction:ILE:123     -1
Name: 7, dtype: object

>  <hbond:ILE:123>  (9) 
hbond:ILE:123    NaN
hbond:ILE:123     -1
Name: 7, dtype: object

>  <hydroph_interaction:VAL:124>  (9) 
hydroph_interaction:VAL:124    0.0
hydroph_interaction:VAL:124      0
Name: 7, dtype: object

>  <hbond:VAL:124>  (9) 
hbond:VAL:124    NaN
hbond:VAL:124     -1
Name: 7, dtype: object

>  <halogenbond:VAL:124>  (9) 
halogenbond:VAL:124    NaN
halogenbond:VAL:124     -1
Name: 7, dtype: object

>  <hbond:SER:125>  (9) 
hbond:SER:125    0
hbond:SER:125    0
Name: 7, dtype: object

>  <halogenbond:SER:125>  (9) 
halogenbond:SER:125    NaN
halogenbond:SER:125     -1
Name: 7, dtype: object

>  <hydroph_interaction:THR:126>  (9) 
hydroph_interaction:THR:126    0.0
hydroph_interaction:THR:126      0
Name: 7, dtype: object

>  <hbond:THR:126>  (9) 
hbond:THR:126    0.0
hbond:THR:126      0
Name: 7, dtype: object

>  <halogenbond:THR:126>  (9) 
halogenbond:THR:126    NaN
halogenbond:THR:126     -1
Name: 7, dtype: object

>  <hbond:GLY:127>  (9) 
hbond:GLY:127    0
hbond:GLY:127    0
Name: 7, dtype: object

>  <halogenbond:GLY:127>  (9) 
halogenbond:GLY:127    0.0
halogenbond:GLY:127      0
Name: 7, dtype: object

>  <hydroph_interaction:GLY:127>  (9) 
hydroph_interaction:GLY:127    NaN
hydroph_interaction:GLY:127     -1
Name: 7, dtype: object

>  <hbond:GLY:128>  (9) 
hbond:GLY:128    NaN
hbond:GLY:128     -1
Name: 7, dtype: object

>  <halogenbond:GLY:128>  (9) 
halogenbond:GLY:128    NaN
halogenbond:GLY:128     -1
Name: 7, dtype: object

>  <hydroph_interaction:GLY:128>  (9) 
hydroph_interaction:GLY:128    NaN
hydroph_interaction:GLY:128     -1
Name: 7, dtype: object

>  <hbond:ASN:129>  (9) 
hbond:ASN:129    NaN
hbond:ASN:129     -1
Name: 7, dtype: object

>  <hydroph_interaction:ASN:129>  (9) 
hydroph_interaction:ASN:129    NaN
hydroph_interaction:ASN:129     -1
Name: 7, dtype: object

>  <halogenbond:ASN:129>  (9) 
halogenbond:ASN:129    NaN
halogenbond:ASN:129     -1
Name: 7, dtype: object

>  <hbond:GLY:130>  (9) 
hbond:GLY:130    NaN
hbond:GLY:130     -1
Name: 7, dtype: object

>  <hbond:LEU:131>  (9) 
hbond:LEU:131    NaN
hbond:LEU:131     -1
Name: 7, dtype: object

>  <hydroph_interaction:LEU:131>  (9) 
hydroph_interaction:LEU:131    NaN
hydroph_interaction:LEU:131     -1
Name: 7, dtype: object

>  <halogenbond:LEU:131>  (9) 
halogenbond:LEU:131    NaN
halogenbond:LEU:131     -1
Name: 7, dtype: object

>  <hydroph_interaction:VAL:132>  (9) 
hydroph_interaction:VAL:132    NaN
hydroph_interaction:VAL:132     -1
Name: 7, dtype: object

>  <hbond:VAL:132>  (9) 
hbond:VAL:132    NaN
hbond:VAL:132     -1
Name: 7, dtype: object

>  <hbond:GLY:133>  (9) 
hbond:GLY:133    NaN
hbond:GLY:133     -1
Name: 7, dtype: object

>  <halogenbond:GLY:133>  (9) 
halogenbond:GLY:133    NaN
halogenbond:GLY:133     -1
Name: 7, dtype: object

>  <hydroph_interaction:PHE:134>  (9) 
hydroph_interaction:PHE:134    NaN
hydroph_interaction:PHE:134     -1
Name: 7, dtype: object

>  <hbond:PHE:134>  (9) 
hbond:PHE:134    NaN
hbond:PHE:134     -1
Name: 7, dtype: object

>  <pistack:PHE:134>  (9) 
pistack:PHE:134    NaN
pistack:PHE:134     -1
Name: 7, dtype: object

>  <pication:PHE:134>  (9) 
pication:PHE:134    NaN
pication:PHE:134     -1
Name: 7, dtype: object

>  <halogenbond:PHE:134>  (9) 
halogenbond:PHE:134    NaN
halogenbond:PHE:134     -1
Name: 7, dtype: object

>  <hydroph_interaction:ALA:135>  (9) 
hydroph_interaction:ALA:135    NaN
hydroph_interaction:ALA:135     -1
Name: 7, dtype: object

>  <hbond:ALA:135>  (9) 
hbond:ALA:135    NaN
hbond:ALA:135     -1
Name: 7, dtype: object

$$$$
Z513565940
     RDKit          3D

 12 12  0  0  0  0  0  0  0  0999 V2000
   28.3327   14.7402    8.0245 C   0  0  0  0  0  0  0  0  0  0  0  0
   28.7631   13.3989    8.3464 N   0  0  0  0  0  0  0  0  0  0  0  0
   29.6962   12.6930    7.5187 C   0  0  0  0  0  0  0  0  0  0  0  0
   29.8635   12.9475    6.1225 O   0  0  0  0  0  0  0  0  0  0  0  0
   30.3876   11.7626    8.2456 N   0  0  0  0  0  0  0  0  0  0  0  0
   31.1821   10.7241    7.6450 C   0  0  0  0  0  0  0  0  0  0  0  0
   31.0796    9.3423    8.0152 C   0  0  0  0  0  0  0  0  0  0  0  0
   30.2828    8.7522    8.9474 C   0  0  0  0  0  0  0  0  0  0  0  0
   31.9368    8.6725    7.2734 N   0  0  0  0  0  0  0  0  0  0  0  0
   32.6419    9.4440    6.4171 N   0  0  0  0  0  0  0  0  0  0  0  0
   32.1874   10.7074    6.6426 C   0  0  0  0  0  0  0  0  0  0  0  0
   32.7723   11.8410    5.8573 C   0  0  0  0  0  0  0  0  0  0  0  0
  1  2  1  0
  2  3  1  0
  3  4  2  0
  3  5  1  0
  5  6  1  0
  6  7  2  0
  7  8  1  0
  7  9  1  0
  9 10  1  0
 10 11  2  0
 11 12  1  0
 11  6  1  0
A    1
 C1 
A    2
 N1 
A    3
 C2 
A    4
 O1 
A    5
 N2 
A    6
 C3 
A    7
 C4 
A    8
 C5 
A    9
 N3 
A   10
 N4 
A   11
 C6 
A   12
 C7 
M  END
>  <ref_pdb>  (10) 
Ax0310a

>  <ref_mols>  (10) 
Ax0310a,Ax0365a

>  <original SMILES>  (10) 
CNC(=O)Nc1c(C)n[nH]c1C

>  <rationale>  (10) 
info halogenbond:G127+A86+E85+Q95+E106+E88+T126+P107+H104+Y64+C65+S87+N129+F83+R93+L131+I82+G128+P91+H21+V84+G133+Y90+Y89+H97+L81+F134+L98+R20+G103+S66+S67+S7+G108+R38+V124+M99+S36; hbond:S125+G127+D39+G108+G103+G130+N19+R68+V124+R93+P91+F83+S7+S66+G112+V132+R20+Y89+S77+A135+Y63+A92+A101+M99+F134+L100+I82+Y64+S36+L98+V84+L81+Y94+S80+R38+S37+V102+G8+I123+G111+I113+L114+C65+L22+S96; hydroph_interaction:V124+P107+L22+N129+D39+N19+L40+I123+A135+Q95+I82+L98+L131+F83+R93+H104+R20+A86+V74+P91+A101+F76+M99+L114+A92+Y94+R68+Y72+Y64+V18+V102+W28+G127+G128+L81; pication:H104+R93+Y63+F134+Y90+R68+F83+R20; pistack:Y89+Y90+H104+F134+Y63+F83+Y94; saltbridge:R93+H104+E106+E85+E88+R68+R20; 

>  <intxn_cluster>  (10) 
-1

>  <intxn_cluster_rank>  (10) 
-1

>  <N_interactions>  (10) 
5

>  <∆∆G>  (10) 
-9.882702

>  <$/mg>  (10) 
0.0

>  <comRMSD>  (10) 
0.536

>  <N_rotatable_bonds>  (10) 
4

>  <deep_P1_sidechain>  (10) 
nan

>  <farthest_distance_to_substrate>  (10) 
2.563915

>  <hbond:SER:7>  (10) 
hbond:SER:7    NaN
hbond:SER:7     -1
Name: 8, dtype: object

>  <halogenbond:SER:7>  (10) 
halogenbond:SER:7    NaN
halogenbond:SER:7     -1
Name: 8, dtype: object

>  <hbond:GLY:8>  (10) 
hbond:GLY:8    NaN
hbond:GLY:8     -1
Name: 8, dtype: object

>  <hydroph_interaction:VAL:18>  (10) 
hydroph_interaction:VAL:18    NaN
hydroph_interaction:VAL:18     -1
Name: 8, dtype: object

>  <hbond:ASN:19>  (10) 
hbond:ASN:19    NaN
hbond:ASN:19     -1
Name: 8, dtype: object

>  <hydroph_interaction:ASN:19>  (10) 
hydroph_interaction:ASN:19    NaN
hydroph_interaction:ASN:19     -1
Name: 8, dtype: object

>  <halogenbond:ASN:19>  (10) 
halogenbond:ASN:19    0.0
halogenbond:ASN:19      0
Name: 8, dtype: object

>  <hbond:ARG:20>  (10) 
hbond:ARG:20    NaN
hbond:ARG:20     -1
Name: 8, dtype: object

>  <hydroph_interaction:ARG:20>  (10) 
hydroph_interaction:ARG:20    NaN
hydroph_interaction:ARG:20     -1
Name: 8, dtype: object

>  <saltbridge:ARG:20>  (10) 
saltbridge:ARG:20    NaN
saltbridge:ARG:20     -1
Name: 8, dtype: object

>  <halogenbond:ARG:20>  (10) 
halogenbond:ARG:20    NaN
halogenbond:ARG:20     -1
Name: 8, dtype: object

>  <pication:ARG:20>  (10) 
pication:ARG:20    NaN
pication:ARG:20     -1
Name: 8, dtype: object

>  <hbond:HIS:21>  (10) 
hbond:HIS:21    0.0
hbond:HIS:21      0
Name: 8, dtype: object

>  <hydroph_interaction:HIS:21>  (10) 
hydroph_interaction:HIS:21    0.0
hydroph_interaction:HIS:21      0
Name: 8, dtype: object

>  <pistack:HIS:21>  (10) 
pistack:HIS:21    0.0
pistack:HIS:21      0
Name: 8, dtype: object

>  <pication:HIS:21>  (10) 
pication:HIS:21    0.0
pication:HIS:21      0
Name: 8, dtype: object

>  <saltbridge:HIS:21>  (10) 
saltbridge:HIS:21    0.0
saltbridge:HIS:21      0
Name: 8, dtype: object

>  <halogenbond:HIS:21>  (10) 
halogenbond:HIS:21    NaN
halogenbond:HIS:21     -1
Name: 8, dtype: object

>  <hydroph_interaction:LEU:22>  (10) 
hydroph_interaction:LEU:22    NaN
hydroph_interaction:LEU:22     -1
Name: 8, dtype: object

>  <hbond:LEU:22>  (10) 
hbond:LEU:22    NaN
hbond:LEU:22     -1
Name: 8, dtype: object

>  <hydroph_interaction:TRP:28>  (10) 
hydroph_interaction:TRP:28    NaN
hydroph_interaction:TRP:28     -1
Name: 8, dtype: object

>  <hbond:SER:36>  (10) 
hbond:SER:36    NaN
hbond:SER:36     -1
Name: 8, dtype: object

>  <halogenbond:SER:36>  (10) 
halogenbond:SER:36    NaN
halogenbond:SER:36     -1
Name: 8, dtype: object

>  <hbond:SER:37>  (10) 
hbond:SER:37    NaN
hbond:SER:37     -1
Name: 8, dtype: object

>  <hbond:ARG:38>  (10) 
hbond:ARG:38    NaN
hbond:ARG:38     -1
Name: 8, dtype: object

>  <halogenbond:ARG:38>  (10) 
halogenbond:ARG:38    NaN
halogenbond:ARG:38     -1
Name: 8, dtype: object

>  <saltbridge:ASP:39>  (10) 
saltbridge:ASP:39    0.0
saltbridge:ASP:39      0
Name: 8, dtype: object

>  <halogenbond:ASP:39>  (10) 
halogenbond:ASP:39    0.0
halogenbond:ASP:39      0
Name: 8, dtype: object

>  <hbond:ASP:39>  (10) 
hbond:ASP:39    NaN
hbond:ASP:39     -1
Name: 8, dtype: object

>  <hydroph_interaction:ASP:39>  (10) 
hydroph_interaction:ASP:39    NaN
hydroph_interaction:ASP:39     -1
Name: 8, dtype: object

>  <hydroph_interaction:LEU:40>  (10) 
hydroph_interaction:LEU:40    NaN
hydroph_interaction:LEU:40     -1
Name: 8, dtype: object

>  <hydroph_interaction:TYR:63>  (10) 
hydroph_interaction:TYR:63    0.0
hydroph_interaction:TYR:63      0
Name: 8, dtype: object

>  <hbond:TYR:63>  (10) 
hbond:TYR:63    NaN
hbond:TYR:63     -1
Name: 8, dtype: object

>  <pistack:TYR:63>  (10) 
pistack:TYR:63    NaN
pistack:TYR:63     -1
Name: 8, dtype: object

>  <pication:TYR:63>  (10) 
pication:TYR:63    NaN
pication:TYR:63     -1
Name: 8, dtype: object

>  <halogenbond:TYR:64>  (10) 
halogenbond:TYR:64    NaN
halogenbond:TYR:64     -1
Name: 8, dtype: object

>  <hbond:TYR:64>  (10) 
hbond:TYR:64    NaN
hbond:TYR:64     -1
Name: 8, dtype: object

>  <hydroph_interaction:TYR:64>  (10) 
hydroph_interaction:TYR:64    NaN
hydroph_interaction:TYR:64     -1
Name: 8, dtype: object

>  <halogenbond:CYS:65>  (10) 
halogenbond:CYS:65    NaN
halogenbond:CYS:65     -1
Name: 8, dtype: object

>  <hbond:CYS:65>  (10) 
hbond:CYS:65    NaN
hbond:CYS:65     -1
Name: 8, dtype: object

>  <hbond:SER:66>  (10) 
hbond:SER:66    NaN
hbond:SER:66     -1
Name: 8, dtype: object

>  <halogenbond:SER:66>  (10) 
halogenbond:SER:66    NaN
halogenbond:SER:66     -1
Name: 8, dtype: object

>  <hbond:SER:67>  (10) 
hbond:SER:67    0.0
hbond:SER:67      0
Name: 8, dtype: object

>  <halogenbond:SER:67>  (10) 
halogenbond:SER:67    NaN
halogenbond:SER:67     -1
Name: 8, dtype: object

>  <hbond:ARG:68>  (10) 
hbond:ARG:68    NaN
hbond:ARG:68     -1
Name: 8, dtype: object

>  <saltbridge:ARG:68>  (10) 
saltbridge:ARG:68    NaN
saltbridge:ARG:68     -1
Name: 8, dtype: object

>  <hydroph_interaction:ARG:68>  (10) 
hydroph_interaction:ARG:68    NaN
hydroph_interaction:ARG:68     -1
Name: 8, dtype: object

>  <pication:ARG:68>  (10) 
pication:ARG:68    NaN
pication:ARG:68     -1
Name: 8, dtype: object

>  <hydroph_interaction:TYR:72>  (10) 
hydroph_interaction:TYR:72    NaN
hydroph_interaction:TYR:72     -1
Name: 8, dtype: object

>  <hydroph_interaction:VAL:74>  (10) 
hydroph_interaction:VAL:74    NaN
hydroph_interaction:VAL:74     -1
Name: 8, dtype: object

>  <hydroph_interaction:PHE:76>  (10) 
hydroph_interaction:PHE:76    NaN
hydroph_interaction:PHE:76     -1
Name: 8, dtype: object

>  <hbond:SER:77>  (10) 
hbond:SER:77    NaN
hbond:SER:77     -1
Name: 8, dtype: object

>  <hbond:SER:80>  (10) 
hbond:SER:80    NaN
hbond:SER:80     -1
Name: 8, dtype: object

>  <hbond:LEU:81>  (10) 
hbond:LEU:81    NaN
hbond:LEU:81     -1
Name: 8, dtype: object

>  <halogenbond:LEU:81>  (10) 
halogenbond:LEU:81    NaN
halogenbond:LEU:81     -1
Name: 8, dtype: object

>  <hydroph_interaction:LEU:81>  (10) 
hydroph_interaction:LEU:81    NaN
hydroph_interaction:LEU:81     -1
Name: 8, dtype: object

>  <hydroph_interaction:ILE:82>  (10) 
hydroph_interaction:ILE:82    NaN
hydroph_interaction:ILE:82     -1
Name: 8, dtype: object

>  <halogenbond:ILE:82>  (10) 
halogenbond:ILE:82    NaN
halogenbond:ILE:82     -1
Name: 8, dtype: object

>  <hbond:ILE:82>  (10) 
hbond:ILE:82    NaN
hbond:ILE:82     -1
Name: 8, dtype: object

>  <hbond:PHE:83>  (10) 
hbond:PHE:83    NaN
hbond:PHE:83     -1
Name: 8, dtype: object

>  <hydroph_interaction:PHE:83>  (10) 
hydroph_interaction:PHE:83    NaN
hydroph_interaction:PHE:83     -1
Name: 8, dtype: object

>  <halogenbond:PHE:83>  (10) 
halogenbond:PHE:83    NaN
halogenbond:PHE:83     -1
Name: 8, dtype: object

>  <pistack:PHE:83>  (10) 
pistack:PHE:83    NaN
pistack:PHE:83     -1
Name: 8, dtype: object

>  <pication:PHE:83>  (10) 
pication:PHE:83    NaN
pication:PHE:83     -1
Name: 8, dtype: object

>  <hydroph_interaction:VAL:84>  (10) 
hydroph_interaction:VAL:84    0.0
hydroph_interaction:VAL:84      0
Name: 8, dtype: object

>  <halogenbond:VAL:84>  (10) 
halogenbond:VAL:84    NaN
halogenbond:VAL:84     -1
Name: 8, dtype: object

>  <hbond:VAL:84>  (10) 
hbond:VAL:84    NaN
hbond:VAL:84     -1
Name: 8, dtype: object

>  <hydroph_interaction:GLU:85>  (10) 
hydroph_interaction:GLU:85    0.0
hydroph_interaction:GLU:85      0
Name: 8, dtype: object

>  <hbond:GLU:85>  (10) 
hbond:GLU:85    0.0
hbond:GLU:85      0
Name: 8, dtype: object

>  <halogenbond:GLU:85>  (10) 
halogenbond:GLU:85    NaN
halogenbond:GLU:85     -1
Name: 8, dtype: object

>  <saltbridge:GLU:85>  (10) 
saltbridge:GLU:85    NaN
saltbridge:GLU:85     -1
Name: 8, dtype: object

>  <halogenbond:ALA:86>  (10) 
halogenbond:ALA:86    NaN
halogenbond:ALA:86     -1
Name: 8, dtype: object

>  <hbond:ALA:86>  (10) 
hbond:ALA:86    0.0
hbond:ALA:86      0
Name: 8, dtype: object

>  <hydroph_interaction:ALA:86>  (10) 
hydroph_interaction:ALA:86    NaN
hydroph_interaction:ALA:86     -1
Name: 8, dtype: object

>  <hbond:SER:87>  (10) 
hbond:SER:87    0
hbond:SER:87    0
Name: 8, dtype: object

>  <halogenbond:SER:87>  (10) 
halogenbond:SER:87    NaN
halogenbond:SER:87     -1
Name: 8, dtype: object

>  <hbond:GLU:88>  (10) 
hbond:GLU:88    0.0
hbond:GLU:88      0
Name: 8, dtype: object

>  <hydroph_interaction:GLU:88>  (10) 
hydroph_interaction:GLU:88    0.0
hydroph_interaction:GLU:88      0
Name: 8, dtype: object

>  <halogenbond:GLU:88>  (10) 
halogenbond:GLU:88    NaN
halogenbond:GLU:88     -1
Name: 8, dtype: object

>  <saltbridge:GLU:88>  (10) 
saltbridge:GLU:88    NaN
saltbridge:GLU:88     -1
Name: 8, dtype: object

>  <hydroph_interaction:TYR:89>  (10) 
hydroph_interaction:TYR:89    0.0
hydroph_interaction:TYR:89      0
Name: 8, dtype: object

>  <pistack:TYR:89>  (10) 
pistack:TYR:89    NaN
pistack:TYR:89     -1
Name: 8, dtype: object

>  <hbond:TYR:89>  (10) 
hbond:TYR:89    NaN
hbond:TYR:89     -1
Name: 8, dtype: object

>  <halogenbond:TYR:89>  (10) 
halogenbond:TYR:89    NaN
halogenbond:TYR:89     -1
Name: 8, dtype: object

>  <hydroph_interaction:TYR:90>  (10) 
hydroph_interaction:TYR:90    0.0
hydroph_interaction:TYR:90      0
Name: 8, dtype: object

>  <hbond:TYR:90>  (10) 
hbond:TYR:90    0.0
hbond:TYR:90      0
Name: 8, dtype: object

>  <pistack:TYR:90>  (10) 
pistack:TYR:90    NaN
pistack:TYR:90     -1
Name: 8, dtype: object

>  <halogenbond:TYR:90>  (10) 
halogenbond:TYR:90    NaN
halogenbond:TYR:90     -1
Name: 8, dtype: object

>  <pication:TYR:90>  (10) 
pication:TYR:90    NaN
pication:TYR:90     -1
Name: 8, dtype: object

>  <hbond:PRO:91>  (10) 
hbond:PRO:91    NaN
hbond:PRO:91     -1
Name: 8, dtype: object

>  <hydroph_interaction:PRO:91>  (10) 
hydroph_interaction:PRO:91    NaN
hydroph_interaction:PRO:91     -1
Name: 8, dtype: object

>  <halogenbond:PRO:91>  (10) 
halogenbond:PRO:91    NaN
halogenbond:PRO:91     -1
Name: 8, dtype: object

>  <hbond:ALA:92>  (10) 
hbond:ALA:92    NaN
hbond:ALA:92     -1
Name: 8, dtype: object

>  <hydroph_interaction:ALA:92>  (10) 
hydroph_interaction:ALA:92    NaN
hydroph_interaction:ALA:92     -1
Name: 8, dtype: object

>  <saltbridge:ARG:93>  (10) 
saltbridge:ARG:93    NaN
saltbridge:ARG:93     -1
Name: 8, dtype: object

>  <hbond:ARG:93>  (10) 
hbond:ARG:93    NaN
hbond:ARG:93     -1
Name: 8, dtype: object

>  <hydroph_interaction:ARG:93>  (10) 
hydroph_interaction:ARG:93    NaN
hydroph_interaction:ARG:93     -1
Name: 8, dtype: object

>  <halogenbond:ARG:93>  (10) 
halogenbond:ARG:93    NaN
halogenbond:ARG:93     -1
Name: 8, dtype: object

>  <pication:ARG:93>  (10) 
pication:ARG:93    NaN
pication:ARG:93     -1
Name: 8, dtype: object

>  <hydroph_interaction:TYR:94>  (10) 
hydroph_interaction:TYR:94    NaN
hydroph_interaction:TYR:94     -1
Name: 8, dtype: object

>  <pistack:TYR:94>  (10) 
pistack:TYR:94    NaN
pistack:TYR:94     -1
Name: 8, dtype: object

>  <hbond:TYR:94>  (10) 
hbond:TYR:94    NaN
hbond:TYR:94     -1
Name: 8, dtype: object

>  <hbond:GLN:95>  (10) 
hbond:GLN:95    0.0
hbond:GLN:95      0
Name: 8, dtype: object

>  <hydroph_interaction:GLN:95>  (10) 
hydroph_interaction:GLN:95    NaN
hydroph_interaction:GLN:95     -1
Name: 8, dtype: object

>  <halogenbond:GLN:95>  (10) 
halogenbond:GLN:95    NaN
halogenbond:GLN:95     -1
Name: 8, dtype: object

>  <hbond:SER:96>  (10) 
hbond:SER:96    NaN
hbond:SER:96     -1
Name: 8, dtype: object

>  <halogenbond:HIS:97>  (10) 
halogenbond:HIS:97    NaN
halogenbond:HIS:97     -1
Name: 8, dtype: object

>  <hydroph_interaction:LEU:98>  (10) 
hydroph_interaction:LEU:98    NaN
hydroph_interaction:LEU:98     -1
Name: 8, dtype: object

>  <hbond:LEU:98>  (10) 
hbond:LEU:98    NaN
hbond:LEU:98     -1
Name: 8, dtype: object

>  <halogenbond:LEU:98>  (10) 
halogenbond:LEU:98    NaN
halogenbond:LEU:98     -1
Name: 8, dtype: object

>  <hbond:MET:99>  (10) 
hbond:MET:99    NaN
hbond:MET:99     -1
Name: 8, dtype: object

>  <hydroph_interaction:MET:99>  (10) 
hydroph_interaction:MET:99    NaN
hydroph_interaction:MET:99     -1
Name: 8, dtype: object

>  <halogenbond:MET:99>  (10) 
halogenbond:MET:99    NaN
halogenbond:MET:99     -1
Name: 8, dtype: object

>  <hydroph_interaction:LEU:100>  (10) 
hydroph_interaction:LEU:100    0.0
hydroph_interaction:LEU:100      0
Name: 8, dtype: object

>  <hbond:LEU:100>  (10) 
hbond:LEU:100    NaN
hbond:LEU:100     -1
Name: 8, dtype: object

>  <hbond:ALA:101>  (10) 
hbond:ALA:101    NaN
hbond:ALA:101     -1
Name: 8, dtype: object

>  <hydroph_interaction:ALA:101>  (10) 
hydroph_interaction:ALA:101    NaN
hydroph_interaction:ALA:101     -1
Name: 8, dtype: object

>  <hydroph_interaction:VAL:102>  (10) 
hydroph_interaction:VAL:102    NaN
hydroph_interaction:VAL:102     -1
Name: 8, dtype: object

>  <hbond:VAL:102>  (10) 
hbond:VAL:102    NaN
hbond:VAL:102     -1
Name: 8, dtype: object

>  <hbond:GLY:103>  (10) 
hbond:GLY:103    NaN
hbond:GLY:103     -1
Name: 8, dtype: object

>  <halogenbond:GLY:103>  (10) 
halogenbond:GLY:103    NaN
halogenbond:GLY:103     -1
Name: 8, dtype: object

>  <hbond:HIS:104>  (10) 
hbond:HIS:104    0.0
hbond:HIS:104      0
Name: 8, dtype: object

>  <saltbridge:HIS:104>  (10) 
saltbridge:HIS:104    NaN
saltbridge:HIS:104     -1
Name: 8, dtype: object

>  <pication:HIS:104>  (10) 
pication:HIS:104    NaN
pication:HIS:104     -1
Name: 8, dtype: object

>  <halogenbond:HIS:104>  (10) 
halogenbond:HIS:104    NaN
halogenbond:HIS:104     -1
Name: 8, dtype: object

>  <hydroph_interaction:HIS:104>  (10) 
hydroph_interaction:HIS:104    NaN
hydroph_interaction:HIS:104     -1
Name: 8, dtype: object

>  <pistack:HIS:104>  (10) 
pistack:HIS:104    NaN
pistack:HIS:104     -1
Name: 8, dtype: object

>  <halogenbond:SER:105>  (10) 
halogenbond:SER:105    0.0
halogenbond:SER:105      0
Name: 8, dtype: object

>  <hbond:SER:105>  (10) 
hbond:SER:105    0.0
hbond:SER:105      0
Name: 8, dtype: object

>  <hbond:GLU:106>  (10) 
hbond:GLU:106    0.0
hbond:GLU:106      0
Name: 8, dtype: object

>  <hydroph_interaction:GLU:106>  (10) 
hydroph_interaction:GLU:106    0.0
hydroph_interaction:GLU:106      0
Name: 8, dtype: object

>  <saltbridge:GLU:106>  (10) 
saltbridge:GLU:106    NaN
saltbridge:GLU:106     -1
Name: 8, dtype: object

>  <halogenbond:GLU:106>  (10) 
halogenbond:GLU:106    NaN
halogenbond:GLU:106     -1
Name: 8, dtype: object

>  <hydroph_interaction:PRO:107>  (10) 
hydroph_interaction:PRO:107    1
hydroph_interaction:PRO:107    1
Name: 8, dtype: object

>  <hbond:PRO:107>  (10) 
hbond:PRO:107    0.0
hbond:PRO:107      0
Name: 8, dtype: object

>  <halogenbond:PRO:107>  (10) 
halogenbond:PRO:107    NaN
halogenbond:PRO:107     -1
Name: 8, dtype: object

>  <hbond:GLY:108>  (10) 
hbond:GLY:108    NaN
hbond:GLY:108     -1
Name: 8, dtype: object

>  <halogenbond:GLY:108>  (10) 
halogenbond:GLY:108    NaN
halogenbond:GLY:108     -1
Name: 8, dtype: object

>  <hbond:ASP:109>  (10) 
hbond:ASP:109    0.0
hbond:ASP:109      0
Name: 8, dtype: object

>  <hydroph_interaction:ASP:109>  (10) 
hydroph_interaction:ASP:109    0.0
hydroph_interaction:ASP:109      0
Name: 8, dtype: object

>  <saltbridge:ASP:109>  (10) 
saltbridge:ASP:109    0.0
saltbridge:ASP:109      0
Name: 8, dtype: object

>  <halogenbond:CYS:110>  (10) 
halogenbond:CYS:110    0.0
halogenbond:CYS:110      0
Name: 8, dtype: object

>  <hbond:CYS:110>  (10) 
hbond:CYS:110    0.0
hbond:CYS:110      0
Name: 8, dtype: object

>  <hbond:GLY:111>  (10) 
hbond:GLY:111    NaN
hbond:GLY:111     -1
Name: 8, dtype: object

>  <hbond:GLY:112>  (10) 
hbond:GLY:112    NaN
hbond:GLY:112     -1
Name: 8, dtype: object

>  <hbond:ILE:113>  (10) 
hbond:ILE:113    NaN
hbond:ILE:113     -1
Name: 8, dtype: object

>  <hydroph_interaction:LEU:114>  (10) 
hydroph_interaction:LEU:114    NaN
hydroph_interaction:LEU:114     -1
Name: 8, dtype: object

>  <hbond:LEU:114>  (10) 
hbond:LEU:114    NaN
hbond:LEU:114     -1
Name: 8, dtype: object

>  <hydroph_interaction:ILE:123>  (10) 
hydroph_interaction:ILE:123    NaN
hydroph_interaction:ILE:123     -1
Name: 8, dtype: object

>  <hbond:ILE:123>  (10) 
hbond:ILE:123    NaN
hbond:ILE:123     -1
Name: 8, dtype: object

>  <hydroph_interaction:VAL:124>  (10) 
hydroph_interaction:VAL:124    1.0
hydroph_interaction:VAL:124      1
Name: 8, dtype: object

>  <hbond:VAL:124>  (10) 
hbond:VAL:124    NaN
hbond:VAL:124     -1
Name: 8, dtype: object

>  <halogenbond:VAL:124>  (10) 
halogenbond:VAL:124    NaN
halogenbond:VAL:124     -1
Name: 8, dtype: object

>  <hbond:SER:125>  (10) 
hbond:SER:125    2
hbond:SER:125    2
Name: 8, dtype: object

>  <halogenbond:SER:125>  (10) 
halogenbond:SER:125    0.0
halogenbond:SER:125      0
Name: 8, dtype: object

>  <hydroph_interaction:THR:126>  (10) 
hydroph_interaction:THR:126    0.0
hydroph_interaction:THR:126      0
Name: 8, dtype: object

>  <hbond:THR:126>  (10) 
hbond:THR:126    0.0
hbond:THR:126      0
Name: 8, dtype: object

>  <halogenbond:THR:126>  (10) 
halogenbond:THR:126    NaN
halogenbond:THR:126     -1
Name: 8, dtype: object

>  <hbond:GLY:127>  (10) 
hbond:GLY:127    1
hbond:GLY:127    1
Name: 8, dtype: object

>  <halogenbond:GLY:127>  (10) 
halogenbond:GLY:127    NaN
halogenbond:GLY:127     -1
Name: 8, dtype: object

>  <hydroph_interaction:GLY:127>  (10) 
hydroph_interaction:GLY:127    NaN
hydroph_interaction:GLY:127     -1
Name: 8, dtype: object

>  <hbond:GLY:128>  (10) 
hbond:GLY:128    0.0
hbond:GLY:128      0
Name: 8, dtype: object

>  <halogenbond:GLY:128>  (10) 
halogenbond:GLY:128    NaN
halogenbond:GLY:128     -1
Name: 8, dtype: object

>  <hydroph_interaction:GLY:128>  (10) 
hydroph_interaction:GLY:128    NaN
hydroph_interaction:GLY:128     -1
Name: 8, dtype: object

>  <hbond:ASN:129>  (10) 
hbond:ASN:129    0.0
hbond:ASN:129      0
Name: 8, dtype: object

>  <hydroph_interaction:ASN:129>  (10) 
hydroph_interaction:ASN:129    NaN
hydroph_interaction:ASN:129     -1
Name: 8, dtype: object

>  <halogenbond:ASN:129>  (10) 
halogenbond:ASN:129    NaN
halogenbond:ASN:129     -1
Name: 8, dtype: object

>  <hbond:GLY:130>  (10) 
hbond:GLY:130    NaN
hbond:GLY:130     -1
Name: 8, dtype: object

>  <hbond:LEU:131>  (10) 
hbond:LEU:131    0.0
hbond:LEU:131      0
Name: 8, dtype: object

>  <hydroph_interaction:LEU:131>  (10) 
hydroph_interaction:LEU:131    NaN
hydroph_interaction:LEU:131     -1
Name: 8, dtype: object

>  <halogenbond:LEU:131>  (10) 
halogenbond:LEU:131    NaN
halogenbond:LEU:131     -1
Name: 8, dtype: object

>  <hydroph_interaction:VAL:132>  (10) 
hydroph_interaction:VAL:132    0.0
hydroph_interaction:VAL:132      0
Name: 8, dtype: object

>  <hbond:VAL:132>  (10) 
hbond:VAL:132    NaN
hbond:VAL:132     -1
Name: 8, dtype: object

>  <hbond:GLY:133>  (10) 
hbond:GLY:133    0.0
hbond:GLY:133      0
Name: 8, dtype: object

>  <halogenbond:GLY:133>  (10) 
halogenbond:GLY:133    NaN
halogenbond:GLY:133     -1
Name: 8, dtype: object

>  <hydroph_interaction:PHE:134>  (10) 
hydroph_interaction:PHE:134    0.0
hydroph_interaction:PHE:134      0
Name: 8, dtype: object

>  <hbond:PHE:134>  (10) 
hbond:PHE:134    NaN
hbond:PHE:134     -1
Name: 8, dtype: object

>  <pistack:PHE:134>  (10) 
pistack:PHE:134    NaN
pistack:PHE:134     -1
Name: 8, dtype: object

>  <pication:PHE:134>  (10) 
pication:PHE:134    NaN
pication:PHE:134     -1
Name: 8, dtype: object

>  <halogenbond:PHE:134>  (10) 
halogenbond:PHE:134    NaN
halogenbond:PHE:134     -1
Name: 8, dtype: object

>  <hydroph_interaction:ALA:135>  (10) 
hydroph_interaction:ALA:135    NaN
hydroph_interaction:ALA:135     -1
Name: 8, dtype: object

>  <hbond:ALA:135>  (10) 
hbond:ALA:135    NaN
hbond:ALA:135     -1
Name: 8, dtype: object

$$$$
Z432809230
     RDKit          3D

 14 14  0  0  0  0  0  0  0  0999 V2000
   28.7489   15.6903    8.0945 C   0  0  0  0  0  0  0  0  0  0  0  0
   27.7666   14.6377    8.5030 C   0  0  0  0  0  0  0  0  0  0  0  0
   28.1700   13.3561    7.9888 N   0  0  0  0  0  0  0  0  0  0  0  0
   29.3642   13.1880    7.3037 C   0  0  0  0  0  0  0  0  0  0  0  0
   29.5077   13.4020    6.1071 O   0  0  0  0  0  0  0  0  0  0  0  0
   30.4173   12.7226    8.1698 C   0  0  2  0  0  0  0  0  0  0  0  0
   31.4070   13.7189    8.4714 O   0  0  0  0  0  0  0  0  0  0  0  0
   31.1696   14.3725    9.7168 C   0  0  0  0  0  0  0  0  0  0  0  0
   31.0753   11.4561    7.6707 C   0  0  0  0  0  0  0  0  0  0  0  0
   30.6855   10.2213    8.2111 C   0  0  0  0  0  0  0  0  0  0  0  0
   31.2781    9.0581    7.7736 C   0  0  0  0  0  0  0  0  0  0  0  0
   32.2672    9.1211    6.7953 C   0  0  0  0  0  0  0  0  0  0  0  0
   32.6631   10.3322    6.2494 C   0  0  0  0  0  0  0  0  0  0  0  0
   32.0678   11.5026    6.6865 C   0  0  0  0  0  0  0  0  0  0  0  0
  1  2  1  0
  2  3  1  0
  3  4  1  0
  4  5  2  0
  4  6  1  0
  6  7  1  6
  7  8  1  0
  6  9  1  0
  9 10  2  0
 10 11  1  0
 11 12  2  0
 12 13  1  0
 13 14  2  0
 14  9  1  0
A    1
 C1 
A    2
 C2 
A    3
 N1 
A    4
 C3 
A    5
 O1 
A    6
 C4 
A    7
 O2 
A    8
 C5 
A    9
 C6 
A   10
 C7 
A   11
 C8 
A   12
 C9 
A   13
 C10
A   14
 C11
M  END
>  <ref_pdb>  (11) 
Ax0310a

>  <ref_mols>  (11) 
Ax0554a,Ax0310a

>  <original SMILES>  (11) 
CCNC(=O)C(OC)c1ccccc1

>  <rationale>  (11) 
info halogenbond:C110+G127+D39+A86+S125+E85+Q95+E106+E88+T126+P107+H104+Y64+C65+S87+N129+F83+R93+L131+I82+G128+P91+N19+H21+V84+G133+Y90+Y89+H97+L81+F134+L98+R20+G103+S66+S67+S7+G108+R38+V124+M99+S36; hbond:S87+H21+G108+G103+G128+G130+L131+H104+R68+V124+R93+P91+F83+S67+S7+S66+G112+G133+V132+R20+Y89+S77+A135+Y63+A92+A101+M99+F134+L100+I82+Y64+S36+L98+V84+L81+Y94+S80+R38+S37+V102+G8+I123+G111+I113+L114+C65+L22+S96; hydroph_interaction:Y90+Y89+P107+N129+D39+L40+I123+A135+Q95+I82+L100+L98+L131+F83+R93+V132+Y63+F134+H104+R20+A86+V74+P91+A101+F76+M99+L114+A92+Y94+R68+Y72+Y64+V18+V102+W28+G127+G128+L81; pication:H104+R93+Y63+F134+Y90+R68+F83+R20; pistack:H21+Y89+Y90+H104+F134+Y63+F83+Y94; saltbridge:R93+H104+E106+D109+E85+E88+R68+R20; 

>  <intxn_cluster>  (11) 
-1

>  <intxn_cluster_rank>  (11) 
-1

>  <N_interactions>  (11) 
5

>  <∆∆G>  (11) 
-9.897558

>  <$/mg>  (11) 
163.0

>  <comRMSD>  (11) 
0.757563

>  <N_rotatable_bonds>  (11) 
6

>  <deep_P1_sidechain>  (11) 
nan

>  <farthest_distance_to_substrate>  (11) 
2.391989

>  <hbond:SER:7>  (11) 
hbond:SER:7    NaN
hbond:SER:7     -1
Name: 9, dtype: object

>  <halogenbond:SER:7>  (11) 
halogenbond:SER:7    NaN
halogenbond:SER:7     -1
Name: 9, dtype: object

>  <hbond:GLY:8>  (11) 
hbond:GLY:8    NaN
hbond:GLY:8     -1
Name: 9, dtype: object

>  <hydroph_interaction:VAL:18>  (11) 
hydroph_interaction:VAL:18    NaN
hydroph_interaction:VAL:18     -1
Name: 9, dtype: object

>  <hbond:ASN:19>  (11) 
hbond:ASN:19    0.0
hbond:ASN:19      0
Name: 9, dtype: object

>  <hydroph_interaction:ASN:19>  (11) 
hydroph_interaction:ASN:19    0.0
hydroph_interaction:ASN:19      0
Name: 9, dtype: object

>  <halogenbond:ASN:19>  (11) 
halogenbond:ASN:19    NaN
halogenbond:ASN:19     -1
Name: 9, dtype: object

>  <hbond:ARG:20>  (11) 
hbond:ARG:20    NaN
hbond:ARG:20     -1
Name: 9, dtype: object

>  <hydroph_interaction:ARG:20>  (11) 
hydroph_interaction:ARG:20    NaN
hydroph_interaction:ARG:20     -1
Name: 9, dtype: object

>  <saltbridge:ARG:20>  (11) 
saltbridge:ARG:20    NaN
saltbridge:ARG:20     -1
Name: 9, dtype: object

>  <halogenbond:ARG:20>  (11) 
halogenbond:ARG:20    NaN
halogenbond:ARG:20     -1
Name: 9, dtype: object

>  <pication:ARG:20>  (11) 
pication:ARG:20    NaN
pication:ARG:20     -1
Name: 9, dtype: object

>  <hbond:HIS:21>  (11) 
hbond:HIS:21    1.0
hbond:HIS:21      1
Name: 9, dtype: object

>  <hydroph_interaction:HIS:21>  (11) 
hydroph_interaction:HIS:21    0.0
hydroph_interaction:HIS:21      0
Name: 9, dtype: object

>  <pistack:HIS:21>  (11) 
pistack:HIS:21    NaN
pistack:HIS:21     -1
Name: 9, dtype: object

>  <pication:HIS:21>  (11) 
pication:HIS:21    0.0
pication:HIS:21      0
Name: 9, dtype: object

>  <saltbridge:HIS:21>  (11) 
saltbridge:HIS:21    0.0
saltbridge:HIS:21      0
Name: 9, dtype: object

>  <halogenbond:HIS:21>  (11) 
halogenbond:HIS:21    NaN
halogenbond:HIS:21     -1
Name: 9, dtype: object

>  <hydroph_interaction:LEU:22>  (11) 
hydroph_interaction:LEU:22    0.0
hydroph_interaction:LEU:22      0
Name: 9, dtype: object

>  <hbond:LEU:22>  (11) 
hbond:LEU:22    NaN
hbond:LEU:22     -1
Name: 9, dtype: object

>  <hydroph_interaction:TRP:28>  (11) 
hydroph_interaction:TRP:28    NaN
hydroph_interaction:TRP:28     -1
Name: 9, dtype: object

>  <hbond:SER:36>  (11) 
hbond:SER:36    NaN
hbond:SER:36     -1
Name: 9, dtype: object

>  <halogenbond:SER:36>  (11) 
halogenbond:SER:36    NaN
halogenbond:SER:36     -1
Name: 9, dtype: object

>  <hbond:SER:37>  (11) 
hbond:SER:37    NaN
hbond:SER:37     -1
Name: 9, dtype: object

>  <hbond:ARG:38>  (11) 
hbond:ARG:38    NaN
hbond:ARG:38     -1
Name: 9, dtype: object

>  <halogenbond:ARG:38>  (11) 
halogenbond:ARG:38    NaN
halogenbond:ARG:38     -1
Name: 9, dtype: object

>  <saltbridge:ASP:39>  (11) 
saltbridge:ASP:39    0.0
saltbridge:ASP:39      0
Name: 9, dtype: object

>  <halogenbond:ASP:39>  (11) 
halogenbond:ASP:39    NaN
halogenbond:ASP:39     -1
Name: 9, dtype: object

>  <hbond:ASP:39>  (11) 
hbond:ASP:39    0.0
hbond:ASP:39      0
Name: 9, dtype: object

>  <hydroph_interaction:ASP:39>  (11) 
hydroph_interaction:ASP:39    NaN
hydroph_interaction:ASP:39     -1
Name: 9, dtype: object

>  <hydroph_interaction:LEU:40>  (11) 
hydroph_interaction:LEU:40    NaN
hydroph_interaction:LEU:40     -1
Name: 9, dtype: object

>  <hydroph_interaction:TYR:63>  (11) 
hydroph_interaction:TYR:63    NaN
hydroph_interaction:TYR:63     -1
Name: 9, dtype: object

>  <hbond:TYR:63>  (11) 
hbond:TYR:63    NaN
hbond:TYR:63     -1
Name: 9, dtype: object

>  <pistack:TYR:63>  (11) 
pistack:TYR:63    NaN
pistack:TYR:63     -1
Name: 9, dtype: object

>  <pication:TYR:63>  (11) 
pication:TYR:63    NaN
pication:TYR:63     -1
Name: 9, dtype: object

>  <halogenbond:TYR:64>  (11) 
halogenbond:TYR:64    NaN
halogenbond:TYR:64     -1
Name: 9, dtype: object

>  <hbond:TYR:64>  (11) 
hbond:TYR:64    NaN
hbond:TYR:64     -1
Name: 9, dtype: object

>  <hydroph_interaction:TYR:64>  (11) 
hydroph_interaction:TYR:64    NaN
hydroph_interaction:TYR:64     -1
Name: 9, dtype: object

>  <halogenbond:CYS:65>  (11) 
halogenbond:CYS:65    NaN
halogenbond:CYS:65     -1
Name: 9, dtype: object

>  <hbond:CYS:65>  (11) 
hbond:CYS:65    NaN
hbond:CYS:65     -1
Name: 9, dtype: object

>  <hbond:SER:66>  (11) 
hbond:SER:66    NaN
hbond:SER:66     -1
Name: 9, dtype: object

>  <halogenbond:SER:66>  (11) 
halogenbond:SER:66    NaN
halogenbond:SER:66     -1
Name: 9, dtype: object

>  <hbond:SER:67>  (11) 
hbond:SER:67    NaN
hbond:SER:67     -1
Name: 9, dtype: object

>  <halogenbond:SER:67>  (11) 
halogenbond:SER:67    NaN
halogenbond:SER:67     -1
Name: 9, dtype: object

>  <hbond:ARG:68>  (11) 
hbond:ARG:68    NaN
hbond:ARG:68     -1
Name: 9, dtype: object

>  <saltbridge:ARG:68>  (11) 
saltbridge:ARG:68    NaN
saltbridge:ARG:68     -1
Name: 9, dtype: object

>  <hydroph_interaction:ARG:68>  (11) 
hydroph_interaction:ARG:68    NaN
hydroph_interaction:ARG:68     -1
Name: 9, dtype: object

>  <pication:ARG:68>  (11) 
pication:ARG:68    NaN
pication:ARG:68     -1
Name: 9, dtype: object

>  <hydroph_interaction:TYR:72>  (11) 
hydroph_interaction:TYR:72    NaN
hydroph_interaction:TYR:72     -1
Name: 9, dtype: object

>  <hydroph_interaction:VAL:74>  (11) 
hydroph_interaction:VAL:74    NaN
hydroph_interaction:VAL:74     -1
Name: 9, dtype: object

>  <hydroph_interaction:PHE:76>  (11) 
hydroph_interaction:PHE:76    NaN
hydroph_interaction:PHE:76     -1
Name: 9, dtype: object

>  <hbond:SER:77>  (11) 
hbond:SER:77    NaN
hbond:SER:77     -1
Name: 9, dtype: object

>  <hbond:SER:80>  (11) 
hbond:SER:80    NaN
hbond:SER:80     -1
Name: 9, dtype: object

>  <hbond:LEU:81>  (11) 
hbond:LEU:81    NaN
hbond:LEU:81     -1
Name: 9, dtype: object

>  <halogenbond:LEU:81>  (11) 
halogenbond:LEU:81    NaN
halogenbond:LEU:81     -1
Name: 9, dtype: object

>  <hydroph_interaction:LEU:81>  (11) 
hydroph_interaction:LEU:81    NaN
hydroph_interaction:LEU:81     -1
Name: 9, dtype: object

>  <hydroph_interaction:ILE:82>  (11) 
hydroph_interaction:ILE:82    NaN
hydroph_interaction:ILE:82     -1
Name: 9, dtype: object

>  <halogenbond:ILE:82>  (11) 
halogenbond:ILE:82    NaN
halogenbond:ILE:82     -1
Name: 9, dtype: object

>  <hbond:ILE:82>  (11) 
hbond:ILE:82    NaN
hbond:ILE:82     -1
Name: 9, dtype: object

>  <hbond:PHE:83>  (11) 
hbond:PHE:83    NaN
hbond:PHE:83     -1
Name: 9, dtype: object

>  <hydroph_interaction:PHE:83>  (11) 
hydroph_interaction:PHE:83    NaN
hydroph_interaction:PHE:83     -1
Name: 9, dtype: object

>  <halogenbond:PHE:83>  (11) 
halogenbond:PHE:83    NaN
halogenbond:PHE:83     -1
Name: 9, dtype: object

>  <pistack:PHE:83>  (11) 
pistack:PHE:83    NaN
pistack:PHE:83     -1
Name: 9, dtype: object

>  <pication:PHE:83>  (11) 
pication:PHE:83    NaN
pication:PHE:83     -1
Name: 9, dtype: object

>  <hydroph_interaction:VAL:84>  (11) 
hydroph_interaction:VAL:84    0.0
hydroph_interaction:VAL:84      0
Name: 9, dtype: object

>  <halogenbond:VAL:84>  (11) 
halogenbond:VAL:84    NaN
halogenbond:VAL:84     -1
Name: 9, dtype: object

>  <hbond:VAL:84>  (11) 
hbond:VAL:84    NaN
hbond:VAL:84     -1
Name: 9, dtype: object

>  <hydroph_interaction:GLU:85>  (11) 
hydroph_interaction:GLU:85    0.0
hydroph_interaction:GLU:85      0
Name: 9, dtype: object

>  <hbond:GLU:85>  (11) 
hbond:GLU:85    0.0
hbond:GLU:85      0
Name: 9, dtype: object

>  <halogenbond:GLU:85>  (11) 
halogenbond:GLU:85    NaN
halogenbond:GLU:85     -1
Name: 9, dtype: object

>  <saltbridge:GLU:85>  (11) 
saltbridge:GLU:85    NaN
saltbridge:GLU:85     -1
Name: 9, dtype: object

>  <halogenbond:ALA:86>  (11) 
halogenbond:ALA:86    NaN
halogenbond:ALA:86     -1
Name: 9, dtype: object

>  <hbond:ALA:86>  (11) 
hbond:ALA:86    0.0
hbond:ALA:86      0
Name: 9, dtype: object

>  <hydroph_interaction:ALA:86>  (11) 
hydroph_interaction:ALA:86    NaN
hydroph_interaction:ALA:86     -1
Name: 9, dtype: object

>  <hbond:SER:87>  (11) 
hbond:SER:87    1
hbond:SER:87    1
Name: 9, dtype: object

>  <halogenbond:SER:87>  (11) 
halogenbond:SER:87    NaN
halogenbond:SER:87     -1
Name: 9, dtype: object

>  <hbond:GLU:88>  (11) 
hbond:GLU:88    0.0
hbond:GLU:88      0
Name: 9, dtype: object

>  <hydroph_interaction:GLU:88>  (11) 
hydroph_interaction:GLU:88    0.0
hydroph_interaction:GLU:88      0
Name: 9, dtype: object

>  <halogenbond:GLU:88>  (11) 
halogenbond:GLU:88    NaN
halogenbond:GLU:88     -1
Name: 9, dtype: object

>  <saltbridge:GLU:88>  (11) 
saltbridge:GLU:88    NaN
saltbridge:GLU:88     -1
Name: 9, dtype: object

>  <hydroph_interaction:TYR:89>  (11) 
hydroph_interaction:TYR:89    1.0
hydroph_interaction:TYR:89      1
Name: 9, dtype: object

>  <pistack:TYR:89>  (11) 
pistack:TYR:89    NaN
pistack:TYR:89     -1
Name: 9, dtype: object

>  <hbond:TYR:89>  (11) 
hbond:TYR:89    NaN
hbond:TYR:89     -1
Name: 9, dtype: object

>  <halogenbond:TYR:89>  (11) 
halogenbond:TYR:89    NaN
halogenbond:TYR:89     -1
Name: 9, dtype: object

>  <hydroph_interaction:TYR:90>  (11) 
hydroph_interaction:TYR:90    1.0
hydroph_interaction:TYR:90      1
Name: 9, dtype: object

>  <hbond:TYR:90>  (11) 
hbond:TYR:90    0.0
hbond:TYR:90      0
Name: 9, dtype: object

>  <pistack:TYR:90>  (11) 
pistack:TYR:90    NaN
pistack:TYR:90     -1
Name: 9, dtype: object

>  <halogenbond:TYR:90>  (11) 
halogenbond:TYR:90    NaN
halogenbond:TYR:90     -1
Name: 9, dtype: object

>  <pication:TYR:90>  (11) 
pication:TYR:90    NaN
pication:TYR:90     -1
Name: 9, dtype: object

>  <hbond:PRO:91>  (11) 
hbond:PRO:91    NaN
hbond:PRO:91     -1
Name: 9, dtype: object

>  <hydroph_interaction:PRO:91>  (11) 
hydroph_interaction:PRO:91    NaN
hydroph_interaction:PRO:91     -1
Name: 9, dtype: object

>  <halogenbond:PRO:91>  (11) 
halogenbond:PRO:91    NaN
halogenbond:PRO:91     -1
Name: 9, dtype: object

>  <hbond:ALA:92>  (11) 
hbond:ALA:92    NaN
hbond:ALA:92     -1
Name: 9, dtype: object

>  <hydroph_interaction:ALA:92>  (11) 
hydroph_interaction:ALA:92    NaN
hydroph_interaction:ALA:92     -1
Name: 9, dtype: object

>  <saltbridge:ARG:93>  (11) 
saltbridge:ARG:93    NaN
saltbridge:ARG:93     -1
Name: 9, dtype: object

>  <hbond:ARG:93>  (11) 
hbond:ARG:93    NaN
hbond:ARG:93     -1
Name: 9, dtype: object

>  <hydroph_interaction:ARG:93>  (11) 
hydroph_interaction:ARG:93    NaN
hydroph_interaction:ARG:93     -1
Name: 9, dtype: object

>  <halogenbond:ARG:93>  (11) 
halogenbond:ARG:93    NaN
halogenbond:ARG:93     -1
Name: 9, dtype: object

>  <pication:ARG:93>  (11) 
pication:ARG:93    NaN
pication:ARG:93     -1
Name: 9, dtype: object

>  <hydroph_interaction:TYR:94>  (11) 
hydroph_interaction:TYR:94    NaN
hydroph_interaction:TYR:94     -1
Name: 9, dtype: object

>  <pistack:TYR:94>  (11) 
pistack:TYR:94    NaN
pistack:TYR:94     -1
Name: 9, dtype: object

>  <hbond:TYR:94>  (11) 
hbond:TYR:94    NaN
hbond:TYR:94     -1
Name: 9, dtype: object

>  <hbond:GLN:95>  (11) 
hbond:GLN:95    0.0
hbond:GLN:95      0
Name: 9, dtype: object

>  <hydroph_interaction:GLN:95>  (11) 
hydroph_interaction:GLN:95    NaN
hydroph_interaction:GLN:95     -1
Name: 9, dtype: object

>  <halogenbond:GLN:95>  (11) 
halogenbond:GLN:95    NaN
halogenbond:GLN:95     -1
Name: 9, dtype: object

>  <hbond:SER:96>  (11) 
hbond:SER:96    NaN
hbond:SER:96     -1
Name: 9, dtype: object

>  <halogenbond:HIS:97>  (11) 
halogenbond:HIS:97    NaN
halogenbond:HIS:97     -1
Name: 9, dtype: object

>  <hydroph_interaction:LEU:98>  (11) 
hydroph_interaction:LEU:98    NaN
hydroph_interaction:LEU:98     -1
Name: 9, dtype: object

>  <hbond:LEU:98>  (11) 
hbond:LEU:98    NaN
hbond:LEU:98     -1
Name: 9, dtype: object

>  <halogenbond:LEU:98>  (11) 
halogenbond:LEU:98    NaN
halogenbond:LEU:98     -1
Name: 9, dtype: object

>  <hbond:MET:99>  (11) 
hbond:MET:99    NaN
hbond:MET:99     -1
Name: 9, dtype: object

>  <hydroph_interaction:MET:99>  (11) 
hydroph_interaction:MET:99    NaN
hydroph_interaction:MET:99     -1
Name: 9, dtype: object

>  <halogenbond:MET:99>  (11) 
halogenbond:MET:99    NaN
halogenbond:MET:99     -1
Name: 9, dtype: object

>  <hydroph_interaction:LEU:100>  (11) 
hydroph_interaction:LEU:100    NaN
hydroph_interaction:LEU:100     -1
Name: 9, dtype: object

>  <hbond:LEU:100>  (11) 
hbond:LEU:100    NaN
hbond:LEU:100     -1
Name: 9, dtype: object

>  <hbond:ALA:101>  (11) 
hbond:ALA:101    NaN
hbond:ALA:101     -1
Name: 9, dtype: object

>  <hydroph_interaction:ALA:101>  (11) 
hydroph_interaction:ALA:101    NaN
hydroph_interaction:ALA:101     -1
Name: 9, dtype: object

>  <hydroph_interaction:VAL:102>  (11) 
hydroph_interaction:VAL:102    NaN
hydroph_interaction:VAL:102     -1
Name: 9, dtype: object

>  <hbond:VAL:102>  (11) 
hbond:VAL:102    NaN
hbond:VAL:102     -1
Name: 9, dtype: object

>  <hbond:GLY:103>  (11) 
hbond:GLY:103    NaN
hbond:GLY:103     -1
Name: 9, dtype: object

>  <halogenbond:GLY:103>  (11) 
halogenbond:GLY:103    NaN
halogenbond:GLY:103     -1
Name: 9, dtype: object

>  <hbond:HIS:104>  (11) 
hbond:HIS:104    NaN
hbond:HIS:104     -1
Name: 9, dtype: object

>  <saltbridge:HIS:104>  (11) 
saltbridge:HIS:104    NaN
saltbridge:HIS:104     -1
Name: 9, dtype: object

>  <pication:HIS:104>  (11) 
pication:HIS:104    NaN
pication:HIS:104     -1
Name: 9, dtype: object

>  <halogenbond:HIS:104>  (11) 
halogenbond:HIS:104    NaN
halogenbond:HIS:104     -1
Name: 9, dtype: object

>  <hydroph_interaction:HIS:104>  (11) 
hydroph_interaction:HIS:104    NaN
hydroph_interaction:HIS:104     -1
Name: 9, dtype: object

>  <pistack:HIS:104>  (11) 
pistack:HIS:104    NaN
pistack:HIS:104     -1
Name: 9, dtype: object

>  <halogenbond:SER:105>  (11) 
halogenbond:SER:105    0.0
halogenbond:SER:105      0
Name: 9, dtype: object

>  <hbond:SER:105>  (11) 
hbond:SER:105    0.0
hbond:SER:105      0
Name: 9, dtype: object

>  <hbond:GLU:106>  (11) 
hbond:GLU:106    0.0
hbond:GLU:106      0
Name: 9, dtype: object

>  <hydroph_interaction:GLU:106>  (11) 
hydroph_interaction:GLU:106    0.0
hydroph_interaction:GLU:106      0
Name: 9, dtype: object

>  <saltbridge:GLU:106>  (11) 
saltbridge:GLU:106    NaN
saltbridge:GLU:106     -1
Name: 9, dtype: object

>  <halogenbond:GLU:106>  (11) 
halogenbond:GLU:106    NaN
halogenbond:GLU:106     -1
Name: 9, dtype: object

>  <hydroph_interaction:PRO:107>  (11) 
hydroph_interaction:PRO:107    1
hydroph_interaction:PRO:107    1
Name: 9, dtype: object

>  <hbond:PRO:107>  (11) 
hbond:PRO:107    0.0
hbond:PRO:107      0
Name: 9, dtype: object

>  <halogenbond:PRO:107>  (11) 
halogenbond:PRO:107    NaN
halogenbond:PRO:107     -1
Name: 9, dtype: object

>  <hbond:GLY:108>  (11) 
hbond:GLY:108    NaN
hbond:GLY:108     -1
Name: 9, dtype: object

>  <halogenbond:GLY:108>  (11) 
halogenbond:GLY:108    NaN
halogenbond:GLY:108     -1
Name: 9, dtype: object

>  <hbond:ASP:109>  (11) 
hbond:ASP:109    0.0
hbond:ASP:109      0
Name: 9, dtype: object

>  <hydroph_interaction:ASP:109>  (11) 
hydroph_interaction:ASP:109    0.0
hydroph_interaction:ASP:109      0
Name: 9, dtype: object

>  <saltbridge:ASP:109>  (11) 
saltbridge:ASP:109    NaN
saltbridge:ASP:109     -1
Name: 9, dtype: object

>  <halogenbond:CYS:110>  (11) 
halogenbond:CYS:110    NaN
halogenbond:CYS:110     -1
Name: 9, dtype: object

>  <hbond:CYS:110>  (11) 
hbond:CYS:110    0.0
hbond:CYS:110      0
Name: 9, dtype: object

>  <hbond:GLY:111>  (11) 
hbond:GLY:111    NaN
hbond:GLY:111     -1
Name: 9, dtype: object

>  <hbond:GLY:112>  (11) 
hbond:GLY:112    NaN
hbond:GLY:112     -1
Name: 9, dtype: object

>  <hbond:ILE:113>  (11) 
hbond:ILE:113    NaN
hbond:ILE:113     -1
Name: 9, dtype: object

>  <hydroph_interaction:LEU:114>  (11) 
hydroph_interaction:LEU:114    NaN
hydroph_interaction:LEU:114     -1
Name: 9, dtype: object

>  <hbond:LEU:114>  (11) 
hbond:LEU:114    NaN
hbond:LEU:114     -1
Name: 9, dtype: object

>  <hydroph_interaction:ILE:123>  (11) 
hydroph_interaction:ILE:123    NaN
hydroph_interaction:ILE:123     -1
Name: 9, dtype: object

>  <hbond:ILE:123>  (11) 
hbond:ILE:123    NaN
hbond:ILE:123     -1
Name: 9, dtype: object

>  <hydroph_interaction:VAL:124>  (11) 
hydroph_interaction:VAL:124    0.0
hydroph_interaction:VAL:124      0
Name: 9, dtype: object

>  <hbond:VAL:124>  (11) 
hbond:VAL:124    NaN
hbond:VAL:124     -1
Name: 9, dtype: object

>  <halogenbond:VAL:124>  (11) 
halogenbond:VAL:124    NaN
halogenbond:VAL:124     -1
Name: 9, dtype: object

>  <hbond:SER:125>  (11) 
hbond:SER:125    0
hbond:SER:125    0
Name: 9, dtype: object

>  <halogenbond:SER:125>  (11) 
halogenbond:SER:125    NaN
halogenbond:SER:125     -1
Name: 9, dtype: object

>  <hydroph_interaction:THR:126>  (11) 
hydroph_interaction:THR:126    0.0
hydroph_interaction:THR:126      0
Name: 9, dtype: object

>  <hbond:THR:126>  (11) 
hbond:THR:126    0.0
hbond:THR:126      0
Name: 9, dtype: object

>  <halogenbond:THR:126>  (11) 
halogenbond:THR:126    NaN
halogenbond:THR:126     -1
Name: 9, dtype: object

>  <hbond:GLY:127>  (11) 
hbond:GLY:127    0
hbond:GLY:127    0
Name: 9, dtype: object

>  <halogenbond:GLY:127>  (11) 
halogenbond:GLY:127    NaN
halogenbond:GLY:127     -1
Name: 9, dtype: object

>  <hydroph_interaction:GLY:127>  (11) 
hydroph_interaction:GLY:127    NaN
hydroph_interaction:GLY:127     -1
Name: 9, dtype: object

>  <hbond:GLY:128>  (11) 
hbond:GLY:128    NaN
hbond:GLY:128     -1
Name: 9, dtype: object

>  <halogenbond:GLY:128>  (11) 
halogenbond:GLY:128    NaN
halogenbond:GLY:128     -1
Name: 9, dtype: object

>  <hydroph_interaction:GLY:128>  (11) 
hydroph_interaction:GLY:128    NaN
hydroph_interaction:GLY:128     -1
Name: 9, dtype: object

>  <hbond:ASN:129>  (11) 
hbond:ASN:129    0.0
hbond:ASN:129      0
Name: 9, dtype: object

>  <hydroph_interaction:ASN:129>  (11) 
hydroph_interaction:ASN:129    NaN
hydroph_interaction:ASN:129     -1
Name: 9, dtype: object

>  <halogenbond:ASN:129>  (11) 
halogenbond:ASN:129    NaN
halogenbond:ASN:129     -1
Name: 9, dtype: object

>  <hbond:GLY:130>  (11) 
hbond:GLY:130    NaN
hbond:GLY:130     -1
Name: 9, dtype: object

>  <hbond:LEU:131>  (11) 
hbond:LEU:131    NaN
hbond:LEU:131     -1
Name: 9, dtype: object

>  <hydroph_interaction:LEU:131>  (11) 
hydroph_interaction:LEU:131    NaN
hydroph_interaction:LEU:131     -1
Name: 9, dtype: object

>  <halogenbond:LEU:131>  (11) 
halogenbond:LEU:131    NaN
halogenbond:LEU:131     -1
Name: 9, dtype: object

>  <hydroph_interaction:VAL:132>  (11) 
hydroph_interaction:VAL:132    NaN
hydroph_interaction:VAL:132     -1
Name: 9, dtype: object

>  <hbond:VAL:132>  (11) 
hbond:VAL:132    NaN
hbond:VAL:132     -1
Name: 9, dtype: object

>  <hbond:GLY:133>  (11) 
hbond:GLY:133    NaN
hbond:GLY:133     -1
Name: 9, dtype: object

>  <halogenbond:GLY:133>  (11) 
halogenbond:GLY:133    NaN
halogenbond:GLY:133     -1
Name: 9, dtype: object

>  <hydroph_interaction:PHE:134>  (11) 
hydroph_interaction:PHE:134    NaN
hydroph_interaction:PHE:134     -1
Name: 9, dtype: object

>  <hbond:PHE:134>  (11) 
hbond:PHE:134    NaN
hbond:PHE:134     -1
Name: 9, dtype: object

>  <pistack:PHE:134>  (11) 
pistack:PHE:134    NaN
pistack:PHE:134     -1
Name: 9, dtype: object

>  <pication:PHE:134>  (11) 
pication:PHE:134    NaN
pication:PHE:134     -1
Name: 9, dtype: object

>  <halogenbond:PHE:134>  (11) 
halogenbond:PHE:134    NaN
halogenbond:PHE:134     -1
Name: 9, dtype: object

>  <hydroph_interaction:ALA:135>  (11) 
hydroph_interaction:ALA:135    NaN
hydroph_interaction:ALA:135     -1
Name: 9, dtype: object

>  <hbond:ALA:135>  (11) 
hbond:ALA:135    NaN
hbond:ALA:135     -1
Name: 9, dtype: object

$$$$
PV_002944459424
     RDKit          3D

 14 15  0  0  0  0  0  0  0  0999 V2000
   28.5054   14.6707    8.4338 C   0  0  0  0  0  0  0  0  0  0  0  0
   29.2159   13.5161    7.7413 C   0  0  0  0  0  0  0  0  0  0  0  0
   28.7837   13.2329    6.3162 C   0  0  0  0  0  0  0  0  0  0  0  0
   30.3192   12.5903    8.2931 C   0  0  0  0  0  0  0  0  0  0  0  0
   31.0681   11.4229    7.6926 C   0  0  0  0  0  0  0  0  0  0  0  0
   30.8494   10.0967    8.0952 C   0  0  0  0  0  0  0  0  0  0  0  0
   31.4713    8.9686    7.6241 N   0  0  0  0  0  0  0  0  0  0  0  0
   32.3948    9.1829    6.6612 C   0  0  0  0  0  0  0  0  0  0  0  0
   32.6676   10.4546    6.2090 C   0  0  0  0  0  0  0  0  0  0  0  0
   32.0206   11.5558    6.7150 C   0  0  0  0  0  0  0  0  0  0  0  0
   32.4986   12.6753    6.0817 N   0  0  0  0  0  0  0  0  0  0  0  0
   33.3218   12.3240    5.0400 C   0  0  0  0  0  0  0  0  0  0  0  0
   33.7466   13.0349    4.1348 O   0  0  0  0  0  0  0  0  0  0  0  0
   33.5586   10.9610    5.2316 N   0  0  0  0  0  0  0  0  0  0  0  0
  1  2  1  0
  2  3  1  0
  2  4  2  3
  4  5  1  0
  5  6  2  0
  6  7  1  0
  7  8  2  0
  8  9  1  0
  9 10  2  0
 10 11  1  0
 11 12  1  0
 12 13  2  0
 12 14  1  0
 10  5  1  0
 14  9  1  0
A    1
 C1 
A    2
 C2 
A    3
 C3 
A    4
 C4 
A    5
 C5 
A    6
 C6 
A    7
 N1 
A    8
 C7 
A    9
 C8 
A   10
 C9 
A   11
 N2 
A   12
 C10
A   13
 O1 
A   14
 N3 
M  END
>  <ref_pdb>  (12) 
Ax0310a

>  <ref_mols>  (12) 
Ax0554a,Ax0416a,Ax0446a

>  <original SMILES>  (12) 
CC(C)=Cc1cncc2[nH]c(=O)[nH]c12

>  <rationale>  (12) 
info halogenbond:G127+D39+S125+E85+Q95+E106+T126+P107+H104+Y64+C65+S87+N129+F83+R93+L131+I82+G128+P91+N19+H21+V84+G133+Y90+Y89+H97+L81+F134+L98+R20+G103+S66+S67+S7+G108+R38+V124+M99+S36; hbond:S87+Y90+Q95+G108+G103+G128+G130+L131+N129+N19+H104+R68+V124+R93+P91+F83+S67+S7+S66+G112+G133+V132+R20+Y89+S77+A135+Y63+A92+A101+M99+F134+L100+I82+Y64+S36+L98+V84+L81+Y94+S80+R38+S37+V102+G8+I123+G111+I113+L114+C65+L22+S96; hydroph_interaction:T126+H21+P107+L22+E88+D109+N129+D39+N19+L40+I123+A135+Q95+I82+L100+L98+L131+F83+R93+V132+Y63+F134+H104+R20+A86+V74+P91+A101+F76+M99+L114+A92+Y94+R68+Y72+Y64+V18+V102+W28+G127+G128+L81; pication:H21+H104+R93+Y63+F134+Y90+R68+F83+R20; pistack:H21+Y89+Y90+H104+F134+Y63+F83+Y94; saltbridge:R93+H104+E106+D109+E85+E88+R68+R20; 

>  <intxn_cluster>  (12) 
-1

>  <intxn_cluster_rank>  (12) 
-1

>  <N_interactions>  (12) 
2

>  <∆∆G>  (12) 
-8.743459

>  <$/mg>  (12) 
0.0

>  <comRMSD>  (12) 
0.798782

>  <N_rotatable_bonds>  (12) 
3

>  <deep_P1_sidechain>  (12) 
nan

>  <farthest_distance_to_substrate>  (12) 
2.631314

>  <hbond:SER:7>  (12) 
hbond:SER:7    NaN
hbond:SER:7     -1
Name: 10, dtype: object

>  <halogenbond:SER:7>  (12) 
halogenbond:SER:7    NaN
halogenbond:SER:7     -1
Name: 10, dtype: object

>  <hbond:GLY:8>  (12) 
hbond:GLY:8    NaN
hbond:GLY:8     -1
Name: 10, dtype: object

>  <hydroph_interaction:VAL:18>  (12) 
hydroph_interaction:VAL:18    NaN
hydroph_interaction:VAL:18     -1
Name: 10, dtype: object

>  <hbond:ASN:19>  (12) 
hbond:ASN:19    NaN
hbond:ASN:19     -1
Name: 10, dtype: object

>  <hydroph_interaction:ASN:19>  (12) 
hydroph_interaction:ASN:19    NaN
hydroph_interaction:ASN:19     -1
Name: 10, dtype: object

>  <halogenbond:ASN:19>  (12) 
halogenbond:ASN:19    NaN
halogenbond:ASN:19     -1
Name: 10, dtype: object

>  <hbond:ARG:20>  (12) 
hbond:ARG:20    NaN
hbond:ARG:20     -1
Name: 10, dtype: object

>  <hydroph_interaction:ARG:20>  (12) 
hydroph_interaction:ARG:20    NaN
hydroph_interaction:ARG:20     -1
Name: 10, dtype: object

>  <saltbridge:ARG:20>  (12) 
saltbridge:ARG:20    NaN
saltbridge:ARG:20     -1
Name: 10, dtype: object

>  <halogenbond:ARG:20>  (12) 
halogenbond:ARG:20    NaN
halogenbond:ARG:20     -1
Name: 10, dtype: object

>  <pication:ARG:20>  (12) 
pication:ARG:20    NaN
pication:ARG:20     -1
Name: 10, dtype: object

>  <hbond:HIS:21>  (12) 
hbond:HIS:21    0.0
hbond:HIS:21      0
Name: 10, dtype: object

>  <hydroph_interaction:HIS:21>  (12) 
hydroph_interaction:HIS:21    NaN
hydroph_interaction:HIS:21     -1
Name: 10, dtype: object

>  <pistack:HIS:21>  (12) 
pistack:HIS:21    NaN
pistack:HIS:21     -1
Name: 10, dtype: object

>  <pication:HIS:21>  (12) 
pication:HIS:21    NaN
pication:HIS:21     -1
Name: 10, dtype: object

>  <saltbridge:HIS:21>  (12) 
saltbridge:HIS:21    0.0
saltbridge:HIS:21      0
Name: 10, dtype: object

>  <halogenbond:HIS:21>  (12) 
halogenbond:HIS:21    NaN
halogenbond:HIS:21     -1
Name: 10, dtype: object

>  <hydroph_interaction:LEU:22>  (12) 
hydroph_interaction:LEU:22    NaN
hydroph_interaction:LEU:22     -1
Name: 10, dtype: object

>  <hbond:LEU:22>  (12) 
hbond:LEU:22    NaN
hbond:LEU:22     -1
Name: 10, dtype: object

>  <hydroph_interaction:TRP:28>  (12) 
hydroph_interaction:TRP:28    NaN
hydroph_interaction:TRP:28     -1
Name: 10, dtype: object

>  <hbond:SER:36>  (12) 
hbond:SER:36    NaN
hbond:SER:36     -1
Name: 10, dtype: object

>  <halogenbond:SER:36>  (12) 
halogenbond:SER:36    NaN
halogenbond:SER:36     -1
Name: 10, dtype: object

>  <hbond:SER:37>  (12) 
hbond:SER:37    NaN
hbond:SER:37     -1
Name: 10, dtype: object

>  <hbond:ARG:38>  (12) 
hbond:ARG:38    NaN
hbond:ARG:38     -1
Name: 10, dtype: object

>  <halogenbond:ARG:38>  (12) 
halogenbond:ARG:38    NaN
halogenbond:ARG:38     -1
Name: 10, dtype: object

>  <saltbridge:ASP:39>  (12) 
saltbridge:ASP:39    0.0
saltbridge:ASP:39      0
Name: 10, dtype: object

>  <halogenbond:ASP:39>  (12) 
halogenbond:ASP:39    NaN
halogenbond:ASP:39     -1
Name: 10, dtype: object

>  <hbond:ASP:39>  (12) 
hbond:ASP:39    0.0
hbond:ASP:39      0
Name: 10, dtype: object

>  <hydroph_interaction:ASP:39>  (12) 
hydroph_interaction:ASP:39    NaN
hydroph_interaction:ASP:39     -1
Name: 10, dtype: object

>  <hydroph_interaction:LEU:40>  (12) 
hydroph_interaction:LEU:40    NaN
hydroph_interaction:LEU:40     -1
Name: 10, dtype: object

>  <hydroph_interaction:TYR:63>  (12) 
hydroph_interaction:TYR:63    NaN
hydroph_interaction:TYR:63     -1
Name: 10, dtype: object

>  <hbond:TYR:63>  (12) 
hbond:TYR:63    NaN
hbond:TYR:63     -1
Name: 10, dtype: object

>  <pistack:TYR:63>  (12) 
pistack:TYR:63    NaN
pistack:TYR:63     -1
Name: 10, dtype: object

>  <pication:TYR:63>  (12) 
pication:TYR:63    NaN
pication:TYR:63     -1
Name: 10, dtype: object

>  <halogenbond:TYR:64>  (12) 
halogenbond:TYR:64    NaN
halogenbond:TYR:64     -1
Name: 10, dtype: object

>  <hbond:TYR:64>  (12) 
hbond:TYR:64    NaN
hbond:TYR:64     -1
Name: 10, dtype: object

>  <hydroph_interaction:TYR:64>  (12) 
hydroph_interaction:TYR:64    NaN
hydroph_interaction:TYR:64     -1
Name: 10, dtype: object

>  <halogenbond:CYS:65>  (12) 
halogenbond:CYS:65    NaN
halogenbond:CYS:65     -1
Name: 10, dtype: object

>  <hbond:CYS:65>  (12) 
hbond:CYS:65    NaN
hbond:CYS:65     -1
Name: 10, dtype: object

>  <hbond:SER:66>  (12) 
hbond:SER:66    NaN
hbond:SER:66     -1
Name: 10, dtype: object

>  <halogenbond:SER:66>  (12) 
halogenbond:SER:66    NaN
halogenbond:SER:66     -1
Name: 10, dtype: object

>  <hbond:SER:67>  (12) 
hbond:SER:67    NaN
hbond:SER:67     -1
Name: 10, dtype: object

>  <halogenbond:SER:67>  (12) 
halogenbond:SER:67    NaN
halogenbond:SER:67     -1
Name: 10, dtype: object

>  <hbond:ARG:68>  (12) 
hbond:ARG:68    NaN
hbond:ARG:68     -1
Name: 10, dtype: object

>  <saltbridge:ARG:68>  (12) 
saltbridge:ARG:68    NaN
saltbridge:ARG:68     -1
Name: 10, dtype: object

>  <hydroph_interaction:ARG:68>  (12) 
hydroph_interaction:ARG:68    NaN
hydroph_interaction:ARG:68     -1
Name: 10, dtype: object

>  <pication:ARG:68>  (12) 
pication:ARG:68    NaN
pication:ARG:68     -1
Name: 10, dtype: object

>  <hydroph_interaction:TYR:72>  (12) 
hydroph_interaction:TYR:72    NaN
hydroph_interaction:TYR:72     -1
Name: 10, dtype: object

>  <hydroph_interaction:VAL:74>  (12) 
hydroph_interaction:VAL:74    NaN
hydroph_interaction:VAL:74     -1
Name: 10, dtype: object

>  <hydroph_interaction:PHE:76>  (12) 
hydroph_interaction:PHE:76    NaN
hydroph_interaction:PHE:76     -1
Name: 10, dtype: object

>  <hbond:SER:77>  (12) 
hbond:SER:77    NaN
hbond:SER:77     -1
Name: 10, dtype: object

>  <hbond:SER:80>  (12) 
hbond:SER:80    NaN
hbond:SER:80     -1
Name: 10, dtype: object

>  <hbond:LEU:81>  (12) 
hbond:LEU:81    NaN
hbond:LEU:81     -1
Name: 10, dtype: object

>  <halogenbond:LEU:81>  (12) 
halogenbond:LEU:81    NaN
halogenbond:LEU:81     -1
Name: 10, dtype: object

>  <hydroph_interaction:LEU:81>  (12) 
hydroph_interaction:LEU:81    NaN
hydroph_interaction:LEU:81     -1
Name: 10, dtype: object

>  <hydroph_interaction:ILE:82>  (12) 
hydroph_interaction:ILE:82    NaN
hydroph_interaction:ILE:82     -1
Name: 10, dtype: object

>  <halogenbond:ILE:82>  (12) 
halogenbond:ILE:82    NaN
halogenbond:ILE:82     -1
Name: 10, dtype: object

>  <hbond:ILE:82>  (12) 
hbond:ILE:82    NaN
hbond:ILE:82     -1
Name: 10, dtype: object

>  <hbond:PHE:83>  (12) 
hbond:PHE:83    NaN
hbond:PHE:83     -1
Name: 10, dtype: object

>  <hydroph_interaction:PHE:83>  (12) 
hydroph_interaction:PHE:83    NaN
hydroph_interaction:PHE:83     -1
Name: 10, dtype: object

>  <halogenbond:PHE:83>  (12) 
halogenbond:PHE:83    NaN
halogenbond:PHE:83     -1
Name: 10, dtype: object

>  <pistack:PHE:83>  (12) 
pistack:PHE:83    NaN
pistack:PHE:83     -1
Name: 10, dtype: object

>  <pication:PHE:83>  (12) 
pication:PHE:83    NaN
pication:PHE:83     -1
Name: 10, dtype: object

>  <hydroph_interaction:VAL:84>  (12) 
hydroph_interaction:VAL:84    0.0
hydroph_interaction:VAL:84      0
Name: 10, dtype: object

>  <halogenbond:VAL:84>  (12) 
halogenbond:VAL:84    NaN
halogenbond:VAL:84     -1
Name: 10, dtype: object

>  <hbond:VAL:84>  (12) 
hbond:VAL:84    NaN
hbond:VAL:84     -1
Name: 10, dtype: object

>  <hydroph_interaction:GLU:85>  (12) 
hydroph_interaction:GLU:85    0.0
hydroph_interaction:GLU:85      0
Name: 10, dtype: object

>  <hbond:GLU:85>  (12) 
hbond:GLU:85    0.0
hbond:GLU:85      0
Name: 10, dtype: object

>  <halogenbond:GLU:85>  (12) 
halogenbond:GLU:85    NaN
halogenbond:GLU:85     -1
Name: 10, dtype: object

>  <saltbridge:GLU:85>  (12) 
saltbridge:GLU:85    NaN
saltbridge:GLU:85     -1
Name: 10, dtype: object

>  <halogenbond:ALA:86>  (12) 
halogenbond:ALA:86    0.0
halogenbond:ALA:86      0
Name: 10, dtype: object

>  <hbond:ALA:86>  (12) 
hbond:ALA:86    0.0
hbond:ALA:86      0
Name: 10, dtype: object

>  <hydroph_interaction:ALA:86>  (12) 
hydroph_interaction:ALA:86    NaN
hydroph_interaction:ALA:86     -1
Name: 10, dtype: object

>  <hbond:SER:87>  (12) 
hbond:SER:87    1
hbond:SER:87    1
Name: 10, dtype: object

>  <halogenbond:SER:87>  (12) 
halogenbond:SER:87    NaN
halogenbond:SER:87     -1
Name: 10, dtype: object

>  <hbond:GLU:88>  (12) 
hbond:GLU:88    0.0
hbond:GLU:88      0
Name: 10, dtype: object

>  <hydroph_interaction:GLU:88>  (12) 
hydroph_interaction:GLU:88    NaN
hydroph_interaction:GLU:88     -1
Name: 10, dtype: object

>  <halogenbond:GLU:88>  (12) 
halogenbond:GLU:88    0.0
halogenbond:GLU:88      0
Name: 10, dtype: object

>  <saltbridge:GLU:88>  (12) 
saltbridge:GLU:88    NaN
saltbridge:GLU:88     -1
Name: 10, dtype: object

>  <hydroph_interaction:TYR:89>  (12) 
hydroph_interaction:TYR:89    0.0
hydroph_interaction:TYR:89      0
Name: 10, dtype: object

>  <pistack:TYR:89>  (12) 
pistack:TYR:89    NaN
pistack:TYR:89     -1
Name: 10, dtype: object

>  <hbond:TYR:89>  (12) 
hbond:TYR:89    NaN
hbond:TYR:89     -1
Name: 10, dtype: object

>  <halogenbond:TYR:89>  (12) 
halogenbond:TYR:89    NaN
halogenbond:TYR:89     -1
Name: 10, dtype: object

>  <hydroph_interaction:TYR:90>  (12) 
hydroph_interaction:TYR:90    0.0
hydroph_interaction:TYR:90      0
Name: 10, dtype: object

>  <hbond:TYR:90>  (12) 
hbond:TYR:90    NaN
hbond:TYR:90     -1
Name: 10, dtype: object

>  <pistack:TYR:90>  (12) 
pistack:TYR:90    NaN
pistack:TYR:90     -1
Name: 10, dtype: object

>  <halogenbond:TYR:90>  (12) 
halogenbond:TYR:90    NaN
halogenbond:TYR:90     -1
Name: 10, dtype: object

>  <pication:TYR:90>  (12) 
pication:TYR:90    NaN
pication:TYR:90     -1
Name: 10, dtype: object

>  <hbond:PRO:91>  (12) 
hbond:PRO:91    NaN
hbond:PRO:91     -1
Name: 10, dtype: object

>  <hydroph_interaction:PRO:91>  (12) 
hydroph_interaction:PRO:91    NaN
hydroph_interaction:PRO:91     -1
Name: 10, dtype: object

>  <halogenbond:PRO:91>  (12) 
halogenbond:PRO:91    NaN
halogenbond:PRO:91     -1
Name: 10, dtype: object

>  <hbond:ALA:92>  (12) 
hbond:ALA:92    NaN
hbond:ALA:92     -1
Name: 10, dtype: object

>  <hydroph_interaction:ALA:92>  (12) 
hydroph_interaction:ALA:92    NaN
hydroph_interaction:ALA:92     -1
Name: 10, dtype: object

>  <saltbridge:ARG:93>  (12) 
saltbridge:ARG:93    NaN
saltbridge:ARG:93     -1
Name: 10, dtype: object

>  <hbond:ARG:93>  (12) 
hbond:ARG:93    NaN
hbond:ARG:93     -1
Name: 10, dtype: object

>  <hydroph_interaction:ARG:93>  (12) 
hydroph_interaction:ARG:93    NaN
hydroph_interaction:ARG:93     -1
Name: 10, dtype: object

>  <halogenbond:ARG:93>  (12) 
halogenbond:ARG:93    NaN
halogenbond:ARG:93     -1
Name: 10, dtype: object

>  <pication:ARG:93>  (12) 
pication:ARG:93    NaN
pication:ARG:93     -1
Name: 10, dtype: object

>  <hydroph_interaction:TYR:94>  (12) 
hydroph_interaction:TYR:94    NaN
hydroph_interaction:TYR:94     -1
Name: 10, dtype: object

>  <pistack:TYR:94>  (12) 
pistack:TYR:94    NaN
pistack:TYR:94     -1
Name: 10, dtype: object

>  <hbond:TYR:94>  (12) 
hbond:TYR:94    NaN
hbond:TYR:94     -1
Name: 10, dtype: object

>  <hbond:GLN:95>  (12) 
hbond:GLN:95    NaN
hbond:GLN:95     -1
Name: 10, dtype: object

>  <hydroph_interaction:GLN:95>  (12) 
hydroph_interaction:GLN:95    NaN
hydroph_interaction:GLN:95     -1
Name: 10, dtype: object

>  <halogenbond:GLN:95>  (12) 
halogenbond:GLN:95    NaN
halogenbond:GLN:95     -1
Name: 10, dtype: object

>  <hbond:SER:96>  (12) 
hbond:SER:96    NaN
hbond:SER:96     -1
Name: 10, dtype: object

>  <halogenbond:HIS:97>  (12) 
halogenbond:HIS:97    NaN
halogenbond:HIS:97     -1
Name: 10, dtype: object

>  <hydroph_interaction:LEU:98>  (12) 
hydroph_interaction:LEU:98    NaN
hydroph_interaction:LEU:98     -1
Name: 10, dtype: object

>  <hbond:LEU:98>  (12) 
hbond:LEU:98    NaN
hbond:LEU:98     -1
Name: 10, dtype: object

>  <halogenbond:LEU:98>  (12) 
halogenbond:LEU:98    NaN
halogenbond:LEU:98     -1
Name: 10, dtype: object

>  <hbond:MET:99>  (12) 
hbond:MET:99    NaN
hbond:MET:99     -1
Name: 10, dtype: object

>  <hydroph_interaction:MET:99>  (12) 
hydroph_interaction:MET:99    NaN
hydroph_interaction:MET:99     -1
Name: 10, dtype: object

>  <halogenbond:MET:99>  (12) 
halogenbond:MET:99    NaN
halogenbond:MET:99     -1
Name: 10, dtype: object

>  <hydroph_interaction:LEU:100>  (12) 
hydroph_interaction:LEU:100    NaN
hydroph_interaction:LEU:100     -1
Name: 10, dtype: object

>  <hbond:LEU:100>  (12) 
hbond:LEU:100    NaN
hbond:LEU:100     -1
Name: 10, dtype: object

>  <hbond:ALA:101>  (12) 
hbond:ALA:101    NaN
hbond:ALA:101     -1
Name: 10, dtype: object

>  <hydroph_interaction:ALA:101>  (12) 
hydroph_interaction:ALA:101    NaN
hydroph_interaction:ALA:101     -1
Name: 10, dtype: object

>  <hydroph_interaction:VAL:102>  (12) 
hydroph_interaction:VAL:102    NaN
hydroph_interaction:VAL:102     -1
Name: 10, dtype: object

>  <hbond:VAL:102>  (12) 
hbond:VAL:102    NaN
hbond:VAL:102     -1
Name: 10, dtype: object

>  <hbond:GLY:103>  (12) 
hbond:GLY:103    NaN
hbond:GLY:103     -1
Name: 10, dtype: object

>  <halogenbond:GLY:103>  (12) 
halogenbond:GLY:103    NaN
halogenbond:GLY:103     -1
Name: 10, dtype: object

>  <hbond:HIS:104>  (12) 
hbond:HIS:104    NaN
hbond:HIS:104     -1
Name: 10, dtype: object

>  <saltbridge:HIS:104>  (12) 
saltbridge:HIS:104    NaN
saltbridge:HIS:104     -1
Name: 10, dtype: object

>  <pication:HIS:104>  (12) 
pication:HIS:104    NaN
pication:HIS:104     -1
Name: 10, dtype: object

>  <halogenbond:HIS:104>  (12) 
halogenbond:HIS:104    NaN
halogenbond:HIS:104     -1
Name: 10, dtype: object

>  <hydroph_interaction:HIS:104>  (12) 
hydroph_interaction:HIS:104    NaN
hydroph_interaction:HIS:104     -1
Name: 10, dtype: object

>  <pistack:HIS:104>  (12) 
pistack:HIS:104    NaN
pistack:HIS:104     -1
Name: 10, dtype: object

>  <halogenbond:SER:105>  (12) 
halogenbond:SER:105    0.0
halogenbond:SER:105      0
Name: 10, dtype: object

>  <hbond:SER:105>  (12) 
hbond:SER:105    0.0
hbond:SER:105      0
Name: 10, dtype: object

>  <hbond:GLU:106>  (12) 
hbond:GLU:106    0.0
hbond:GLU:106      0
Name: 10, dtype: object

>  <hydroph_interaction:GLU:106>  (12) 
hydroph_interaction:GLU:106    0.0
hydroph_interaction:GLU:106      0
Name: 10, dtype: object

>  <saltbridge:GLU:106>  (12) 
saltbridge:GLU:106    NaN
saltbridge:GLU:106     -1
Name: 10, dtype: object

>  <halogenbond:GLU:106>  (12) 
halogenbond:GLU:106    NaN
halogenbond:GLU:106     -1
Name: 10, dtype: object

>  <hydroph_interaction:PRO:107>  (12) 
hydroph_interaction:PRO:107    1
hydroph_interaction:PRO:107    1
Name: 10, dtype: object

>  <hbond:PRO:107>  (12) 
hbond:PRO:107    0.0
hbond:PRO:107      0
Name: 10, dtype: object

>  <halogenbond:PRO:107>  (12) 
halogenbond:PRO:107    NaN
halogenbond:PRO:107     -1
Name: 10, dtype: object

>  <hbond:GLY:108>  (12) 
hbond:GLY:108    NaN
hbond:GLY:108     -1
Name: 10, dtype: object

>  <halogenbond:GLY:108>  (12) 
halogenbond:GLY:108    NaN
halogenbond:GLY:108     -1
Name: 10, dtype: object

>  <hbond:ASP:109>  (12) 
hbond:ASP:109    0.0
hbond:ASP:109      0
Name: 10, dtype: object

>  <hydroph_interaction:ASP:109>  (12) 
hydroph_interaction:ASP:109    NaN
hydroph_interaction:ASP:109     -1
Name: 10, dtype: object

>  <saltbridge:ASP:109>  (12) 
saltbridge:ASP:109    NaN
saltbridge:ASP:109     -1
Name: 10, dtype: object

>  <halogenbond:CYS:110>  (12) 
halogenbond:CYS:110    0.0
halogenbond:CYS:110      0
Name: 10, dtype: object

>  <hbond:CYS:110>  (12) 
hbond:CYS:110    0.0
hbond:CYS:110      0
Name: 10, dtype: object

>  <hbond:GLY:111>  (12) 
hbond:GLY:111    NaN
hbond:GLY:111     -1
Name: 10, dtype: object

>  <hbond:GLY:112>  (12) 
hbond:GLY:112    NaN
hbond:GLY:112     -1
Name: 10, dtype: object

>  <hbond:ILE:113>  (12) 
hbond:ILE:113    NaN
hbond:ILE:113     -1
Name: 10, dtype: object

>  <hydroph_interaction:LEU:114>  (12) 
hydroph_interaction:LEU:114    NaN
hydroph_interaction:LEU:114     -1
Name: 10, dtype: object

>  <hbond:LEU:114>  (12) 
hbond:LEU:114    NaN
hbond:LEU:114     -1
Name: 10, dtype: object

>  <hydroph_interaction:ILE:123>  (12) 
hydroph_interaction:ILE:123    NaN
hydroph_interaction:ILE:123     -1
Name: 10, dtype: object

>  <hbond:ILE:123>  (12) 
hbond:ILE:123    NaN
hbond:ILE:123     -1
Name: 10, dtype: object

>  <hydroph_interaction:VAL:124>  (12) 
hydroph_interaction:VAL:124    0.0
hydroph_interaction:VAL:124      0
Name: 10, dtype: object

>  <hbond:VAL:124>  (12) 
hbond:VAL:124    NaN
hbond:VAL:124     -1
Name: 10, dtype: object

>  <halogenbond:VAL:124>  (12) 
halogenbond:VAL:124    NaN
halogenbond:VAL:124     -1
Name: 10, dtype: object

>  <hbond:SER:125>  (12) 
hbond:SER:125    0
hbond:SER:125    0
Name: 10, dtype: object

>  <halogenbond:SER:125>  (12) 
halogenbond:SER:125    NaN
halogenbond:SER:125     -1
Name: 10, dtype: object

>  <hydroph_interaction:THR:126>  (12) 
hydroph_interaction:THR:126    NaN
hydroph_interaction:THR:126     -1
Name: 10, dtype: object

>  <hbond:THR:126>  (12) 
hbond:THR:126    0.0
hbond:THR:126      0
Name: 10, dtype: object

>  <halogenbond:THR:126>  (12) 
halogenbond:THR:126    NaN
halogenbond:THR:126     -1
Name: 10, dtype: object

>  <hbond:GLY:127>  (12) 
hbond:GLY:127    0
hbond:GLY:127    0
Name: 10, dtype: object

>  <halogenbond:GLY:127>  (12) 
halogenbond:GLY:127    NaN
halogenbond:GLY:127     -1
Name: 10, dtype: object

>  <hydroph_interaction:GLY:127>  (12) 
hydroph_interaction:GLY:127    NaN
hydroph_interaction:GLY:127     -1
Name: 10, dtype: object

>  <hbond:GLY:128>  (12) 
hbond:GLY:128    NaN
hbond:GLY:128     -1
Name: 10, dtype: object

>  <halogenbond:GLY:128>  (12) 
halogenbond:GLY:128    NaN
halogenbond:GLY:128     -1
Name: 10, dtype: object

>  <hydroph_interaction:GLY:128>  (12) 
hydroph_interaction:GLY:128    NaN
hydroph_interaction:GLY:128     -1
Name: 10, dtype: object

>  <hbond:ASN:129>  (12) 
hbond:ASN:129    NaN
hbond:ASN:129     -1
Name: 10, dtype: object

>  <hydroph_interaction:ASN:129>  (12) 
hydroph_interaction:ASN:129    NaN
hydroph_interaction:ASN:129     -1
Name: 10, dtype: object

>  <halogenbond:ASN:129>  (12) 
halogenbond:ASN:129    NaN
halogenbond:ASN:129     -1
Name: 10, dtype: object

>  <hbond:GLY:130>  (12) 
hbond:GLY:130    NaN
hbond:GLY:130     -1
Name: 10, dtype: object

>  <hbond:LEU:131>  (12) 
hbond:LEU:131    NaN
hbond:LEU:131     -1
Name: 10, dtype: object

>  <hydroph_interaction:LEU:131>  (12) 
hydroph_interaction:LEU:131    NaN
hydroph_interaction:LEU:131     -1
Name: 10, dtype: object

>  <halogenbond:LEU:131>  (12) 
halogenbond:LEU:131    NaN
halogenbond:LEU:131     -1
Name: 10, dtype: object

>  <hydroph_interaction:VAL:132>  (12) 
hydroph_interaction:VAL:132    NaN
hydroph_interaction:VAL:132     -1
Name: 10, dtype: object

>  <hbond:VAL:132>  (12) 
hbond:VAL:132    NaN
hbond:VAL:132     -1
Name: 10, dtype: object

>  <hbond:GLY:133>  (12) 
hbond:GLY:133    NaN
hbond:GLY:133     -1
Name: 10, dtype: object

>  <halogenbond:GLY:133>  (12) 
halogenbond:GLY:133    NaN
halogenbond:GLY:133     -1
Name: 10, dtype: object

>  <hydroph_interaction:PHE:134>  (12) 
hydroph_interaction:PHE:134    NaN
hydroph_interaction:PHE:134     -1
Name: 10, dtype: object

>  <hbond:PHE:134>  (12) 
hbond:PHE:134    NaN
hbond:PHE:134     -1
Name: 10, dtype: object

>  <pistack:PHE:134>  (12) 
pistack:PHE:134    NaN
pistack:PHE:134     -1
Name: 10, dtype: object

>  <pication:PHE:134>  (12) 
pication:PHE:134    NaN
pication:PHE:134     -1
Name: 10, dtype: object

>  <halogenbond:PHE:134>  (12) 
halogenbond:PHE:134    NaN
halogenbond:PHE:134     -1
Name: 10, dtype: object

>  <hydroph_interaction:ALA:135>  (12) 
hydroph_interaction:ALA:135    NaN
hydroph_interaction:ALA:135     -1
Name: 10, dtype: object

>  <hbond:ALA:135>  (12) 
hbond:ALA:135    NaN
hbond:ALA:135     -1
Name: 10, dtype: object

$$$$
PV_005945810086
     RDKit          3D

 12 12  0  0  0  0  0  0  0  0999 V2000
   27.9827   14.6427    8.1432 C   0  0  0  0  0  0  0  0  0  0  0  0
   29.1772   14.8956    7.4263 O   0  0  0  0  0  0  0  0  0  0  0  0
   29.5969   13.6775    6.8597 N   0  0  0  0  0  0  0  0  0  0  0  0
   30.4000   13.0531    7.7838 C   0  0  0  0  0  0  0  0  0  0  0  0
   31.0247   11.7103    7.5486 C   0  0  0  0  0  0  0  0  0  0  0  0
   32.1540   11.4443    6.5824 C   0  0  0  0  0  0  0  0  0  0  0  0
   32.6258   10.0323    6.4910 C   0  0  0  0  0  0  0  0  0  0  0  0
   33.7721    9.7654    5.5127 C   0  0  0  0  0  0  0  0  0  0  0  0
   32.0254    9.0492    7.2764 C   0  0  0  0  0  0  0  0  0  0  0  0
   30.9969    9.3606    8.1547 C   0  0  0  0  0  0  0  0  0  0  0  0
   30.4127    8.3837    8.9489 C   0  0  0  0  0  0  0  0  0  0  0  0
   30.5180   10.6589    8.2736 C   0  0  0  0  0  0  0  0  0  0  0  0
  1  2  1  0
  2  3  1  0
  3  4  2  3
  4  5  1  0
  5  6  2  0
  6  7  1  0
  7  8  1  0
  7  9  2  0
  9 10  1  0
 10 11  1  0
 10 12  2  0
 12  5  1  0
A    1
 C1 
A    2
 O1 
A    3
 N1 
A    4
 C2 
A    5
 C3 
A    6
 C4 
A    7
 C5 
A    8
 C6 
A    9
 C7 
A   10
 C8 
A   11
 C9 
A   12
 C10
M  END
>  <ref_pdb>  (13) 
Ax0310a

>  <ref_mols>  (13) 
Ax0451a,Ax0739a

>  <original SMILES>  (13) 
CON=Cc1cc(C)cc(C)c1

>  <rationale>  (13) 
info halogenbond:C110+G127+D39+S125+E85+Q95+E106+E88+T126+P107+H104+Y64+C65+S87+N129+F83+R93+L131+I82+G128+P91+N19+H21+V84+G133+Y90+Y89+H97+L81+F134+L98+R20+G103+S66+S67+S7+G108+R38+V124+M99+S36; hbond:S87+Q95+A86+E85+G108+G103+G128+G130+L131+N129+N19+H104+R68+V124+R93+P91+F83+S67+S7+S66+G112+V132+R20+Y89+S77+A135+Y63+A92+A101+M99+F134+L100+I82+Y64+S36+L98+V84+L81+Y94+S80+R38+S37+V102+G8+I123+G111+I113+L114+C65+L22+S96; hydroph_interaction:V124+H21+P107+L22+E106+N129+D39+N19+L40+I123+A135+Q95+I82+L100+L98+L131+F83+R93+V132+Y63+F134+H104+R20+A86+V74+P91+A101+F76+M99+L114+A92+Y94+R68+Y72+Y64+V18+V102+W28+G127+G128+L81; pication:H104+R93+Y63+F134+Y90+R68+F83+R20; pistack:H21+Y89+Y90+H104+F134+Y63+F83+Y94; saltbridge:D39+R93+H104+E106+D109+E85+E88+R68+R20; 

>  <intxn_cluster>  (13) 
-1

>  <intxn_cluster_rank>  (13) 
-1

>  <N_interactions>  (13) 
3

>  <∆∆G>  (13) 
-11.884775

>  <$/mg>  (13) 
163.0

>  <comRMSD>  (13) 
0.642761

>  <N_rotatable_bonds>  (13) 
5

>  <deep_P1_sidechain>  (13) 
nan

>  <farthest_distance_to_substrate>  (13) 
2.397902

>  <hbond:SER:7>  (13) 
hbond:SER:7    NaN
hbond:SER:7     -1
Name: 11, dtype: object

>  <halogenbond:SER:7>  (13) 
halogenbond:SER:7    NaN
halogenbond:SER:7     -1
Name: 11, dtype: object

>  <hbond:GLY:8>  (13) 
hbond:GLY:8    NaN
hbond:GLY:8     -1
Name: 11, dtype: object

>  <hydroph_interaction:VAL:18>  (13) 
hydroph_interaction:VAL:18    NaN
hydroph_interaction:VAL:18     -1
Name: 11, dtype: object

>  <hbond:ASN:19>  (13) 
hbond:ASN:19    NaN
hbond:ASN:19     -1
Name: 11, dtype: object

>  <hydroph_interaction:ASN:19>  (13) 
hydroph_interaction:ASN:19    NaN
hydroph_interaction:ASN:19     -1
Name: 11, dtype: object

>  <halogenbond:ASN:19>  (13) 
halogenbond:ASN:19    NaN
halogenbond:ASN:19     -1
Name: 11, dtype: object

>  <hbond:ARG:20>  (13) 
hbond:ARG:20    NaN
hbond:ARG:20     -1
Name: 11, dtype: object

>  <hydroph_interaction:ARG:20>  (13) 
hydroph_interaction:ARG:20    NaN
hydroph_interaction:ARG:20     -1
Name: 11, dtype: object

>  <saltbridge:ARG:20>  (13) 
saltbridge:ARG:20    NaN
saltbridge:ARG:20     -1
Name: 11, dtype: object

>  <halogenbond:ARG:20>  (13) 
halogenbond:ARG:20    NaN
halogenbond:ARG:20     -1
Name: 11, dtype: object

>  <pication:ARG:20>  (13) 
pication:ARG:20    NaN
pication:ARG:20     -1
Name: 11, dtype: object

>  <hbond:HIS:21>  (13) 
hbond:HIS:21    0.0
hbond:HIS:21      0
Name: 11, dtype: object

>  <hydroph_interaction:HIS:21>  (13) 
hydroph_interaction:HIS:21    NaN
hydroph_interaction:HIS:21     -1
Name: 11, dtype: object

>  <pistack:HIS:21>  (13) 
pistack:HIS:21    NaN
pistack:HIS:21     -1
Name: 11, dtype: object

>  <pication:HIS:21>  (13) 
pication:HIS:21    0.0
pication:HIS:21      0
Name: 11, dtype: object

>  <saltbridge:HIS:21>  (13) 
saltbridge:HIS:21    0.0
saltbridge:HIS:21      0
Name: 11, dtype: object

>  <halogenbond:HIS:21>  (13) 
halogenbond:HIS:21    NaN
halogenbond:HIS:21     -1
Name: 11, dtype: object

>  <hydroph_interaction:LEU:22>  (13) 
hydroph_interaction:LEU:22    NaN
hydroph_interaction:LEU:22     -1
Name: 11, dtype: object

>  <hbond:LEU:22>  (13) 
hbond:LEU:22    NaN
hbond:LEU:22     -1
Name: 11, dtype: object

>  <hydroph_interaction:TRP:28>  (13) 
hydroph_interaction:TRP:28    NaN
hydroph_interaction:TRP:28     -1
Name: 11, dtype: object

>  <hbond:SER:36>  (13) 
hbond:SER:36    NaN
hbond:SER:36     -1
Name: 11, dtype: object

>  <halogenbond:SER:36>  (13) 
halogenbond:SER:36    NaN
halogenbond:SER:36     -1
Name: 11, dtype: object

>  <hbond:SER:37>  (13) 
hbond:SER:37    NaN
hbond:SER:37     -1
Name: 11, dtype: object

>  <hbond:ARG:38>  (13) 
hbond:ARG:38    NaN
hbond:ARG:38     -1
Name: 11, dtype: object

>  <halogenbond:ARG:38>  (13) 
halogenbond:ARG:38    NaN
halogenbond:ARG:38     -1
Name: 11, dtype: object

>  <saltbridge:ASP:39>  (13) 
saltbridge:ASP:39    NaN
saltbridge:ASP:39     -1
Name: 11, dtype: object

>  <halogenbond:ASP:39>  (13) 
halogenbond:ASP:39    NaN
halogenbond:ASP:39     -1
Name: 11, dtype: object

>  <hbond:ASP:39>  (13) 
hbond:ASP:39    0.0
hbond:ASP:39      0
Name: 11, dtype: object

>  <hydroph_interaction:ASP:39>  (13) 
hydroph_interaction:ASP:39    NaN
hydroph_interaction:ASP:39     -1
Name: 11, dtype: object

>  <hydroph_interaction:LEU:40>  (13) 
hydroph_interaction:LEU:40    NaN
hydroph_interaction:LEU:40     -1
Name: 11, dtype: object

>  <hydroph_interaction:TYR:63>  (13) 
hydroph_interaction:TYR:63    NaN
hydroph_interaction:TYR:63     -1
Name: 11, dtype: object

>  <hbond:TYR:63>  (13) 
hbond:TYR:63    NaN
hbond:TYR:63     -1
Name: 11, dtype: object

>  <pistack:TYR:63>  (13) 
pistack:TYR:63    NaN
pistack:TYR:63     -1
Name: 11, dtype: object

>  <pication:TYR:63>  (13) 
pication:TYR:63    NaN
pication:TYR:63     -1
Name: 11, dtype: object

>  <halogenbond:TYR:64>  (13) 
halogenbond:TYR:64    NaN
halogenbond:TYR:64     -1
Name: 11, dtype: object

>  <hbond:TYR:64>  (13) 
hbond:TYR:64    NaN
hbond:TYR:64     -1
Name: 11, dtype: object

>  <hydroph_interaction:TYR:64>  (13) 
hydroph_interaction:TYR:64    NaN
hydroph_interaction:TYR:64     -1
Name: 11, dtype: object

>  <halogenbond:CYS:65>  (13) 
halogenbond:CYS:65    NaN
halogenbond:CYS:65     -1
Name: 11, dtype: object

>  <hbond:CYS:65>  (13) 
hbond:CYS:65    NaN
hbond:CYS:65     -1
Name: 11, dtype: object

>  <hbond:SER:66>  (13) 
hbond:SER:66    NaN
hbond:SER:66     -1
Name: 11, dtype: object

>  <halogenbond:SER:66>  (13) 
halogenbond:SER:66    NaN
halogenbond:SER:66     -1
Name: 11, dtype: object

>  <hbond:SER:67>  (13) 
hbond:SER:67    NaN
hbond:SER:67     -1
Name: 11, dtype: object

>  <halogenbond:SER:67>  (13) 
halogenbond:SER:67    NaN
halogenbond:SER:67     -1
Name: 11, dtype: object

>  <hbond:ARG:68>  (13) 
hbond:ARG:68    NaN
hbond:ARG:68     -1
Name: 11, dtype: object

>  <saltbridge:ARG:68>  (13) 
saltbridge:ARG:68    NaN
saltbridge:ARG:68     -1
Name: 11, dtype: object

>  <hydroph_interaction:ARG:68>  (13) 
hydroph_interaction:ARG:68    NaN
hydroph_interaction:ARG:68     -1
Name: 11, dtype: object

>  <pication:ARG:68>  (13) 
pication:ARG:68    NaN
pication:ARG:68     -1
Name: 11, dtype: object

>  <hydroph_interaction:TYR:72>  (13) 
hydroph_interaction:TYR:72    NaN
hydroph_interaction:TYR:72     -1
Name: 11, dtype: object

>  <hydroph_interaction:VAL:74>  (13) 
hydroph_interaction:VAL:74    NaN
hydroph_interaction:VAL:74     -1
Name: 11, dtype: object

>  <hydroph_interaction:PHE:76>  (13) 
hydroph_interaction:PHE:76    NaN
hydroph_interaction:PHE:76     -1
Name: 11, dtype: object

>  <hbond:SER:77>  (13) 
hbond:SER:77    NaN
hbond:SER:77     -1
Name: 11, dtype: object

>  <hbond:SER:80>  (13) 
hbond:SER:80    NaN
hbond:SER:80     -1
Name: 11, dtype: object

>  <hbond:LEU:81>  (13) 
hbond:LEU:81    NaN
hbond:LEU:81     -1
Name: 11, dtype: object

>  <halogenbond:LEU:81>  (13) 
halogenbond:LEU:81    NaN
halogenbond:LEU:81     -1
Name: 11, dtype: object

>  <hydroph_interaction:LEU:81>  (13) 
hydroph_interaction:LEU:81    NaN
hydroph_interaction:LEU:81     -1
Name: 11, dtype: object

>  <hydroph_interaction:ILE:82>  (13) 
hydroph_interaction:ILE:82    NaN
hydroph_interaction:ILE:82     -1
Name: 11, dtype: object

>  <halogenbond:ILE:82>  (13) 
halogenbond:ILE:82    NaN
halogenbond:ILE:82     -1
Name: 11, dtype: object

>  <hbond:ILE:82>  (13) 
hbond:ILE:82    NaN
hbond:ILE:82     -1
Name: 11, dtype: object

>  <hbond:PHE:83>  (13) 
hbond:PHE:83    NaN
hbond:PHE:83     -1
Name: 11, dtype: object

>  <hydroph_interaction:PHE:83>  (13) 
hydroph_interaction:PHE:83    NaN
hydroph_interaction:PHE:83     -1
Name: 11, dtype: object

>  <halogenbond:PHE:83>  (13) 
halogenbond:PHE:83    NaN
halogenbond:PHE:83     -1
Name: 11, dtype: object

>  <pistack:PHE:83>  (13) 
pistack:PHE:83    NaN
pistack:PHE:83     -1
Name: 11, dtype: object

>  <pication:PHE:83>  (13) 
pication:PHE:83    NaN
pication:PHE:83     -1
Name: 11, dtype: object

>  <hydroph_interaction:VAL:84>  (13) 
hydroph_interaction:VAL:84    0.0
hydroph_interaction:VAL:84      0
Name: 11, dtype: object

>  <halogenbond:VAL:84>  (13) 
halogenbond:VAL:84    NaN
halogenbond:VAL:84     -1
Name: 11, dtype: object

>  <hbond:VAL:84>  (13) 
hbond:VAL:84    NaN
hbond:VAL:84     -1
Name: 11, dtype: object

>  <hydroph_interaction:GLU:85>  (13) 
hydroph_interaction:GLU:85    0.0
hydroph_interaction:GLU:85      0
Name: 11, dtype: object

>  <hbond:GLU:85>  (13) 
hbond:GLU:85    NaN
hbond:GLU:85     -1
Name: 11, dtype: object

>  <halogenbond:GLU:85>  (13) 
halogenbond:GLU:85    NaN
halogenbond:GLU:85     -1
Name: 11, dtype: object

>  <saltbridge:GLU:85>  (13) 
saltbridge:GLU:85    NaN
saltbridge:GLU:85     -1
Name: 11, dtype: object

>  <halogenbond:ALA:86>  (13) 
halogenbond:ALA:86    0.0
halogenbond:ALA:86      0
Name: 11, dtype: object

>  <hbond:ALA:86>  (13) 
hbond:ALA:86    NaN
hbond:ALA:86     -1
Name: 11, dtype: object

>  <hydroph_interaction:ALA:86>  (13) 
hydroph_interaction:ALA:86    NaN
hydroph_interaction:ALA:86     -1
Name: 11, dtype: object

>  <hbond:SER:87>  (13) 
hbond:SER:87    1
hbond:SER:87    1
Name: 11, dtype: object

>  <halogenbond:SER:87>  (13) 
halogenbond:SER:87    NaN
halogenbond:SER:87     -1
Name: 11, dtype: object

>  <hbond:GLU:88>  (13) 
hbond:GLU:88    0.0
hbond:GLU:88      0
Name: 11, dtype: object

>  <hydroph_interaction:GLU:88>  (13) 
hydroph_interaction:GLU:88    0.0
hydroph_interaction:GLU:88      0
Name: 11, dtype: object

>  <halogenbond:GLU:88>  (13) 
halogenbond:GLU:88    NaN
halogenbond:GLU:88     -1
Name: 11, dtype: object

>  <saltbridge:GLU:88>  (13) 
saltbridge:GLU:88    NaN
saltbridge:GLU:88     -1
Name: 11, dtype: object

>  <hydroph_interaction:TYR:89>  (13) 
hydroph_interaction:TYR:89    0.0
hydroph_interaction:TYR:89      0
Name: 11, dtype: object

>  <pistack:TYR:89>  (13) 
pistack:TYR:89    NaN
pistack:TYR:89     -1
Name: 11, dtype: object

>  <hbond:TYR:89>  (13) 
hbond:TYR:89    NaN
hbond:TYR:89     -1
Name: 11, dtype: object

>  <halogenbond:TYR:89>  (13) 
halogenbond:TYR:89    NaN
halogenbond:TYR:89     -1
Name: 11, dtype: object

>  <hydroph_interaction:TYR:90>  (13) 
hydroph_interaction:TYR:90    0.0
hydroph_interaction:TYR:90      0
Name: 11, dtype: object

>  <hbond:TYR:90>  (13) 
hbond:TYR:90    0.0
hbond:TYR:90      0
Name: 11, dtype: object

>  <pistack:TYR:90>  (13) 
pistack:TYR:90    NaN
pistack:TYR:90     -1
Name: 11, dtype: object

>  <halogenbond:TYR:90>  (13) 
halogenbond:TYR:90    NaN
halogenbond:TYR:90     -1
Name: 11, dtype: object

>  <pication:TYR:90>  (13) 
pication:TYR:90    NaN
pication:TYR:90     -1
Name: 11, dtype: object

>  <hbond:PRO:91>  (13) 
hbond:PRO:91    NaN
hbond:PRO:91     -1
Name: 11, dtype: object

>  <hydroph_interaction:PRO:91>  (13) 
hydroph_interaction:PRO:91    NaN
hydroph_interaction:PRO:91     -1
Name: 11, dtype: object

>  <halogenbond:PRO:91>  (13) 
halogenbond:PRO:91    NaN
halogenbond:PRO:91     -1
Name: 11, dtype: object

>  <hbond:ALA:92>  (13) 
hbond:ALA:92    NaN
hbond:ALA:92     -1
Name: 11, dtype: object

>  <hydroph_interaction:ALA:92>  (13) 
hydroph_interaction:ALA:92    NaN
hydroph_interaction:ALA:92     -1
Name: 11, dtype: object

>  <saltbridge:ARG:93>  (13) 
saltbridge:ARG:93    NaN
saltbridge:ARG:93     -1
Name: 11, dtype: object

>  <hbond:ARG:93>  (13) 
hbond:ARG:93    NaN
hbond:ARG:93     -1
Name: 11, dtype: object

>  <hydroph_interaction:ARG:93>  (13) 
hydroph_interaction:ARG:93    NaN
hydroph_interaction:ARG:93     -1
Name: 11, dtype: object

>  <halogenbond:ARG:93>  (13) 
halogenbond:ARG:93    NaN
halogenbond:ARG:93     -1
Name: 11, dtype: object

>  <pication:ARG:93>  (13) 
pication:ARG:93    NaN
pication:ARG:93     -1
Name: 11, dtype: object

>  <hydroph_interaction:TYR:94>  (13) 
hydroph_interaction:TYR:94    NaN
hydroph_interaction:TYR:94     -1
Name: 11, dtype: object

>  <pistack:TYR:94>  (13) 
pistack:TYR:94    NaN
pistack:TYR:94     -1
Name: 11, dtype: object

>  <hbond:TYR:94>  (13) 
hbond:TYR:94    NaN
hbond:TYR:94     -1
Name: 11, dtype: object

>  <hbond:GLN:95>  (13) 
hbond:GLN:95    NaN
hbond:GLN:95     -1
Name: 11, dtype: object

>  <hydroph_interaction:GLN:95>  (13) 
hydroph_interaction:GLN:95    NaN
hydroph_interaction:GLN:95     -1
Name: 11, dtype: object

>  <halogenbond:GLN:95>  (13) 
halogenbond:GLN:95    NaN
halogenbond:GLN:95     -1
Name: 11, dtype: object

>  <hbond:SER:96>  (13) 
hbond:SER:96    NaN
hbond:SER:96     -1
Name: 11, dtype: object

>  <halogenbond:HIS:97>  (13) 
halogenbond:HIS:97    NaN
halogenbond:HIS:97     -1
Name: 11, dtype: object

>  <hydroph_interaction:LEU:98>  (13) 
hydroph_interaction:LEU:98    NaN
hydroph_interaction:LEU:98     -1
Name: 11, dtype: object

>  <hbond:LEU:98>  (13) 
hbond:LEU:98    NaN
hbond:LEU:98     -1
Name: 11, dtype: object

>  <halogenbond:LEU:98>  (13) 
halogenbond:LEU:98    NaN
halogenbond:LEU:98     -1
Name: 11, dtype: object

>  <hbond:MET:99>  (13) 
hbond:MET:99    NaN
hbond:MET:99     -1
Name: 11, dtype: object

>  <hydroph_interaction:MET:99>  (13) 
hydroph_interaction:MET:99    NaN
hydroph_interaction:MET:99     -1
Name: 11, dtype: object

>  <halogenbond:MET:99>  (13) 
halogenbond:MET:99    NaN
halogenbond:MET:99     -1
Name: 11, dtype: object

>  <hydroph_interaction:LEU:100>  (13) 
hydroph_interaction:LEU:100    NaN
hydroph_interaction:LEU:100     -1
Name: 11, dtype: object

>  <hbond:LEU:100>  (13) 
hbond:LEU:100    NaN
hbond:LEU:100     -1
Name: 11, dtype: object

>  <hbond:ALA:101>  (13) 
hbond:ALA:101    NaN
hbond:ALA:101     -1
Name: 11, dtype: object

>  <hydroph_interaction:ALA:101>  (13) 
hydroph_interaction:ALA:101    NaN
hydroph_interaction:ALA:101     -1
Name: 11, dtype: object

>  <hydroph_interaction:VAL:102>  (13) 
hydroph_interaction:VAL:102    NaN
hydroph_interaction:VAL:102     -1
Name: 11, dtype: object

>  <hbond:VAL:102>  (13) 
hbond:VAL:102    NaN
hbond:VAL:102     -1
Name: 11, dtype: object

>  <hbond:GLY:103>  (13) 
hbond:GLY:103    NaN
hbond:GLY:103     -1
Name: 11, dtype: object

>  <halogenbond:GLY:103>  (13) 
halogenbond:GLY:103    NaN
halogenbond:GLY:103     -1
Name: 11, dtype: object

>  <hbond:HIS:104>  (13) 
hbond:HIS:104    NaN
hbond:HIS:104     -1
Name: 11, dtype: object

>  <saltbridge:HIS:104>  (13) 
saltbridge:HIS:104    NaN
saltbridge:HIS:104     -1
Name: 11, dtype: object

>  <pication:HIS:104>  (13) 
pication:HIS:104    NaN
pication:HIS:104     -1
Name: 11, dtype: object

>  <halogenbond:HIS:104>  (13) 
halogenbond:HIS:104    NaN
halogenbond:HIS:104     -1
Name: 11, dtype: object

>  <hydroph_interaction:HIS:104>  (13) 
hydroph_interaction:HIS:104    NaN
hydroph_interaction:HIS:104     -1
Name: 11, dtype: object

>  <pistack:HIS:104>  (13) 
pistack:HIS:104    NaN
pistack:HIS:104     -1
Name: 11, dtype: object

>  <halogenbond:SER:105>  (13) 
halogenbond:SER:105    0.0
halogenbond:SER:105      0
Name: 11, dtype: object

>  <hbond:SER:105>  (13) 
hbond:SER:105    0.0
hbond:SER:105      0
Name: 11, dtype: object

>  <hbond:GLU:106>  (13) 
hbond:GLU:106    0.0
hbond:GLU:106      0
Name: 11, dtype: object

>  <hydroph_interaction:GLU:106>  (13) 
hydroph_interaction:GLU:106    NaN
hydroph_interaction:GLU:106     -1
Name: 11, dtype: object

>  <saltbridge:GLU:106>  (13) 
saltbridge:GLU:106    NaN
saltbridge:GLU:106     -1
Name: 11, dtype: object

>  <halogenbond:GLU:106>  (13) 
halogenbond:GLU:106    NaN
halogenbond:GLU:106     -1
Name: 11, dtype: object

>  <hydroph_interaction:PRO:107>  (13) 
hydroph_interaction:PRO:107    1
hydroph_interaction:PRO:107    1
Name: 11, dtype: object

>  <hbond:PRO:107>  (13) 
hbond:PRO:107    0.0
hbond:PRO:107      0
Name: 11, dtype: object

>  <halogenbond:PRO:107>  (13) 
halogenbond:PRO:107    NaN
halogenbond:PRO:107     -1
Name: 11, dtype: object

>  <hbond:GLY:108>  (13) 
hbond:GLY:108    NaN
hbond:GLY:108     -1
Name: 11, dtype: object

>  <halogenbond:GLY:108>  (13) 
halogenbond:GLY:108    NaN
halogenbond:GLY:108     -1
Name: 11, dtype: object

>  <hbond:ASP:109>  (13) 
hbond:ASP:109    0.0
hbond:ASP:109      0
Name: 11, dtype: object

>  <hydroph_interaction:ASP:109>  (13) 
hydroph_interaction:ASP:109    0.0
hydroph_interaction:ASP:109      0
Name: 11, dtype: object

>  <saltbridge:ASP:109>  (13) 
saltbridge:ASP:109    NaN
saltbridge:ASP:109     -1
Name: 11, dtype: object

>  <halogenbond:CYS:110>  (13) 
halogenbond:CYS:110    NaN
halogenbond:CYS:110     -1
Name: 11, dtype: object

>  <hbond:CYS:110>  (13) 
hbond:CYS:110    0.0
hbond:CYS:110      0
Name: 11, dtype: object

>  <hbond:GLY:111>  (13) 
hbond:GLY:111    NaN
hbond:GLY:111     -1
Name: 11, dtype: object

>  <hbond:GLY:112>  (13) 
hbond:GLY:112    NaN
hbond:GLY:112     -1
Name: 11, dtype: object

>  <hbond:ILE:113>  (13) 
hbond:ILE:113    NaN
hbond:ILE:113     -1
Name: 11, dtype: object

>  <hydroph_interaction:LEU:114>  (13) 
hydroph_interaction:LEU:114    NaN
hydroph_interaction:LEU:114     -1
Name: 11, dtype: object

>  <hbond:LEU:114>  (13) 
hbond:LEU:114    NaN
hbond:LEU:114     -1
Name: 11, dtype: object

>  <hydroph_interaction:ILE:123>  (13) 
hydroph_interaction:ILE:123    NaN
hydroph_interaction:ILE:123     -1
Name: 11, dtype: object

>  <hbond:ILE:123>  (13) 
hbond:ILE:123    NaN
hbond:ILE:123     -1
Name: 11, dtype: object

>  <hydroph_interaction:VAL:124>  (13) 
hydroph_interaction:VAL:124    1.0
hydroph_interaction:VAL:124      1
Name: 11, dtype: object

>  <hbond:VAL:124>  (13) 
hbond:VAL:124    NaN
hbond:VAL:124     -1
Name: 11, dtype: object

>  <halogenbond:VAL:124>  (13) 
halogenbond:VAL:124    NaN
halogenbond:VAL:124     -1
Name: 11, dtype: object

>  <hbond:SER:125>  (13) 
hbond:SER:125    0
hbond:SER:125    0
Name: 11, dtype: object

>  <halogenbond:SER:125>  (13) 
halogenbond:SER:125    NaN
halogenbond:SER:125     -1
Name: 11, dtype: object

>  <hydroph_interaction:THR:126>  (13) 
hydroph_interaction:THR:126    0.0
hydroph_interaction:THR:126      0
Name: 11, dtype: object

>  <hbond:THR:126>  (13) 
hbond:THR:126    0.0
hbond:THR:126      0
Name: 11, dtype: object

>  <halogenbond:THR:126>  (13) 
halogenbond:THR:126    NaN
halogenbond:THR:126     -1
Name: 11, dtype: object

>  <hbond:GLY:127>  (13) 
hbond:GLY:127    0
hbond:GLY:127    0
Name: 11, dtype: object

>  <halogenbond:GLY:127>  (13) 
halogenbond:GLY:127    NaN
halogenbond:GLY:127     -1
Name: 11, dtype: object

>  <hydroph_interaction:GLY:127>  (13) 
hydroph_interaction:GLY:127    NaN
hydroph_interaction:GLY:127     -1
Name: 11, dtype: object

>  <hbond:GLY:128>  (13) 
hbond:GLY:128    NaN
hbond:GLY:128     -1
Name: 11, dtype: object

>  <halogenbond:GLY:128>  (13) 
halogenbond:GLY:128    NaN
halogenbond:GLY:128     -1
Name: 11, dtype: object

>  <hydroph_interaction:GLY:128>  (13) 
hydroph_interaction:GLY:128    NaN
hydroph_interaction:GLY:128     -1
Name: 11, dtype: object

>  <hbond:ASN:129>  (13) 
hbond:ASN:129    NaN
hbond:ASN:129     -1
Name: 11, dtype: object

>  <hydroph_interaction:ASN:129>  (13) 
hydroph_interaction:ASN:129    NaN
hydroph_interaction:ASN:129     -1
Name: 11, dtype: object

>  <halogenbond:ASN:129>  (13) 
halogenbond:ASN:129    NaN
halogenbond:ASN:129     -1
Name: 11, dtype: object

>  <hbond:GLY:130>  (13) 
hbond:GLY:130    NaN
hbond:GLY:130     -1
Name: 11, dtype: object

>  <hbond:LEU:131>  (13) 
hbond:LEU:131    NaN
hbond:LEU:131     -1
Name: 11, dtype: object

>  <hydroph_interaction:LEU:131>  (13) 
hydroph_interaction:LEU:131    NaN
hydroph_interaction:LEU:131     -1
Name: 11, dtype: object

>  <halogenbond:LEU:131>  (13) 
halogenbond:LEU:131    NaN
halogenbond:LEU:131     -1
Name: 11, dtype: object

>  <hydroph_interaction:VAL:132>  (13) 
hydroph_interaction:VAL:132    NaN
hydroph_interaction:VAL:132     -1
Name: 11, dtype: object

>  <hbond:VAL:132>  (13) 
hbond:VAL:132    NaN
hbond:VAL:132     -1
Name: 11, dtype: object

>  <hbond:GLY:133>  (13) 
hbond:GLY:133    0.0
hbond:GLY:133      0
Name: 11, dtype: object

>  <halogenbond:GLY:133>  (13) 
halogenbond:GLY:133    NaN
halogenbond:GLY:133     -1
Name: 11, dtype: object

>  <hydroph_interaction:PHE:134>  (13) 
hydroph_interaction:PHE:134    NaN
hydroph_interaction:PHE:134     -1
Name: 11, dtype: object

>  <hbond:PHE:134>  (13) 
hbond:PHE:134    NaN
hbond:PHE:134     -1
Name: 11, dtype: object

>  <pistack:PHE:134>  (13) 
pistack:PHE:134    NaN
pistack:PHE:134     -1
Name: 11, dtype: object

>  <pication:PHE:134>  (13) 
pication:PHE:134    NaN
pication:PHE:134     -1
Name: 11, dtype: object

>  <halogenbond:PHE:134>  (13) 
halogenbond:PHE:134    NaN
halogenbond:PHE:134     -1
Name: 11, dtype: object

>  <hydroph_interaction:ALA:135>  (13) 
hydroph_interaction:ALA:135    NaN
hydroph_interaction:ALA:135     -1
Name: 11, dtype: object

>  <hbond:ALA:135>  (13) 
hbond:ALA:135    NaN
hbond:ALA:135     -1
Name: 11, dtype: object

$$$$
PV_002747266492
     RDKit          3D

 11 12  0  0  0  0  0  0  0  0999 V2000
   30.3306    8.4911    8.8885 C   0  0  0  0  0  0  0  0  0  0  0  0
   31.1382    9.2640    7.8662 C   0  0  0  0  0  0  0  0  0  0  0  0
   32.1869    8.5017    7.2345 N   0  0  0  0  0  0  0  0  0  0  0  0
   32.7015    9.4605    6.4135 N   0  0  0  0  0  0  0  0  0  0  0  0
   33.8337    9.1982    5.5495 C   0  0  0  0  0  0  0  0  0  0  0  0
   32.0531   10.6626    6.4941 C   0  0  0  0  0  0  0  0  0  0  0  0
   32.2202   11.9848    5.8021 C   0  0  0  0  0  0  0  0  0  0  0  0
   31.2602   13.0293    6.1954 C   0  0  0  0  0  0  0  0  0  0  0  0
   30.2901   12.8795    7.1305 N   0  0  0  0  0  0  0  0  0  0  0  0
   30.1774   11.5657    7.7972 C   0  0  0  0  0  0  0  0  0  0  0  0
   31.0500   10.5417    7.4349 C   0  0  0  0  0  0  0  0  0  0  0  0
  1  2  1  0
  2  3  2  0
  3  4  1  0
  4  5  1  0
  4  6  1  0
  6  7  2  0
  7  8  1  0
  8  9  2  0
  9 10  1  0
 10 11  2  0
 11  2  1  0
 11  6  1  0
A    1
 C1 
A    2
 C2 
A    3
 N1 
A    4
 N2 
A    5
 C3 
A    6
 C4 
A    7
 C5 
A    8
 C6 
A    9
 N3 
A   10
 C7 
A   11
 C8 
M  END
>  <ref_pdb>  (14) 
Ax0310a

>  <ref_mols>  (14) 
Ax0310a,Ax0556a,Ax0884a

>  <original SMILES>  (14) 
Cc1nn(C)c2ccncc12

>  <rationale>  (14) 
info halogenbond:G127+D39+A86+S125+E85+Q95+E106+P107+H104+Y64+C65+F83+R93+L131+I82+G128+P91+N19+H21+V84+G133+Y90+Y89+H97+L81+F134+L98+R20+G103+S66+S67+S7+G108+R38+V124+M99+S36; hbond:S87+G108+G103+H104+R68+V124+P91+F83+S67+S7+S66+G112+G133+V132+R20+Y89+S77+A135+Y63+A92+A101+M99+F134+L100+I82+Y64+S36+L98+V84+L81+Y94+S80+R38+S37+V102+G8+I123+G111+I113+L114+C65+L22+S96; hydroph_interaction:V124+P107+N129+D39+N19+L40+I123+A135+Q95+I82+L100+L98+F83+R93+Y63+F134+H104+R20+A86+V74+P91+A101+F76+M99+L114+A92+Y94+R68+Y72+Y64+V18+V102+W28+G127+G128+L81; pication:H104+R93+Y63+F134+Y90+R68+F83+R20; pistack:H104+F134+Y63+F83+Y94; saltbridge:D39+R93+H104+E106+D109+E85+R68+R20; 

>  <intxn_cluster>  (14) 
-1

>  <intxn_cluster_rank>  (14) 
-1

>  <N_interactions>  (14) 
3

>  <∆∆G>  (14) 
-7.304729

>  <$/mg>  (14) 
0.0

>  <comRMSD>  (14) 
0.897406

>  <N_rotatable_bonds>  (14) 
2

>  <deep_P1_sidechain>  (14) 
nan

>  <farthest_distance_to_substrate>  (14) 
2.915147

>  <hbond:SER:7>  (14) 
hbond:SER:7    NaN
hbond:SER:7     -1
Name: 12, dtype: object

>  <halogenbond:SER:7>  (14) 
halogenbond:SER:7    NaN
halogenbond:SER:7     -1
Name: 12, dtype: object

>  <hbond:GLY:8>  (14) 
hbond:GLY:8    NaN
hbond:GLY:8     -1
Name: 12, dtype: object

>  <hydroph_interaction:VAL:18>  (14) 
hydroph_interaction:VAL:18    NaN
hydroph_interaction:VAL:18     -1
Name: 12, dtype: object

>  <hbond:ASN:19>  (14) 
hbond:ASN:19    0.0
hbond:ASN:19      0
Name: 12, dtype: object

>  <hydroph_interaction:ASN:19>  (14) 
hydroph_interaction:ASN:19    NaN
hydroph_interaction:ASN:19     -1
Name: 12, dtype: object

>  <halogenbond:ASN:19>  (14) 
halogenbond:ASN:19    NaN
halogenbond:ASN:19     -1
Name: 12, dtype: object

>  <hbond:ARG:20>  (14) 
hbond:ARG:20    NaN
hbond:ARG:20     -1
Name: 12, dtype: object

>  <hydroph_interaction:ARG:20>  (14) 
hydroph_interaction:ARG:20    NaN
hydroph_interaction:ARG:20     -1
Name: 12, dtype: object

>  <saltbridge:ARG:20>  (14) 
saltbridge:ARG:20    NaN
saltbridge:ARG:20     -1
Name: 12, dtype: object

>  <halogenbond:ARG:20>  (14) 
halogenbond:ARG:20    NaN
halogenbond:ARG:20     -1
Name: 12, dtype: object

>  <pication:ARG:20>  (14) 
pication:ARG:20    NaN
pication:ARG:20     -1
Name: 12, dtype: object

>  <hbond:HIS:21>  (14) 
hbond:HIS:21    0.0
hbond:HIS:21      0
Name: 12, dtype: object

>  <hydroph_interaction:HIS:21>  (14) 
hydroph_interaction:HIS:21    0.0
hydroph_interaction:HIS:21      0
Name: 12, dtype: object

>  <pistack:HIS:21>  (14) 
pistack:HIS:21    0.0
pistack:HIS:21      0
Name: 12, dtype: object

>  <pication:HIS:21>  (14) 
pication:HIS:21    0.0
pication:HIS:21      0
Name: 12, dtype: object

>  <saltbridge:HIS:21>  (14) 
saltbridge:HIS:21    0.0
saltbridge:HIS:21      0
Name: 12, dtype: object

>  <halogenbond:HIS:21>  (14) 
halogenbond:HIS:21    NaN
halogenbond:HIS:21     -1
Name: 12, dtype: object

>  <hydroph_interaction:LEU:22>  (14) 
hydroph_interaction:LEU:22    0.0
hydroph_interaction:LEU:22      0
Name: 12, dtype: object

>  <hbond:LEU:22>  (14) 
hbond:LEU:22    NaN
hbond:LEU:22     -1
Name: 12, dtype: object

>  <hydroph_interaction:TRP:28>  (14) 
hydroph_interaction:TRP:28    NaN
hydroph_interaction:TRP:28     -1
Name: 12, dtype: object

>  <hbond:SER:36>  (14) 
hbond:SER:36    NaN
hbond:SER:36     -1
Name: 12, dtype: object

>  <halogenbond:SER:36>  (14) 
halogenbond:SER:36    NaN
halogenbond:SER:36     -1
Name: 12, dtype: object

>  <hbond:SER:37>  (14) 
hbond:SER:37    NaN
hbond:SER:37     -1
Name: 12, dtype: object

>  <hbond:ARG:38>  (14) 
hbond:ARG:38    NaN
hbond:ARG:38     -1
Name: 12, dtype: object

>  <halogenbond:ARG:38>  (14) 
halogenbond:ARG:38    NaN
halogenbond:ARG:38     -1
Name: 12, dtype: object

>  <saltbridge:ASP:39>  (14) 
saltbridge:ASP:39    NaN
saltbridge:ASP:39     -1
Name: 12, dtype: object

>  <halogenbond:ASP:39>  (14) 
halogenbond:ASP:39    NaN
halogenbond:ASP:39     -1
Name: 12, dtype: object

>  <hbond:ASP:39>  (14) 
hbond:ASP:39    0.0
hbond:ASP:39      0
Name: 12, dtype: object

>  <hydroph_interaction:ASP:39>  (14) 
hydroph_interaction:ASP:39    NaN
hydroph_interaction:ASP:39     -1
Name: 12, dtype: object

>  <hydroph_interaction:LEU:40>  (14) 
hydroph_interaction:LEU:40    NaN
hydroph_interaction:LEU:40     -1
Name: 12, dtype: object

>  <hydroph_interaction:TYR:63>  (14) 
hydroph_interaction:TYR:63    NaN
hydroph_interaction:TYR:63     -1
Name: 12, dtype: object

>  <hbond:TYR:63>  (14) 
hbond:TYR:63    NaN
hbond:TYR:63     -1
Name: 12, dtype: object

>  <pistack:TYR:63>  (14) 
pistack:TYR:63    NaN
pistack:TYR:63     -1
Name: 12, dtype: object

>  <pication:TYR:63>  (14) 
pication:TYR:63    NaN
pication:TYR:63     -1
Name: 12, dtype: object

>  <halogenbond:TYR:64>  (14) 
halogenbond:TYR:64    NaN
halogenbond:TYR:64     -1
Name: 12, dtype: object

>  <hbond:TYR:64>  (14) 
hbond:TYR:64    NaN
hbond:TYR:64     -1
Name: 12, dtype: object

>  <hydroph_interaction:TYR:64>  (14) 
hydroph_interaction:TYR:64    NaN
hydroph_interaction:TYR:64     -1
Name: 12, dtype: object

>  <halogenbond:CYS:65>  (14) 
halogenbond:CYS:65    NaN
halogenbond:CYS:65     -1
Name: 12, dtype: object

>  <hbond:CYS:65>  (14) 
hbond:CYS:65    NaN
hbond:CYS:65     -1
Name: 12, dtype: object

>  <hbond:SER:66>  (14) 
hbond:SER:66    NaN
hbond:SER:66     -1
Name: 12, dtype: object

>  <halogenbond:SER:66>  (14) 
halogenbond:SER:66    NaN
halogenbond:SER:66     -1
Name: 12, dtype: object

>  <hbond:SER:67>  (14) 
hbond:SER:67    NaN
hbond:SER:67     -1
Name: 12, dtype: object

>  <halogenbond:SER:67>  (14) 
halogenbond:SER:67    NaN
halogenbond:SER:67     -1
Name: 12, dtype: object

>  <hbond:ARG:68>  (14) 
hbond:ARG:68    NaN
hbond:ARG:68     -1
Name: 12, dtype: object

>  <saltbridge:ARG:68>  (14) 
saltbridge:ARG:68    NaN
saltbridge:ARG:68     -1
Name: 12, dtype: object

>  <hydroph_interaction:ARG:68>  (14) 
hydroph_interaction:ARG:68    NaN
hydroph_interaction:ARG:68     -1
Name: 12, dtype: object

>  <pication:ARG:68>  (14) 
pication:ARG:68    NaN
pication:ARG:68     -1
Name: 12, dtype: object

>  <hydroph_interaction:TYR:72>  (14) 
hydroph_interaction:TYR:72    NaN
hydroph_interaction:TYR:72     -1
Name: 12, dtype: object

>  <hydroph_interaction:VAL:74>  (14) 
hydroph_interaction:VAL:74    NaN
hydroph_interaction:VAL:74     -1
Name: 12, dtype: object

>  <hydroph_interaction:PHE:76>  (14) 
hydroph_interaction:PHE:76    NaN
hydroph_interaction:PHE:76     -1
Name: 12, dtype: object

>  <hbond:SER:77>  (14) 
hbond:SER:77    NaN
hbond:SER:77     -1
Name: 12, dtype: object

>  <hbond:SER:80>  (14) 
hbond:SER:80    NaN
hbond:SER:80     -1
Name: 12, dtype: object

>  <hbond:LEU:81>  (14) 
hbond:LEU:81    NaN
hbond:LEU:81     -1
Name: 12, dtype: object

>  <halogenbond:LEU:81>  (14) 
halogenbond:LEU:81    NaN
halogenbond:LEU:81     -1
Name: 12, dtype: object

>  <hydroph_interaction:LEU:81>  (14) 
hydroph_interaction:LEU:81    NaN
hydroph_interaction:LEU:81     -1
Name: 12, dtype: object

>  <hydroph_interaction:ILE:82>  (14) 
hydroph_interaction:ILE:82    NaN
hydroph_interaction:ILE:82     -1
Name: 12, dtype: object

>  <halogenbond:ILE:82>  (14) 
halogenbond:ILE:82    NaN
halogenbond:ILE:82     -1
Name: 12, dtype: object

>  <hbond:ILE:82>  (14) 
hbond:ILE:82    NaN
hbond:ILE:82     -1
Name: 12, dtype: object

>  <hbond:PHE:83>  (14) 
hbond:PHE:83    NaN
hbond:PHE:83     -1
Name: 12, dtype: object

>  <hydroph_interaction:PHE:83>  (14) 
hydroph_interaction:PHE:83    NaN
hydroph_interaction:PHE:83     -1
Name: 12, dtype: object

>  <halogenbond:PHE:83>  (14) 
halogenbond:PHE:83    NaN
halogenbond:PHE:83     -1
Name: 12, dtype: object

>  <pistack:PHE:83>  (14) 
pistack:PHE:83    NaN
pistack:PHE:83     -1
Name: 12, dtype: object

>  <pication:PHE:83>  (14) 
pication:PHE:83    NaN
pication:PHE:83     -1
Name: 12, dtype: object

>  <hydroph_interaction:VAL:84>  (14) 
hydroph_interaction:VAL:84    0.0
hydroph_interaction:VAL:84      0
Name: 12, dtype: object

>  <halogenbond:VAL:84>  (14) 
halogenbond:VAL:84    NaN
halogenbond:VAL:84     -1
Name: 12, dtype: object

>  <hbond:VAL:84>  (14) 
hbond:VAL:84    NaN
hbond:VAL:84     -1
Name: 12, dtype: object

>  <hydroph_interaction:GLU:85>  (14) 
hydroph_interaction:GLU:85    0.0
hydroph_interaction:GLU:85      0
Name: 12, dtype: object

>  <hbond:GLU:85>  (14) 
hbond:GLU:85    0.0
hbond:GLU:85      0
Name: 12, dtype: object

>  <halogenbond:GLU:85>  (14) 
halogenbond:GLU:85    NaN
halogenbond:GLU:85     -1
Name: 12, dtype: object

>  <saltbridge:GLU:85>  (14) 
saltbridge:GLU:85    NaN
saltbridge:GLU:85     -1
Name: 12, dtype: object

>  <halogenbond:ALA:86>  (14) 
halogenbond:ALA:86    NaN
halogenbond:ALA:86     -1
Name: 12, dtype: object

>  <hbond:ALA:86>  (14) 
hbond:ALA:86    0.0
hbond:ALA:86      0
Name: 12, dtype: object

>  <hydroph_interaction:ALA:86>  (14) 
hydroph_interaction:ALA:86    NaN
hydroph_interaction:ALA:86     -1
Name: 12, dtype: object

>  <hbond:SER:87>  (14) 
hbond:SER:87    1
hbond:SER:87    1
Name: 12, dtype: object

>  <halogenbond:SER:87>  (14) 
halogenbond:SER:87    0.0
halogenbond:SER:87      0
Name: 12, dtype: object

>  <hbond:GLU:88>  (14) 
hbond:GLU:88    0.0
hbond:GLU:88      0
Name: 12, dtype: object

>  <hydroph_interaction:GLU:88>  (14) 
hydroph_interaction:GLU:88    0.0
hydroph_interaction:GLU:88      0
Name: 12, dtype: object

>  <halogenbond:GLU:88>  (14) 
halogenbond:GLU:88    0.0
halogenbond:GLU:88      0
Name: 12, dtype: object

>  <saltbridge:GLU:88>  (14) 
saltbridge:GLU:88    0.0
saltbridge:GLU:88      0
Name: 12, dtype: object

>  <hydroph_interaction:TYR:89>  (14) 
hydroph_interaction:TYR:89    0.0
hydroph_interaction:TYR:89      0
Name: 12, dtype: object

>  <pistack:TYR:89>  (14) 
pistack:TYR:89    0.0
pistack:TYR:89      0
Name: 12, dtype: object

>  <hbond:TYR:89>  (14) 
hbond:TYR:89    NaN
hbond:TYR:89     -1
Name: 12, dtype: object

>  <halogenbond:TYR:89>  (14) 
halogenbond:TYR:89    NaN
halogenbond:TYR:89     -1
Name: 12, dtype: object

>  <hydroph_interaction:TYR:90>  (14) 
hydroph_interaction:TYR:90    0.0
hydroph_interaction:TYR:90      0
Name: 12, dtype: object

>  <hbond:TYR:90>  (14) 
hbond:TYR:90    0.0
hbond:TYR:90      0
Name: 12, dtype: object

>  <pistack:TYR:90>  (14) 
pistack:TYR:90    0.0
pistack:TYR:90      0
Name: 12, dtype: object

>  <halogenbond:TYR:90>  (14) 
halogenbond:TYR:90    NaN
halogenbond:TYR:90     -1
Name: 12, dtype: object

>  <pication:TYR:90>  (14) 
pication:TYR:90    NaN
pication:TYR:90     -1
Name: 12, dtype: object

>  <hbond:PRO:91>  (14) 
hbond:PRO:91    NaN
hbond:PRO:91     -1
Name: 12, dtype: object

>  <hydroph_interaction:PRO:91>  (14) 
hydroph_interaction:PRO:91    NaN
hydroph_interaction:PRO:91     -1
Name: 12, dtype: object

>  <halogenbond:PRO:91>  (14) 
halogenbond:PRO:91    NaN
halogenbond:PRO:91     -1
Name: 12, dtype: object

>  <hbond:ALA:92>  (14) 
hbond:ALA:92    NaN
hbond:ALA:92     -1
Name: 12, dtype: object

>  <hydroph_interaction:ALA:92>  (14) 
hydroph_interaction:ALA:92    NaN
hydroph_interaction:ALA:92     -1
Name: 12, dtype: object

>  <saltbridge:ARG:93>  (14) 
saltbridge:ARG:93    NaN
saltbridge:ARG:93     -1
Name: 12, dtype: object

>  <hbond:ARG:93>  (14) 
hbond:ARG:93    0.0
hbond:ARG:93      0
Name: 12, dtype: object

>  <hydroph_interaction:ARG:93>  (14) 
hydroph_interaction:ARG:93    NaN
hydroph_interaction:ARG:93     -1
Name: 12, dtype: object

>  <halogenbond:ARG:93>  (14) 
halogenbond:ARG:93    NaN
halogenbond:ARG:93     -1
Name: 12, dtype: object

>  <pication:ARG:93>  (14) 
pication:ARG:93    NaN
pication:ARG:93     -1
Name: 12, dtype: object

>  <hydroph_interaction:TYR:94>  (14) 
hydroph_interaction:TYR:94    NaN
hydroph_interaction:TYR:94     -1
Name: 12, dtype: object

>  <pistack:TYR:94>  (14) 
pistack:TYR:94    NaN
pistack:TYR:94     -1
Name: 12, dtype: object

>  <hbond:TYR:94>  (14) 
hbond:TYR:94    NaN
hbond:TYR:94     -1
Name: 12, dtype: object

>  <hbond:GLN:95>  (14) 
hbond:GLN:95    0.0
hbond:GLN:95      0
Name: 12, dtype: object

>  <hydroph_interaction:GLN:95>  (14) 
hydroph_interaction:GLN:95    NaN
hydroph_interaction:GLN:95     -1
Name: 12, dtype: object

>  <halogenbond:GLN:95>  (14) 
halogenbond:GLN:95    NaN
halogenbond:GLN:95     -1
Name: 12, dtype: object

>  <hbond:SER:96>  (14) 
hbond:SER:96    NaN
hbond:SER:96     -1
Name: 12, dtype: object

>  <halogenbond:HIS:97>  (14) 
halogenbond:HIS:97    NaN
halogenbond:HIS:97     -1
Name: 12, dtype: object

>  <hydroph_interaction:LEU:98>  (14) 
hydroph_interaction:LEU:98    NaN
hydroph_interaction:LEU:98     -1
Name: 12, dtype: object

>  <hbond:LEU:98>  (14) 
hbond:LEU:98    NaN
hbond:LEU:98     -1
Name: 12, dtype: object

>  <halogenbond:LEU:98>  (14) 
halogenbond:LEU:98    NaN
halogenbond:LEU:98     -1
Name: 12, dtype: object

>  <hbond:MET:99>  (14) 
hbond:MET:99    NaN
hbond:MET:99     -1
Name: 12, dtype: object

>  <hydroph_interaction:MET:99>  (14) 
hydroph_interaction:MET:99    NaN
hydroph_interaction:MET:99     -1
Name: 12, dtype: object

>  <halogenbond:MET:99>  (14) 
halogenbond:MET:99    NaN
halogenbond:MET:99     -1
Name: 12, dtype: object

>  <hydroph_interaction:LEU:100>  (14) 
hydroph_interaction:LEU:100    NaN
hydroph_interaction:LEU:100     -1
Name: 12, dtype: object

>  <hbond:LEU:100>  (14) 
hbond:LEU:100    NaN
hbond:LEU:100     -1
Name: 12, dtype: object

>  <hbond:ALA:101>  (14) 
hbond:ALA:101    NaN
hbond:ALA:101     -1
Name: 12, dtype: object

>  <hydroph_interaction:ALA:101>  (14) 
hydroph_interaction:ALA:101    NaN
hydroph_interaction:ALA:101     -1
Name: 12, dtype: object

>  <hydroph_interaction:VAL:102>  (14) 
hydroph_interaction:VAL:102    NaN
hydroph_interaction:VAL:102     -1
Name: 12, dtype: object

>  <hbond:VAL:102>  (14) 
hbond:VAL:102    NaN
hbond:VAL:102     -1
Name: 12, dtype: object

>  <hbond:GLY:103>  (14) 
hbond:GLY:103    NaN
hbond:GLY:103     -1
Name: 12, dtype: object

>  <halogenbond:GLY:103>  (14) 
halogenbond:GLY:103    NaN
halogenbond:GLY:103     -1
Name: 12, dtype: object

>  <hbond:HIS:104>  (14) 
hbond:HIS:104    NaN
hbond:HIS:104     -1
Name: 12, dtype: object

>  <saltbridge:HIS:104>  (14) 
saltbridge:HIS:104    NaN
saltbridge:HIS:104     -1
Name: 12, dtype: object

>  <pication:HIS:104>  (14) 
pication:HIS:104    NaN
pication:HIS:104     -1
Name: 12, dtype: object

>  <halogenbond:HIS:104>  (14) 
halogenbond:HIS:104    NaN
halogenbond:HIS:104     -1
Name: 12, dtype: object

>  <hydroph_interaction:HIS:104>  (14) 
hydroph_interaction:HIS:104    NaN
hydroph_interaction:HIS:104     -1
Name: 12, dtype: object

>  <pistack:HIS:104>  (14) 
pistack:HIS:104    NaN
pistack:HIS:104     -1
Name: 12, dtype: object

>  <halogenbond:SER:105>  (14) 
halogenbond:SER:105    0.0
halogenbond:SER:105      0
Name: 12, dtype: object

>  <hbond:SER:105>  (14) 
hbond:SER:105    0.0
hbond:SER:105      0
Name: 12, dtype: object

>  <hbond:GLU:106>  (14) 
hbond:GLU:106    0.0
hbond:GLU:106      0
Name: 12, dtype: object

>  <hydroph_interaction:GLU:106>  (14) 
hydroph_interaction:GLU:106    0.0
hydroph_interaction:GLU:106      0
Name: 12, dtype: object

>  <saltbridge:GLU:106>  (14) 
saltbridge:GLU:106    NaN
saltbridge:GLU:106     -1
Name: 12, dtype: object

>  <halogenbond:GLU:106>  (14) 
halogenbond:GLU:106    NaN
halogenbond:GLU:106     -1
Name: 12, dtype: object

>  <hydroph_interaction:PRO:107>  (14) 
hydroph_interaction:PRO:107    1
hydroph_interaction:PRO:107    1
Name: 12, dtype: object

>  <hbond:PRO:107>  (14) 
hbond:PRO:107    0.0
hbond:PRO:107      0
Name: 12, dtype: object

>  <halogenbond:PRO:107>  (14) 
halogenbond:PRO:107    NaN
halogenbond:PRO:107     -1
Name: 12, dtype: object

>  <hbond:GLY:108>  (14) 
hbond:GLY:108    NaN
hbond:GLY:108     -1
Name: 12, dtype: object

>  <halogenbond:GLY:108>  (14) 
halogenbond:GLY:108    NaN
halogenbond:GLY:108     -1
Name: 12, dtype: object

>  <hbond:ASP:109>  (14) 
hbond:ASP:109    0.0
hbond:ASP:109      0
Name: 12, dtype: object

>  <hydroph_interaction:ASP:109>  (14) 
hydroph_interaction:ASP:109    0.0
hydroph_interaction:ASP:109      0
Name: 12, dtype: object

>  <saltbridge:ASP:109>  (14) 
saltbridge:ASP:109    NaN
saltbridge:ASP:109     -1
Name: 12, dtype: object

>  <halogenbond:CYS:110>  (14) 
halogenbond:CYS:110    0.0
halogenbond:CYS:110      0
Name: 12, dtype: object

>  <hbond:CYS:110>  (14) 
hbond:CYS:110    0.0
hbond:CYS:110      0
Name: 12, dtype: object

>  <hbond:GLY:111>  (14) 
hbond:GLY:111    NaN
hbond:GLY:111     -1
Name: 12, dtype: object

>  <hbond:GLY:112>  (14) 
hbond:GLY:112    NaN
hbond:GLY:112     -1
Name: 12, dtype: object

>  <hbond:ILE:113>  (14) 
hbond:ILE:113    NaN
hbond:ILE:113     -1
Name: 12, dtype: object

>  <hydroph_interaction:LEU:114>  (14) 
hydroph_interaction:LEU:114    NaN
hydroph_interaction:LEU:114     -1
Name: 12, dtype: object

>  <hbond:LEU:114>  (14) 
hbond:LEU:114    NaN
hbond:LEU:114     -1
Name: 12, dtype: object

>  <hydroph_interaction:ILE:123>  (14) 
hydroph_interaction:ILE:123    NaN
hydroph_interaction:ILE:123     -1
Name: 12, dtype: object

>  <hbond:ILE:123>  (14) 
hbond:ILE:123    NaN
hbond:ILE:123     -1
Name: 12, dtype: object

>  <hydroph_interaction:VAL:124>  (14) 
hydroph_interaction:VAL:124    1.0
hydroph_interaction:VAL:124      1
Name: 12, dtype: object

>  <hbond:VAL:124>  (14) 
hbond:VAL:124    NaN
hbond:VAL:124     -1
Name: 12, dtype: object

>  <halogenbond:VAL:124>  (14) 
halogenbond:VAL:124    NaN
halogenbond:VAL:124     -1
Name: 12, dtype: object

>  <hbond:SER:125>  (14) 
hbond:SER:125    0
hbond:SER:125    0
Name: 12, dtype: object

>  <halogenbond:SER:125>  (14) 
halogenbond:SER:125    NaN
halogenbond:SER:125     -1
Name: 12, dtype: object

>  <hydroph_interaction:THR:126>  (14) 
hydroph_interaction:THR:126    0.0
hydroph_interaction:THR:126      0
Name: 12, dtype: object

>  <hbond:THR:126>  (14) 
hbond:THR:126    0.0
hbond:THR:126      0
Name: 12, dtype: object

>  <halogenbond:THR:126>  (14) 
halogenbond:THR:126    0.0
halogenbond:THR:126      0
Name: 12, dtype: object

>  <hbond:GLY:127>  (14) 
hbond:GLY:127    0
hbond:GLY:127    0
Name: 12, dtype: object

>  <halogenbond:GLY:127>  (14) 
halogenbond:GLY:127    NaN
halogenbond:GLY:127     -1
Name: 12, dtype: object

>  <hydroph_interaction:GLY:127>  (14) 
hydroph_interaction:GLY:127    NaN
hydroph_interaction:GLY:127     -1
Name: 12, dtype: object

>  <hbond:GLY:128>  (14) 
hbond:GLY:128    0.0
hbond:GLY:128      0
Name: 12, dtype: object

>  <halogenbond:GLY:128>  (14) 
halogenbond:GLY:128    NaN
halogenbond:GLY:128     -1
Name: 12, dtype: object

>  <hydroph_interaction:GLY:128>  (14) 
hydroph_interaction:GLY:128    NaN
hydroph_interaction:GLY:128     -1
Name: 12, dtype: object

>  <hbond:ASN:129>  (14) 
hbond:ASN:129    0.0
hbond:ASN:129      0
Name: 12, dtype: object

>  <hydroph_interaction:ASN:129>  (14) 
hydroph_interaction:ASN:129    NaN
hydroph_interaction:ASN:129     -1
Name: 12, dtype: object

>  <halogenbond:ASN:129>  (14) 
halogenbond:ASN:129    0.0
halogenbond:ASN:129      0
Name: 12, dtype: object

>  <hbond:GLY:130>  (14) 
hbond:GLY:130    0.0
hbond:GLY:130      0
Name: 12, dtype: object

>  <hbond:LEU:131>  (14) 
hbond:LEU:131    0.0
hbond:LEU:131      0
Name: 12, dtype: object

>  <hydroph_interaction:LEU:131>  (14) 
hydroph_interaction:LEU:131    0.0
hydroph_interaction:LEU:131      0
Name: 12, dtype: object

>  <halogenbond:LEU:131>  (14) 
halogenbond:LEU:131    NaN
halogenbond:LEU:131     -1
Name: 12, dtype: object

>  <hydroph_interaction:VAL:132>  (14) 
hydroph_interaction:VAL:132    0.0
hydroph_interaction:VAL:132      0
Name: 12, dtype: object

>  <hbond:VAL:132>  (14) 
hbond:VAL:132    NaN
hbond:VAL:132     -1
Name: 12, dtype: object

>  <hbond:GLY:133>  (14) 
hbond:GLY:133    NaN
hbond:GLY:133     -1
Name: 12, dtype: object

>  <halogenbond:GLY:133>  (14) 
halogenbond:GLY:133    NaN
halogenbond:GLY:133     -1
Name: 12, dtype: object

>  <hydroph_interaction:PHE:134>  (14) 
hydroph_interaction:PHE:134    NaN
hydroph_interaction:PHE:134     -1
Name: 12, dtype: object

>  <hbond:PHE:134>  (14) 
hbond:PHE:134    NaN
hbond:PHE:134     -1
Name: 12, dtype: object

>  <pistack:PHE:134>  (14) 
pistack:PHE:134    NaN
pistack:PHE:134     -1
Name: 12, dtype: object

>  <pication:PHE:134>  (14) 
pication:PHE:134    NaN
pication:PHE:134     -1
Name: 12, dtype: object

>  <halogenbond:PHE:134>  (14) 
halogenbond:PHE:134    NaN
halogenbond:PHE:134     -1
Name: 12, dtype: object

>  <hydroph_interaction:ALA:135>  (14) 
hydroph_interaction:ALA:135    NaN
hydroph_interaction:ALA:135     -1
Name: 12, dtype: object

>  <hbond:ALA:135>  (14) 
hbond:ALA:135    NaN
hbond:ALA:135     -1
Name: 12, dtype: object

$$$$
PV_002136014710
     RDKit          3D

 13 13  0  0  0  0  0  0  0  0999 V2000
   28.8573   14.0731    9.2916 C   0  0  0  0  0  0  0  0  0  0  0  0
   30.1858   14.5456    8.9741 N   0  0  0  0  0  0  0  0  0  0  0  0
   31.1825   13.6825    8.5093 C   0  0  0  0  0  0  0  0  0  0  0  0
   32.2694   13.5842    9.0706 O   0  0  0  0  0  0  0  0  0  0  0  0
   30.8611   12.9916    7.3340 C   0  0  0  0  0  0  0  0  0  0  0  0
   31.3359   11.5512    7.2125 C   0  0  0  0  0  0  0  0  0  0  0  0
   30.7425   10.6570    8.0517 C   0  0  0  0  0  0  0  0  0  0  0  0
   31.1208    9.2363    8.0124 C   0  0  0  0  0  0  0  0  0  0  0  0
   30.5133    8.3395    8.8726 C   0  0  0  0  0  0  0  0  0  0  0  0
   32.0857    8.8535    7.1067 C   0  0  0  0  0  0  0  0  0  0  0  0
   32.6862    9.7766    6.2546 C   0  0  0  0  0  0  0  0  0  0  0  0
   32.3243   11.1265    6.2945 C   0  0  0  0  0  0  0  0  0  0  0  0
   33.0204   12.0585    5.3404 C   0  0  0  0  0  0  0  0  0  0  0  0
  1  2  1  0
  2  3  1  0
  3  4  2  0
  3  5  1  0
  5  6  1  0
  6  7  2  0
  7  8  1  0
  8  9  1  0
  8 10  2  0
 10 11  1  0
 11 12  2  0
 12 13  1  0
 12  6  1  0
A    1
 C1 
A    2
 N1 
A    3
 C2 
A    4
 O1 
A    5
 C3 
A    6
 C4 
A    7
 C5 
A    8
 C6 
A    9
 C7 
A   10
 C8 
A   11
 C9 
A   12
 C10
A   13
 C11
M  END
>  <ref_pdb>  (15) 
Ax0310a

>  <ref_mols>  (15) 
Ax0416a,Ax0732a

>  <original SMILES>  (15) 
CNC(=O)Cc1cc(C)ccc1C

>  <rationale>  (15) 
info halogenbond:G127+D39+A86+E85+Q95+E106+E88+T126+P107+H104+Y64+C65+S87+N129+F83+R93+L131+I82+G128+P91+N19+H21+V84+G133+Y90+Y89+H97+L81+F134+L98+R20+G103+S66+S67+S7+G108+R38+V124+M99+S36; hbond:S87+G127+D39+G108+G103+G128+G130+L131+N129+N19+H104+R68+V124+R93+P91+F83+S67+S7+S66+G112+G133+V132+R20+Y89+S77+A135+Y63+A92+A101+M99+F134+L100+I82+Y64+S36+L98+V84+L81+Y94+S80+R38+S37+V102+G8+I123+G111+I113+L114+C65+L22+S96; hydroph_interaction:V124+P107+N129+L40+I123+A135+Q95+I82+L100+L98+L131+F83+R93+V132+Y63+F134+H104+R20+A86+V74+P91+A101+F76+M99+L114+A92+Y94+R68+Y72+Y64+V18+V102+W28+G127+G128+L81; pication:H104+R93+Y63+F134+Y90+R68+F83+R20; pistack:Y90+H104+F134+Y63+F83+Y94; saltbridge:D39+R93+H104+E106+D109+E88+R68+R20; 

>  <intxn_cluster>  (15) 
-1

>  <intxn_cluster_rank>  (15) 
-1

>  <N_interactions>  (15) 
5

>  <∆∆G>  (15) 
-10.225977

>  <$/mg>  (15) 
104.0

>  <comRMSD>  (15) 
0.809775

>  <N_rotatable_bonds>  (15) 
5

>  <deep_P1_sidechain>  (15) 
nan

>  <farthest_distance_to_substrate>  (15) 
2.326342

>  <hbond:SER:7>  (15) 
hbond:SER:7    NaN
hbond:SER:7     -1
Name: 13, dtype: object

>  <halogenbond:SER:7>  (15) 
halogenbond:SER:7    NaN
halogenbond:SER:7     -1
Name: 13, dtype: object

>  <hbond:GLY:8>  (15) 
hbond:GLY:8    NaN
hbond:GLY:8     -1
Name: 13, dtype: object

>  <hydroph_interaction:VAL:18>  (15) 
hydroph_interaction:VAL:18    NaN
hydroph_interaction:VAL:18     -1
Name: 13, dtype: object

>  <hbond:ASN:19>  (15) 
hbond:ASN:19    NaN
hbond:ASN:19     -1
Name: 13, dtype: object

>  <hydroph_interaction:ASN:19>  (15) 
hydroph_interaction:ASN:19    0.0
hydroph_interaction:ASN:19      0
Name: 13, dtype: object

>  <halogenbond:ASN:19>  (15) 
halogenbond:ASN:19    NaN
halogenbond:ASN:19     -1
Name: 13, dtype: object

>  <hbond:ARG:20>  (15) 
hbond:ARG:20    NaN
hbond:ARG:20     -1
Name: 13, dtype: object

>  <hydroph_interaction:ARG:20>  (15) 
hydroph_interaction:ARG:20    NaN
hydroph_interaction:ARG:20     -1
Name: 13, dtype: object

>  <saltbridge:ARG:20>  (15) 
saltbridge:ARG:20    NaN
saltbridge:ARG:20     -1
Name: 13, dtype: object

>  <halogenbond:ARG:20>  (15) 
halogenbond:ARG:20    NaN
halogenbond:ARG:20     -1
Name: 13, dtype: object

>  <pication:ARG:20>  (15) 
pication:ARG:20    NaN
pication:ARG:20     -1
Name: 13, dtype: object

>  <hbond:HIS:21>  (15) 
hbond:HIS:21    0.0
hbond:HIS:21      0
Name: 13, dtype: object

>  <hydroph_interaction:HIS:21>  (15) 
hydroph_interaction:HIS:21    0.0
hydroph_interaction:HIS:21      0
Name: 13, dtype: object

>  <pistack:HIS:21>  (15) 
pistack:HIS:21    0.0
pistack:HIS:21      0
Name: 13, dtype: object

>  <pication:HIS:21>  (15) 
pication:HIS:21    0.0
pication:HIS:21      0
Name: 13, dtype: object

>  <saltbridge:HIS:21>  (15) 
saltbridge:HIS:21    0.0
saltbridge:HIS:21      0
Name: 13, dtype: object

>  <halogenbond:HIS:21>  (15) 
halogenbond:HIS:21    NaN
halogenbond:HIS:21     -1
Name: 13, dtype: object

>  <hydroph_interaction:LEU:22>  (15) 
hydroph_interaction:LEU:22    0.0
hydroph_interaction:LEU:22      0
Name: 13, dtype: object

>  <hbond:LEU:22>  (15) 
hbond:LEU:22    NaN
hbond:LEU:22     -1
Name: 13, dtype: object

>  <hydroph_interaction:TRP:28>  (15) 
hydroph_interaction:TRP:28    NaN
hydroph_interaction:TRP:28     -1
Name: 13, dtype: object

>  <hbond:SER:36>  (15) 
hbond:SER:36    NaN
hbond:SER:36     -1
Name: 13, dtype: object

>  <halogenbond:SER:36>  (15) 
halogenbond:SER:36    NaN
halogenbond:SER:36     -1
Name: 13, dtype: object

>  <hbond:SER:37>  (15) 
hbond:SER:37    NaN
hbond:SER:37     -1
Name: 13, dtype: object

>  <hbond:ARG:38>  (15) 
hbond:ARG:38    NaN
hbond:ARG:38     -1
Name: 13, dtype: object

>  <halogenbond:ARG:38>  (15) 
halogenbond:ARG:38    NaN
halogenbond:ARG:38     -1
Name: 13, dtype: object

>  <saltbridge:ASP:39>  (15) 
saltbridge:ASP:39    NaN
saltbridge:ASP:39     -1
Name: 13, dtype: object

>  <halogenbond:ASP:39>  (15) 
halogenbond:ASP:39    NaN
halogenbond:ASP:39     -1
Name: 13, dtype: object

>  <hbond:ASP:39>  (15) 
hbond:ASP:39    NaN
hbond:ASP:39     -1
Name: 13, dtype: object

>  <hydroph_interaction:ASP:39>  (15) 
hydroph_interaction:ASP:39    0.0
hydroph_interaction:ASP:39      0
Name: 13, dtype: object

>  <hydroph_interaction:LEU:40>  (15) 
hydroph_interaction:LEU:40    NaN
hydroph_interaction:LEU:40     -1
Name: 13, dtype: object

>  <hydroph_interaction:TYR:63>  (15) 
hydroph_interaction:TYR:63    NaN
hydroph_interaction:TYR:63     -1
Name: 13, dtype: object

>  <hbond:TYR:63>  (15) 
hbond:TYR:63    NaN
hbond:TYR:63     -1
Name: 13, dtype: object

>  <pistack:TYR:63>  (15) 
pistack:TYR:63    NaN
pistack:TYR:63     -1
Name: 13, dtype: object

>  <pication:TYR:63>  (15) 
pication:TYR:63    NaN
pication:TYR:63     -1
Name: 13, dtype: object

>  <halogenbond:TYR:64>  (15) 
halogenbond:TYR:64    NaN
halogenbond:TYR:64     -1
Name: 13, dtype: object

>  <hbond:TYR:64>  (15) 
hbond:TYR:64    NaN
hbond:TYR:64     -1
Name: 13, dtype: object

>  <hydroph_interaction:TYR:64>  (15) 
hydroph_interaction:TYR:64    NaN
hydroph_interaction:TYR:64     -1
Name: 13, dtype: object

>  <halogenbond:CYS:65>  (15) 
halogenbond:CYS:65    NaN
halogenbond:CYS:65     -1
Name: 13, dtype: object

>  <hbond:CYS:65>  (15) 
hbond:CYS:65    NaN
hbond:CYS:65     -1
Name: 13, dtype: object

>  <hbond:SER:66>  (15) 
hbond:SER:66    NaN
hbond:SER:66     -1
Name: 13, dtype: object

>  <halogenbond:SER:66>  (15) 
halogenbond:SER:66    NaN
halogenbond:SER:66     -1
Name: 13, dtype: object

>  <hbond:SER:67>  (15) 
hbond:SER:67    NaN
hbond:SER:67     -1
Name: 13, dtype: object

>  <halogenbond:SER:67>  (15) 
halogenbond:SER:67    NaN
halogenbond:SER:67     -1
Name: 13, dtype: object

>  <hbond:ARG:68>  (15) 
hbond:ARG:68    NaN
hbond:ARG:68     -1
Name: 13, dtype: object

>  <saltbridge:ARG:68>  (15) 
saltbridge:ARG:68    NaN
saltbridge:ARG:68     -1
Name: 13, dtype: object

>  <hydroph_interaction:ARG:68>  (15) 
hydroph_interaction:ARG:68    NaN
hydroph_interaction:ARG:68     -1
Name: 13, dtype: object

>  <pication:ARG:68>  (15) 
pication:ARG:68    NaN
pication:ARG:68     -1
Name: 13, dtype: object

>  <hydroph_interaction:TYR:72>  (15) 
hydroph_interaction:TYR:72    NaN
hydroph_interaction:TYR:72     -1
Name: 13, dtype: object

>  <hydroph_interaction:VAL:74>  (15) 
hydroph_interaction:VAL:74    NaN
hydroph_interaction:VAL:74     -1
Name: 13, dtype: object

>  <hydroph_interaction:PHE:76>  (15) 
hydroph_interaction:PHE:76    NaN
hydroph_interaction:PHE:76     -1
Name: 13, dtype: object

>  <hbond:SER:77>  (15) 
hbond:SER:77    NaN
hbond:SER:77     -1
Name: 13, dtype: object

>  <hbond:SER:80>  (15) 
hbond:SER:80    NaN
hbond:SER:80     -1
Name: 13, dtype: object

>  <hbond:LEU:81>  (15) 
hbond:LEU:81    NaN
hbond:LEU:81     -1
Name: 13, dtype: object

>  <halogenbond:LEU:81>  (15) 
halogenbond:LEU:81    NaN
halogenbond:LEU:81     -1
Name: 13, dtype: object

>  <hydroph_interaction:LEU:81>  (15) 
hydroph_interaction:LEU:81    NaN
hydroph_interaction:LEU:81     -1
Name: 13, dtype: object

>  <hydroph_interaction:ILE:82>  (15) 
hydroph_interaction:ILE:82    NaN
hydroph_interaction:ILE:82     -1
Name: 13, dtype: object

>  <halogenbond:ILE:82>  (15) 
halogenbond:ILE:82    NaN
halogenbond:ILE:82     -1
Name: 13, dtype: object

>  <hbond:ILE:82>  (15) 
hbond:ILE:82    NaN
hbond:ILE:82     -1
Name: 13, dtype: object

>  <hbond:PHE:83>  (15) 
hbond:PHE:83    NaN
hbond:PHE:83     -1
Name: 13, dtype: object

>  <hydroph_interaction:PHE:83>  (15) 
hydroph_interaction:PHE:83    NaN
hydroph_interaction:PHE:83     -1
Name: 13, dtype: object

>  <halogenbond:PHE:83>  (15) 
halogenbond:PHE:83    NaN
halogenbond:PHE:83     -1
Name: 13, dtype: object

>  <pistack:PHE:83>  (15) 
pistack:PHE:83    NaN
pistack:PHE:83     -1
Name: 13, dtype: object

>  <pication:PHE:83>  (15) 
pication:PHE:83    NaN
pication:PHE:83     -1
Name: 13, dtype: object

>  <hydroph_interaction:VAL:84>  (15) 
hydroph_interaction:VAL:84    0.0
hydroph_interaction:VAL:84      0
Name: 13, dtype: object

>  <halogenbond:VAL:84>  (15) 
halogenbond:VAL:84    NaN
halogenbond:VAL:84     -1
Name: 13, dtype: object

>  <hbond:VAL:84>  (15) 
hbond:VAL:84    NaN
hbond:VAL:84     -1
Name: 13, dtype: object

>  <hydroph_interaction:GLU:85>  (15) 
hydroph_interaction:GLU:85    0.0
hydroph_interaction:GLU:85      0
Name: 13, dtype: object

>  <hbond:GLU:85>  (15) 
hbond:GLU:85    0.0
hbond:GLU:85      0
Name: 13, dtype: object

>  <halogenbond:GLU:85>  (15) 
halogenbond:GLU:85    NaN
halogenbond:GLU:85     -1
Name: 13, dtype: object

>  <saltbridge:GLU:85>  (15) 
saltbridge:GLU:85    0.0
saltbridge:GLU:85      0
Name: 13, dtype: object

>  <halogenbond:ALA:86>  (15) 
halogenbond:ALA:86    NaN
halogenbond:ALA:86     -1
Name: 13, dtype: object

>  <hbond:ALA:86>  (15) 
hbond:ALA:86    0.0
hbond:ALA:86      0
Name: 13, dtype: object

>  <hydroph_interaction:ALA:86>  (15) 
hydroph_interaction:ALA:86    NaN
hydroph_interaction:ALA:86     -1
Name: 13, dtype: object

>  <hbond:SER:87>  (15) 
hbond:SER:87    2
hbond:SER:87    2
Name: 13, dtype: object

>  <halogenbond:SER:87>  (15) 
halogenbond:SER:87    NaN
halogenbond:SER:87     -1
Name: 13, dtype: object

>  <hbond:GLU:88>  (15) 
hbond:GLU:88    0.0
hbond:GLU:88      0
Name: 13, dtype: object

>  <hydroph_interaction:GLU:88>  (15) 
hydroph_interaction:GLU:88    0.0
hydroph_interaction:GLU:88      0
Name: 13, dtype: object

>  <halogenbond:GLU:88>  (15) 
halogenbond:GLU:88    NaN
halogenbond:GLU:88     -1
Name: 13, dtype: object

>  <saltbridge:GLU:88>  (15) 
saltbridge:GLU:88    NaN
saltbridge:GLU:88     -1
Name: 13, dtype: object

>  <hydroph_interaction:TYR:89>  (15) 
hydroph_interaction:TYR:89    0.0
hydroph_interaction:TYR:89      0
Name: 13, dtype: object

>  <pistack:TYR:89>  (15) 
pistack:TYR:89    0.0
pistack:TYR:89      0
Name: 13, dtype: object

>  <hbond:TYR:89>  (15) 
hbond:TYR:89    NaN
hbond:TYR:89     -1
Name: 13, dtype: object

>  <halogenbond:TYR:89>  (15) 
halogenbond:TYR:89    NaN
halogenbond:TYR:89     -1
Name: 13, dtype: object

>  <hydroph_interaction:TYR:90>  (15) 
hydroph_interaction:TYR:90    0.0
hydroph_interaction:TYR:90      0
Name: 13, dtype: object

>  <hbond:TYR:90>  (15) 
hbond:TYR:90    0.0
hbond:TYR:90      0
Name: 13, dtype: object

>  <pistack:TYR:90>  (15) 
pistack:TYR:90    NaN
pistack:TYR:90     -1
Name: 13, dtype: object

>  <halogenbond:TYR:90>  (15) 
halogenbond:TYR:90    NaN
halogenbond:TYR:90     -1
Name: 13, dtype: object

>  <pication:TYR:90>  (15) 
pication:TYR:90    NaN
pication:TYR:90     -1
Name: 13, dtype: object

>  <hbond:PRO:91>  (15) 
hbond:PRO:91    NaN
hbond:PRO:91     -1
Name: 13, dtype: object

>  <hydroph_interaction:PRO:91>  (15) 
hydroph_interaction:PRO:91    NaN
hydroph_interaction:PRO:91     -1
Name: 13, dtype: object

>  <halogenbond:PRO:91>  (15) 
halogenbond:PRO:91    NaN
halogenbond:PRO:91     -1
Name: 13, dtype: object

>  <hbond:ALA:92>  (15) 
hbond:ALA:92    NaN
hbond:ALA:92     -1
Name: 13, dtype: object

>  <hydroph_interaction:ALA:92>  (15) 
hydroph_interaction:ALA:92    NaN
hydroph_interaction:ALA:92     -1
Name: 13, dtype: object

>  <saltbridge:ARG:93>  (15) 
saltbridge:ARG:93    NaN
saltbridge:ARG:93     -1
Name: 13, dtype: object

>  <hbond:ARG:93>  (15) 
hbond:ARG:93    NaN
hbond:ARG:93     -1
Name: 13, dtype: object

>  <hydroph_interaction:ARG:93>  (15) 
hydroph_interaction:ARG:93    NaN
hydroph_interaction:ARG:93     -1
Name: 13, dtype: object

>  <halogenbond:ARG:93>  (15) 
halogenbond:ARG:93    NaN
halogenbond:ARG:93     -1
Name: 13, dtype: object

>  <pication:ARG:93>  (15) 
pication:ARG:93    NaN
pication:ARG:93     -1
Name: 13, dtype: object

>  <hydroph_interaction:TYR:94>  (15) 
hydroph_interaction:TYR:94    NaN
hydroph_interaction:TYR:94     -1
Name: 13, dtype: object

>  <pistack:TYR:94>  (15) 
pistack:TYR:94    NaN
pistack:TYR:94     -1
Name: 13, dtype: object

>  <hbond:TYR:94>  (15) 
hbond:TYR:94    NaN
hbond:TYR:94     -1
Name: 13, dtype: object

>  <hbond:GLN:95>  (15) 
hbond:GLN:95    0.0
hbond:GLN:95      0
Name: 13, dtype: object

>  <hydroph_interaction:GLN:95>  (15) 
hydroph_interaction:GLN:95    NaN
hydroph_interaction:GLN:95     -1
Name: 13, dtype: object

>  <halogenbond:GLN:95>  (15) 
halogenbond:GLN:95    NaN
halogenbond:GLN:95     -1
Name: 13, dtype: object

>  <hbond:SER:96>  (15) 
hbond:SER:96    NaN
hbond:SER:96     -1
Name: 13, dtype: object

>  <halogenbond:HIS:97>  (15) 
halogenbond:HIS:97    NaN
halogenbond:HIS:97     -1
Name: 13, dtype: object

>  <hydroph_interaction:LEU:98>  (15) 
hydroph_interaction:LEU:98    NaN
hydroph_interaction:LEU:98     -1
Name: 13, dtype: object

>  <hbond:LEU:98>  (15) 
hbond:LEU:98    NaN
hbond:LEU:98     -1
Name: 13, dtype: object

>  <halogenbond:LEU:98>  (15) 
halogenbond:LEU:98    NaN
halogenbond:LEU:98     -1
Name: 13, dtype: object

>  <hbond:MET:99>  (15) 
hbond:MET:99    NaN
hbond:MET:99     -1
Name: 13, dtype: object

>  <hydroph_interaction:MET:99>  (15) 
hydroph_interaction:MET:99    NaN
hydroph_interaction:MET:99     -1
Name: 13, dtype: object

>  <halogenbond:MET:99>  (15) 
halogenbond:MET:99    NaN
halogenbond:MET:99     -1
Name: 13, dtype: object

>  <hydroph_interaction:LEU:100>  (15) 
hydroph_interaction:LEU:100    NaN
hydroph_interaction:LEU:100     -1
Name: 13, dtype: object

>  <hbond:LEU:100>  (15) 
hbond:LEU:100    NaN
hbond:LEU:100     -1
Name: 13, dtype: object

>  <hbond:ALA:101>  (15) 
hbond:ALA:101    NaN
hbond:ALA:101     -1
Name: 13, dtype: object

>  <hydroph_interaction:ALA:101>  (15) 
hydroph_interaction:ALA:101    NaN
hydroph_interaction:ALA:101     -1
Name: 13, dtype: object

>  <hydroph_interaction:VAL:102>  (15) 
hydroph_interaction:VAL:102    NaN
hydroph_interaction:VAL:102     -1
Name: 13, dtype: object

>  <hbond:VAL:102>  (15) 
hbond:VAL:102    NaN
hbond:VAL:102     -1
Name: 13, dtype: object

>  <hbond:GLY:103>  (15) 
hbond:GLY:103    NaN
hbond:GLY:103     -1
Name: 13, dtype: object

>  <halogenbond:GLY:103>  (15) 
halogenbond:GLY:103    NaN
halogenbond:GLY:103     -1
Name: 13, dtype: object

>  <hbond:HIS:104>  (15) 
hbond:HIS:104    NaN
hbond:HIS:104     -1
Name: 13, dtype: object

>  <saltbridge:HIS:104>  (15) 
saltbridge:HIS:104    NaN
saltbridge:HIS:104     -1
Name: 13, dtype: object

>  <pication:HIS:104>  (15) 
pication:HIS:104    NaN
pication:HIS:104     -1
Name: 13, dtype: object

>  <halogenbond:HIS:104>  (15) 
halogenbond:HIS:104    NaN
halogenbond:HIS:104     -1
Name: 13, dtype: object

>  <hydroph_interaction:HIS:104>  (15) 
hydroph_interaction:HIS:104    NaN
hydroph_interaction:HIS:104     -1
Name: 13, dtype: object

>  <pistack:HIS:104>  (15) 
pistack:HIS:104    NaN
pistack:HIS:104     -1
Name: 13, dtype: object

>  <halogenbond:SER:105>  (15) 
halogenbond:SER:105    0.0
halogenbond:SER:105      0
Name: 13, dtype: object

>  <hbond:SER:105>  (15) 
hbond:SER:105    0.0
hbond:SER:105      0
Name: 13, dtype: object

>  <hbond:GLU:106>  (15) 
hbond:GLU:106    0.0
hbond:GLU:106      0
Name: 13, dtype: object

>  <hydroph_interaction:GLU:106>  (15) 
hydroph_interaction:GLU:106    0.0
hydroph_interaction:GLU:106      0
Name: 13, dtype: object

>  <saltbridge:GLU:106>  (15) 
saltbridge:GLU:106    NaN
saltbridge:GLU:106     -1
Name: 13, dtype: object

>  <halogenbond:GLU:106>  (15) 
halogenbond:GLU:106    NaN
halogenbond:GLU:106     -1
Name: 13, dtype: object

>  <hydroph_interaction:PRO:107>  (15) 
hydroph_interaction:PRO:107    1
hydroph_interaction:PRO:107    1
Name: 13, dtype: object

>  <hbond:PRO:107>  (15) 
hbond:PRO:107    0.0
hbond:PRO:107      0
Name: 13, dtype: object

>  <halogenbond:PRO:107>  (15) 
halogenbond:PRO:107    NaN
halogenbond:PRO:107     -1
Name: 13, dtype: object

>  <hbond:GLY:108>  (15) 
hbond:GLY:108    NaN
hbond:GLY:108     -1
Name: 13, dtype: object

>  <halogenbond:GLY:108>  (15) 
halogenbond:GLY:108    NaN
halogenbond:GLY:108     -1
Name: 13, dtype: object

>  <hbond:ASP:109>  (15) 
hbond:ASP:109    0.0
hbond:ASP:109      0
Name: 13, dtype: object

>  <hydroph_interaction:ASP:109>  (15) 
hydroph_interaction:ASP:109    0.0
hydroph_interaction:ASP:109      0
Name: 13, dtype: object

>  <saltbridge:ASP:109>  (15) 
saltbridge:ASP:109    NaN
saltbridge:ASP:109     -1
Name: 13, dtype: object

>  <halogenbond:CYS:110>  (15) 
halogenbond:CYS:110    0.0
halogenbond:CYS:110      0
Name: 13, dtype: object

>  <hbond:CYS:110>  (15) 
hbond:CYS:110    0.0
hbond:CYS:110      0
Name: 13, dtype: object

>  <hbond:GLY:111>  (15) 
hbond:GLY:111    NaN
hbond:GLY:111     -1
Name: 13, dtype: object

>  <hbond:GLY:112>  (15) 
hbond:GLY:112    NaN
hbond:GLY:112     -1
Name: 13, dtype: object

>  <hbond:ILE:113>  (15) 
hbond:ILE:113    NaN
hbond:ILE:113     -1
Name: 13, dtype: object

>  <hydroph_interaction:LEU:114>  (15) 
hydroph_interaction:LEU:114    NaN
hydroph_interaction:LEU:114     -1
Name: 13, dtype: object

>  <hbond:LEU:114>  (15) 
hbond:LEU:114    NaN
hbond:LEU:114     -1
Name: 13, dtype: object

>  <hydroph_interaction:ILE:123>  (15) 
hydroph_interaction:ILE:123    NaN
hydroph_interaction:ILE:123     -1
Name: 13, dtype: object

>  <hbond:ILE:123>  (15) 
hbond:ILE:123    NaN
hbond:ILE:123     -1
Name: 13, dtype: object

>  <hydroph_interaction:VAL:124>  (15) 
hydroph_interaction:VAL:124    1.0
hydroph_interaction:VAL:124      1
Name: 13, dtype: object

>  <hbond:VAL:124>  (15) 
hbond:VAL:124    NaN
hbond:VAL:124     -1
Name: 13, dtype: object

>  <halogenbond:VAL:124>  (15) 
halogenbond:VAL:124    NaN
halogenbond:VAL:124     -1
Name: 13, dtype: object

>  <hbond:SER:125>  (15) 
hbond:SER:125    0
hbond:SER:125    0
Name: 13, dtype: object

>  <halogenbond:SER:125>  (15) 
halogenbond:SER:125    0.0
halogenbond:SER:125      0
Name: 13, dtype: object

>  <hydroph_interaction:THR:126>  (15) 
hydroph_interaction:THR:126    0.0
hydroph_interaction:THR:126      0
Name: 13, dtype: object

>  <hbond:THR:126>  (15) 
hbond:THR:126    0.0
hbond:THR:126      0
Name: 13, dtype: object

>  <halogenbond:THR:126>  (15) 
halogenbond:THR:126    NaN
halogenbond:THR:126     -1
Name: 13, dtype: object

>  <hbond:GLY:127>  (15) 
hbond:GLY:127    1
hbond:GLY:127    1
Name: 13, dtype: object

>  <halogenbond:GLY:127>  (15) 
halogenbond:GLY:127    NaN
halogenbond:GLY:127     -1
Name: 13, dtype: object

>  <hydroph_interaction:GLY:127>  (15) 
hydroph_interaction:GLY:127    NaN
hydroph_interaction:GLY:127     -1
Name: 13, dtype: object

>  <hbond:GLY:128>  (15) 
hbond:GLY:128    NaN
hbond:GLY:128     -1
Name: 13, dtype: object

>  <halogenbond:GLY:128>  (15) 
halogenbond:GLY:128    NaN
halogenbond:GLY:128     -1
Name: 13, dtype: object

>  <hydroph_interaction:GLY:128>  (15) 
hydroph_interaction:GLY:128    NaN
hydroph_interaction:GLY:128     -1
Name: 13, dtype: object

>  <hbond:ASN:129>  (15) 
hbond:ASN:129    NaN
hbond:ASN:129     -1
Name: 13, dtype: object

>  <hydroph_interaction:ASN:129>  (15) 
hydroph_interaction:ASN:129    NaN
hydroph_interaction:ASN:129     -1
Name: 13, dtype: object

>  <halogenbond:ASN:129>  (15) 
halogenbond:ASN:129    NaN
halogenbond:ASN:129     -1
Name: 13, dtype: object

>  <hbond:GLY:130>  (15) 
hbond:GLY:130    NaN
hbond:GLY:130     -1
Name: 13, dtype: object

>  <hbond:LEU:131>  (15) 
hbond:LEU:131    NaN
hbond:LEU:131     -1
Name: 13, dtype: object

>  <hydroph_interaction:LEU:131>  (15) 
hydroph_interaction:LEU:131    NaN
hydroph_interaction:LEU:131     -1
Name: 13, dtype: object

>  <halogenbond:LEU:131>  (15) 
halogenbond:LEU:131    NaN
halogenbond:LEU:131     -1
Name: 13, dtype: object

>  <hydroph_interaction:VAL:132>  (15) 
hydroph_interaction:VAL:132    NaN
hydroph_interaction:VAL:132     -1
Name: 13, dtype: object

>  <hbond:VAL:132>  (15) 
hbond:VAL:132    NaN
hbond:VAL:132     -1
Name: 13, dtype: object

>  <hbond:GLY:133>  (15) 
hbond:GLY:133    NaN
hbond:GLY:133     -1
Name: 13, dtype: object

>  <halogenbond:GLY:133>  (15) 
halogenbond:GLY:133    NaN
halogenbond:GLY:133     -1
Name: 13, dtype: object

>  <hydroph_interaction:PHE:134>  (15) 
hydroph_interaction:PHE:134    NaN
hydroph_interaction:PHE:134     -1
Name: 13, dtype: object

>  <hbond:PHE:134>  (15) 
hbond:PHE:134    NaN
hbond:PHE:134     -1
Name: 13, dtype: object

>  <pistack:PHE:134>  (15) 
pistack:PHE:134    NaN
pistack:PHE:134     -1
Name: 13, dtype: object

>  <pication:PHE:134>  (15) 
pication:PHE:134    NaN
pication:PHE:134     -1
Name: 13, dtype: object

>  <halogenbond:PHE:134>  (15) 
halogenbond:PHE:134    NaN
halogenbond:PHE:134     -1
Name: 13, dtype: object

>  <hydroph_interaction:ALA:135>  (15) 
hydroph_interaction:ALA:135    NaN
hydroph_interaction:ALA:135     -1
Name: 13, dtype: object

>  <hbond:ALA:135>  (15) 
hbond:ALA:135    NaN
hbond:ALA:135     -1
Name: 13, dtype: object

$$$$
PV_003066919920
     RDKit          3D

 19 21  0  0  0  0  0  0  0  0999 V2000
   27.3385   15.9972   10.5889 C   0  0  0  0  0  0  0  0  0  0  0  0
   28.3194   16.5286    9.5949 C   0  0  0  0  0  0  0  0  0  0  0  0
   28.7099   15.6633    8.5820 C   0  0  2  0  0  0  0  0  0  0  0  0
   27.8338   14.7769    7.9585 C   0  0  0  0  0  0  0  0  0  0  0  0
   28.1719   13.4396    7.9988 C   0  0  0  0  0  0  0  0  0  0  0  0
   29.5813   13.4469    8.3840 N   0  0  0  0  0  0  0  0  0  0  0  0
   30.4264   13.2239    7.2262 C   0  0  0  0  0  0  0  0  0  0  0  0
   30.9645   11.8797    7.2220 C   0  0  0  0  0  0  0  0  0  0  0  0
   30.4381   10.8489    8.1153 C   0  0  0  0  0  0  0  0  0  0  0  0
   31.1525    9.7445    7.8542 N   0  0  0  0  0  0  0  0  0  0  0  0
   30.9371    8.4979    8.5326 C   0  0  0  0  0  0  0  0  0  0  0  0
   32.0987   10.0071    6.8613 C   0  0  0  0  0  0  0  0  0  0  0  0
   33.1278    9.1419    6.2204 C   0  0  0  0  0  0  0  0  0  0  0  0
   33.9569    9.6828    5.2416 C   0  0  0  0  0  0  0  0  0  0  0  0
   33.8270   11.0275    4.8626 C   0  0  0  0  0  0  0  0  0  0  0  0
   32.8607   11.8284    5.4679 C   0  0  0  0  0  0  0  0  0  0  0  0
   31.9950   11.3285    6.4622 C   0  0  0  0  0  0  0  0  0  0  0  0
   29.8670   14.7535    8.9868 C   0  0  2  0  0  0  0  0  0  0  0  0
   30.0969   14.6425   10.4598 C   0  0  0  0  0  0  0  0  0  0  0  0
  1  2  1  0
  3  2  1  1
  3  4  1  0
  4  5  1  0
  5  6  1  0
  6  7  1  0
  7  8  1  0
  8  9  2  0
  9 10  1  0
 10 11  1  0
 10 12  1  0
 12 13  2  0
 13 14  1  0
 14 15  2  0
 15 16  1  0
 16 17  2  0
  6 18  1  0
 18 19  1  1
 18  3  1  0
 17  8  1  0
 17 12  1  0
A    1
 C1 
A    2
 C2 
A    3
 C3 
A    4
 C4 
A    5
 C5 
A    6
 N1 
A    7
 C6 
A    8
 C7 
A    9
 C8 
A   10
 N2 
A   11
 C9 
A   12
 C10
A   13
 C11
A   14
 C12
A   15
 C13
A   16
 C14
A   17
 C15
A   18
 C16
A   19
 C17
M  END
>  <ref_pdb>  (16) 
Ax0310a

>  <ref_mols>  (16) 
Ax0451a,Ax0528a

>  <original SMILES>  (16) 
CCC1CCN(Cc2cn(C)c3ccccc23)C1C

>  <rationale>  (16) 
info halogenbond:G127+D39+A86+E85+E106+E88+T126+H104+Y64+C65+S87+N129+F83+R93+L131+I82+G128+P91+N19+H21+V84+G133+Y90+Y89+H97+L81+F134+L98+R20+G103+S66+S67+S7+G108+R38+V124+M99+S36; hbond:S87+A86+E85+G108+G103+G128+G130+L131+N129+N19+H104+R68+V124+R93+P91+F83+S67+S7+S66+G112+G133+V132+R20+Y89+S77+A135+Y63+A92+A101+M99+F134+L100+I82+Y64+S36+L98+V84+L81+Y94+S80+R38+S37+V102+G8+I123+G111+I113+L114+C65+L22+S96; hydroph_interaction:Y90+Y89+T126+H21+P107+L22+E106+N129+D39+N19+L40+I123+A135+Q95+I82+L100+L98+L131+F83+R93+F134+H104+R20+A86+V74+P91+A101+F76+M99+L114+A92+Y94+R68+Y72+Y64+V18+V102+W28+G127+G128+L81; pication:H104+R93+Y63+F134+Y90+R68+F83+R20; pistack:Y89+Y90+H104+F134+Y63+F83+Y94; saltbridge:R93+H104+E106+D109+E85+E88+R68+R20; 

>  <intxn_cluster>  (16) 
-1

>  <intxn_cluster_rank>  (16) 
-1

>  <N_interactions>  (16) 
6

>  <∆∆G>  (16) 
-10.303621

>  <$/mg>  (16) 
0.0

>  <comRMSD>  (16) 
0.689247

>  <N_rotatable_bonds>  (16) 
6

>  <deep_P1_sidechain>  (16) 
nan

>  <farthest_distance_to_substrate>  (16) 
2.791506

>  <hbond:SER:7>  (16) 
hbond:SER:7    NaN
hbond:SER:7     -1
Name: 14, dtype: object

>  <halogenbond:SER:7>  (16) 
halogenbond:SER:7    NaN
halogenbond:SER:7     -1
Name: 14, dtype: object

>  <hbond:GLY:8>  (16) 
hbond:GLY:8    NaN
hbond:GLY:8     -1
Name: 14, dtype: object

>  <hydroph_interaction:VAL:18>  (16) 
hydroph_interaction:VAL:18    NaN
hydroph_interaction:VAL:18     -1
Name: 14, dtype: object

>  <hbond:ASN:19>  (16) 
hbond:ASN:19    NaN
hbond:ASN:19     -1
Name: 14, dtype: object

>  <hydroph_interaction:ASN:19>  (16) 
hydroph_interaction:ASN:19    NaN
hydroph_interaction:ASN:19     -1
Name: 14, dtype: object

>  <halogenbond:ASN:19>  (16) 
halogenbond:ASN:19    NaN
halogenbond:ASN:19     -1
Name: 14, dtype: object

>  <hbond:ARG:20>  (16) 
hbond:ARG:20    NaN
hbond:ARG:20     -1
Name: 14, dtype: object

>  <hydroph_interaction:ARG:20>  (16) 
hydroph_interaction:ARG:20    NaN
hydroph_interaction:ARG:20     -1
Name: 14, dtype: object

>  <saltbridge:ARG:20>  (16) 
saltbridge:ARG:20    NaN
saltbridge:ARG:20     -1
Name: 14, dtype: object

>  <halogenbond:ARG:20>  (16) 
halogenbond:ARG:20    NaN
halogenbond:ARG:20     -1
Name: 14, dtype: object

>  <pication:ARG:20>  (16) 
pication:ARG:20    NaN
pication:ARG:20     -1
Name: 14, dtype: object

>  <hbond:HIS:21>  (16) 
hbond:HIS:21    0.0
hbond:HIS:21      0
Name: 14, dtype: object

>  <hydroph_interaction:HIS:21>  (16) 
hydroph_interaction:HIS:21    1.0
hydroph_interaction:HIS:21      1
Name: 14, dtype: object

>  <pistack:HIS:21>  (16) 
pistack:HIS:21    0.0
pistack:HIS:21      0
Name: 14, dtype: object

>  <pication:HIS:21>  (16) 
pication:HIS:21    0.0
pication:HIS:21      0
Name: 14, dtype: object

>  <saltbridge:HIS:21>  (16) 
saltbridge:HIS:21    0.0
saltbridge:HIS:21      0
Name: 14, dtype: object

>  <halogenbond:HIS:21>  (16) 
halogenbond:HIS:21    NaN
halogenbond:HIS:21     -1
Name: 14, dtype: object

>  <hydroph_interaction:LEU:22>  (16) 
hydroph_interaction:LEU:22    NaN
hydroph_interaction:LEU:22     -1
Name: 14, dtype: object

>  <hbond:LEU:22>  (16) 
hbond:LEU:22    NaN
hbond:LEU:22     -1
Name: 14, dtype: object

>  <hydroph_interaction:TRP:28>  (16) 
hydroph_interaction:TRP:28    NaN
hydroph_interaction:TRP:28     -1
Name: 14, dtype: object

>  <hbond:SER:36>  (16) 
hbond:SER:36    NaN
hbond:SER:36     -1
Name: 14, dtype: object

>  <halogenbond:SER:36>  (16) 
halogenbond:SER:36    NaN
halogenbond:SER:36     -1
Name: 14, dtype: object

>  <hbond:SER:37>  (16) 
hbond:SER:37    NaN
hbond:SER:37     -1
Name: 14, dtype: object

>  <hbond:ARG:38>  (16) 
hbond:ARG:38    NaN
hbond:ARG:38     -1
Name: 14, dtype: object

>  <halogenbond:ARG:38>  (16) 
halogenbond:ARG:38    NaN
halogenbond:ARG:38     -1
Name: 14, dtype: object

>  <saltbridge:ASP:39>  (16) 
saltbridge:ASP:39    0.0
saltbridge:ASP:39      0
Name: 14, dtype: object

>  <halogenbond:ASP:39>  (16) 
halogenbond:ASP:39    NaN
halogenbond:ASP:39     -1
Name: 14, dtype: object

>  <hbond:ASP:39>  (16) 
hbond:ASP:39    0.0
hbond:ASP:39      0
Name: 14, dtype: object

>  <hydroph_interaction:ASP:39>  (16) 
hydroph_interaction:ASP:39    NaN
hydroph_interaction:ASP:39     -1
Name: 14, dtype: object

>  <hydroph_interaction:LEU:40>  (16) 
hydroph_interaction:LEU:40    NaN
hydroph_interaction:LEU:40     -1
Name: 14, dtype: object

>  <hydroph_interaction:TYR:63>  (16) 
hydroph_interaction:TYR:63    0.0
hydroph_interaction:TYR:63      0
Name: 14, dtype: object

>  <hbond:TYR:63>  (16) 
hbond:TYR:63    NaN
hbond:TYR:63     -1
Name: 14, dtype: object

>  <pistack:TYR:63>  (16) 
pistack:TYR:63    NaN
pistack:TYR:63     -1
Name: 14, dtype: object

>  <pication:TYR:63>  (16) 
pication:TYR:63    NaN
pication:TYR:63     -1
Name: 14, dtype: object

>  <halogenbond:TYR:64>  (16) 
halogenbond:TYR:64    NaN
halogenbond:TYR:64     -1
Name: 14, dtype: object

>  <hbond:TYR:64>  (16) 
hbond:TYR:64    NaN
hbond:TYR:64     -1
Name: 14, dtype: object

>  <hydroph_interaction:TYR:64>  (16) 
hydroph_interaction:TYR:64    NaN
hydroph_interaction:TYR:64     -1
Name: 14, dtype: object

>  <halogenbond:CYS:65>  (16) 
halogenbond:CYS:65    NaN
halogenbond:CYS:65     -1
Name: 14, dtype: object

>  <hbond:CYS:65>  (16) 
hbond:CYS:65    NaN
hbond:CYS:65     -1
Name: 14, dtype: object

>  <hbond:SER:66>  (16) 
hbond:SER:66    NaN
hbond:SER:66     -1
Name: 14, dtype: object

>  <halogenbond:SER:66>  (16) 
halogenbond:SER:66    NaN
halogenbond:SER:66     -1
Name: 14, dtype: object

>  <hbond:SER:67>  (16) 
hbond:SER:67    NaN
hbond:SER:67     -1
Name: 14, dtype: object

>  <halogenbond:SER:67>  (16) 
halogenbond:SER:67    NaN
halogenbond:SER:67     -1
Name: 14, dtype: object

>  <hbond:ARG:68>  (16) 
hbond:ARG:68    NaN
hbond:ARG:68     -1
Name: 14, dtype: object

>  <saltbridge:ARG:68>  (16) 
saltbridge:ARG:68    NaN
saltbridge:ARG:68     -1
Name: 14, dtype: object

>  <hydroph_interaction:ARG:68>  (16) 
hydroph_interaction:ARG:68    NaN
hydroph_interaction:ARG:68     -1
Name: 14, dtype: object

>  <pication:ARG:68>  (16) 
pication:ARG:68    NaN
pication:ARG:68     -1
Name: 14, dtype: object

>  <hydroph_interaction:TYR:72>  (16) 
hydroph_interaction:TYR:72    NaN
hydroph_interaction:TYR:72     -1
Name: 14, dtype: object

>  <hydroph_interaction:VAL:74>  (16) 
hydroph_interaction:VAL:74    NaN
hydroph_interaction:VAL:74     -1
Name: 14, dtype: object

>  <hydroph_interaction:PHE:76>  (16) 
hydroph_interaction:PHE:76    NaN
hydroph_interaction:PHE:76     -1
Name: 14, dtype: object

>  <hbond:SER:77>  (16) 
hbond:SER:77    NaN
hbond:SER:77     -1
Name: 14, dtype: object

>  <hbond:SER:80>  (16) 
hbond:SER:80    NaN
hbond:SER:80     -1
Name: 14, dtype: object

>  <hbond:LEU:81>  (16) 
hbond:LEU:81    NaN
hbond:LEU:81     -1
Name: 14, dtype: object

>  <halogenbond:LEU:81>  (16) 
halogenbond:LEU:81    NaN
halogenbond:LEU:81     -1
Name: 14, dtype: object

>  <hydroph_interaction:LEU:81>  (16) 
hydroph_interaction:LEU:81    NaN
hydroph_interaction:LEU:81     -1
Name: 14, dtype: object

>  <hydroph_interaction:ILE:82>  (16) 
hydroph_interaction:ILE:82    NaN
hydroph_interaction:ILE:82     -1
Name: 14, dtype: object

>  <halogenbond:ILE:82>  (16) 
halogenbond:ILE:82    NaN
halogenbond:ILE:82     -1
Name: 14, dtype: object

>  <hbond:ILE:82>  (16) 
hbond:ILE:82    NaN
hbond:ILE:82     -1
Name: 14, dtype: object

>  <hbond:PHE:83>  (16) 
hbond:PHE:83    NaN
hbond:PHE:83     -1
Name: 14, dtype: object

>  <hydroph_interaction:PHE:83>  (16) 
hydroph_interaction:PHE:83    NaN
hydroph_interaction:PHE:83     -1
Name: 14, dtype: object

>  <halogenbond:PHE:83>  (16) 
halogenbond:PHE:83    NaN
halogenbond:PHE:83     -1
Name: 14, dtype: object

>  <pistack:PHE:83>  (16) 
pistack:PHE:83    NaN
pistack:PHE:83     -1
Name: 14, dtype: object

>  <pication:PHE:83>  (16) 
pication:PHE:83    NaN
pication:PHE:83     -1
Name: 14, dtype: object

>  <hydroph_interaction:VAL:84>  (16) 
hydroph_interaction:VAL:84    0.0
hydroph_interaction:VAL:84      0
Name: 14, dtype: object

>  <halogenbond:VAL:84>  (16) 
halogenbond:VAL:84    NaN
halogenbond:VAL:84     -1
Name: 14, dtype: object

>  <hbond:VAL:84>  (16) 
hbond:VAL:84    NaN
hbond:VAL:84     -1
Name: 14, dtype: object

>  <hydroph_interaction:GLU:85>  (16) 
hydroph_interaction:GLU:85    0.0
hydroph_interaction:GLU:85      0
Name: 14, dtype: object

>  <hbond:GLU:85>  (16) 
hbond:GLU:85    NaN
hbond:GLU:85     -1
Name: 14, dtype: object

>  <halogenbond:GLU:85>  (16) 
halogenbond:GLU:85    NaN
halogenbond:GLU:85     -1
Name: 14, dtype: object

>  <saltbridge:GLU:85>  (16) 
saltbridge:GLU:85    NaN
saltbridge:GLU:85     -1
Name: 14, dtype: object

>  <halogenbond:ALA:86>  (16) 
halogenbond:ALA:86    NaN
halogenbond:ALA:86     -1
Name: 14, dtype: object

>  <hbond:ALA:86>  (16) 
hbond:ALA:86    NaN
hbond:ALA:86     -1
Name: 14, dtype: object

>  <hydroph_interaction:ALA:86>  (16) 
hydroph_interaction:ALA:86    NaN
hydroph_interaction:ALA:86     -1
Name: 14, dtype: object

>  <hbond:SER:87>  (16) 
hbond:SER:87    1
hbond:SER:87    1
Name: 14, dtype: object

>  <halogenbond:SER:87>  (16) 
halogenbond:SER:87    NaN
halogenbond:SER:87     -1
Name: 14, dtype: object

>  <hbond:GLU:88>  (16) 
hbond:GLU:88    0.0
hbond:GLU:88      0
Name: 14, dtype: object

>  <hydroph_interaction:GLU:88>  (16) 
hydroph_interaction:GLU:88    0.0
hydroph_interaction:GLU:88      0
Name: 14, dtype: object

>  <halogenbond:GLU:88>  (16) 
halogenbond:GLU:88    NaN
halogenbond:GLU:88     -1
Name: 14, dtype: object

>  <saltbridge:GLU:88>  (16) 
saltbridge:GLU:88    NaN
saltbridge:GLU:88     -1
Name: 14, dtype: object

>  <hydroph_interaction:TYR:89>  (16) 
hydroph_interaction:TYR:89    1.0
hydroph_interaction:TYR:89      1
Name: 14, dtype: object

>  <pistack:TYR:89>  (16) 
pistack:TYR:89    NaN
pistack:TYR:89     -1
Name: 14, dtype: object

>  <hbond:TYR:89>  (16) 
hbond:TYR:89    NaN
hbond:TYR:89     -1
Name: 14, dtype: object

>  <halogenbond:TYR:89>  (16) 
halogenbond:TYR:89    NaN
halogenbond:TYR:89     -1
Name: 14, dtype: object

>  <hydroph_interaction:TYR:90>  (16) 
hydroph_interaction:TYR:90    1.0
hydroph_interaction:TYR:90      1
Name: 14, dtype: object

>  <hbond:TYR:90>  (16) 
hbond:TYR:90    0.0
hbond:TYR:90      0
Name: 14, dtype: object

>  <pistack:TYR:90>  (16) 
pistack:TYR:90    NaN
pistack:TYR:90     -1
Name: 14, dtype: object

>  <halogenbond:TYR:90>  (16) 
halogenbond:TYR:90    NaN
halogenbond:TYR:90     -1
Name: 14, dtype: object

>  <pication:TYR:90>  (16) 
pication:TYR:90    NaN
pication:TYR:90     -1
Name: 14, dtype: object

>  <hbond:PRO:91>  (16) 
hbond:PRO:91    NaN
hbond:PRO:91     -1
Name: 14, dtype: object

>  <hydroph_interaction:PRO:91>  (16) 
hydroph_interaction:PRO:91    NaN
hydroph_interaction:PRO:91     -1
Name: 14, dtype: object

>  <halogenbond:PRO:91>  (16) 
halogenbond:PRO:91    NaN
halogenbond:PRO:91     -1
Name: 14, dtype: object

>  <hbond:ALA:92>  (16) 
hbond:ALA:92    NaN
hbond:ALA:92     -1
Name: 14, dtype: object

>  <hydroph_interaction:ALA:92>  (16) 
hydroph_interaction:ALA:92    NaN
hydroph_interaction:ALA:92     -1
Name: 14, dtype: object

>  <saltbridge:ARG:93>  (16) 
saltbridge:ARG:93    NaN
saltbridge:ARG:93     -1
Name: 14, dtype: object

>  <hbond:ARG:93>  (16) 
hbond:ARG:93    NaN
hbond:ARG:93     -1
Name: 14, dtype: object

>  <hydroph_interaction:ARG:93>  (16) 
hydroph_interaction:ARG:93    NaN
hydroph_interaction:ARG:93     -1
Name: 14, dtype: object

>  <halogenbond:ARG:93>  (16) 
halogenbond:ARG:93    NaN
halogenbond:ARG:93     -1
Name: 14, dtype: object

>  <pication:ARG:93>  (16) 
pication:ARG:93    NaN
pication:ARG:93     -1
Name: 14, dtype: object

>  <hydroph_interaction:TYR:94>  (16) 
hydroph_interaction:TYR:94    NaN
hydroph_interaction:TYR:94     -1
Name: 14, dtype: object

>  <pistack:TYR:94>  (16) 
pistack:TYR:94    NaN
pistack:TYR:94     -1
Name: 14, dtype: object

>  <hbond:TYR:94>  (16) 
hbond:TYR:94    NaN
hbond:TYR:94     -1
Name: 14, dtype: object

>  <hbond:GLN:95>  (16) 
hbond:GLN:95    0.0
hbond:GLN:95      0
Name: 14, dtype: object

>  <hydroph_interaction:GLN:95>  (16) 
hydroph_interaction:GLN:95    NaN
hydroph_interaction:GLN:95     -1
Name: 14, dtype: object

>  <halogenbond:GLN:95>  (16) 
halogenbond:GLN:95    0.0
halogenbond:GLN:95      0
Name: 14, dtype: object

>  <hbond:SER:96>  (16) 
hbond:SER:96    NaN
hbond:SER:96     -1
Name: 14, dtype: object

>  <halogenbond:HIS:97>  (16) 
halogenbond:HIS:97    NaN
halogenbond:HIS:97     -1
Name: 14, dtype: object

>  <hydroph_interaction:LEU:98>  (16) 
hydroph_interaction:LEU:98    NaN
hydroph_interaction:LEU:98     -1
Name: 14, dtype: object

>  <hbond:LEU:98>  (16) 
hbond:LEU:98    NaN
hbond:LEU:98     -1
Name: 14, dtype: object

>  <halogenbond:LEU:98>  (16) 
halogenbond:LEU:98    NaN
halogenbond:LEU:98     -1
Name: 14, dtype: object

>  <hbond:MET:99>  (16) 
hbond:MET:99    NaN
hbond:MET:99     -1
Name: 14, dtype: object

>  <hydroph_interaction:MET:99>  (16) 
hydroph_interaction:MET:99    NaN
hydroph_interaction:MET:99     -1
Name: 14, dtype: object

>  <halogenbond:MET:99>  (16) 
halogenbond:MET:99    NaN
halogenbond:MET:99     -1
Name: 14, dtype: object

>  <hydroph_interaction:LEU:100>  (16) 
hydroph_interaction:LEU:100    NaN
hydroph_interaction:LEU:100     -1
Name: 14, dtype: object

>  <hbond:LEU:100>  (16) 
hbond:LEU:100    NaN
hbond:LEU:100     -1
Name: 14, dtype: object

>  <hbond:ALA:101>  (16) 
hbond:ALA:101    NaN
hbond:ALA:101     -1
Name: 14, dtype: object

>  <hydroph_interaction:ALA:101>  (16) 
hydroph_interaction:ALA:101    NaN
hydroph_interaction:ALA:101     -1
Name: 14, dtype: object

>  <hydroph_interaction:VAL:102>  (16) 
hydroph_interaction:VAL:102    NaN
hydroph_interaction:VAL:102     -1
Name: 14, dtype: object

>  <hbond:VAL:102>  (16) 
hbond:VAL:102    NaN
hbond:VAL:102     -1
Name: 14, dtype: object

>  <hbond:GLY:103>  (16) 
hbond:GLY:103    NaN
hbond:GLY:103     -1
Name: 14, dtype: object

>  <halogenbond:GLY:103>  (16) 
halogenbond:GLY:103    NaN
halogenbond:GLY:103     -1
Name: 14, dtype: object

>  <hbond:HIS:104>  (16) 
hbond:HIS:104    NaN
hbond:HIS:104     -1
Name: 14, dtype: object

>  <saltbridge:HIS:104>  (16) 
saltbridge:HIS:104    NaN
saltbridge:HIS:104     -1
Name: 14, dtype: object

>  <pication:HIS:104>  (16) 
pication:HIS:104    NaN
pication:HIS:104     -1
Name: 14, dtype: object

>  <halogenbond:HIS:104>  (16) 
halogenbond:HIS:104    NaN
halogenbond:HIS:104     -1
Name: 14, dtype: object

>  <hydroph_interaction:HIS:104>  (16) 
hydroph_interaction:HIS:104    NaN
hydroph_interaction:HIS:104     -1
Name: 14, dtype: object

>  <pistack:HIS:104>  (16) 
pistack:HIS:104    NaN
pistack:HIS:104     -1
Name: 14, dtype: object

>  <halogenbond:SER:105>  (16) 
halogenbond:SER:105    0.0
halogenbond:SER:105      0
Name: 14, dtype: object

>  <hbond:SER:105>  (16) 
hbond:SER:105    0.0
hbond:SER:105      0
Name: 14, dtype: object

>  <hbond:GLU:106>  (16) 
hbond:GLU:106    0.0
hbond:GLU:106      0
Name: 14, dtype: object

>  <hydroph_interaction:GLU:106>  (16) 
hydroph_interaction:GLU:106    NaN
hydroph_interaction:GLU:106     -1
Name: 14, dtype: object

>  <saltbridge:GLU:106>  (16) 
saltbridge:GLU:106    NaN
saltbridge:GLU:106     -1
Name: 14, dtype: object

>  <halogenbond:GLU:106>  (16) 
halogenbond:GLU:106    NaN
halogenbond:GLU:106     -1
Name: 14, dtype: object

>  <hydroph_interaction:PRO:107>  (16) 
hydroph_interaction:PRO:107    1
hydroph_interaction:PRO:107    1
Name: 14, dtype: object

>  <hbond:PRO:107>  (16) 
hbond:PRO:107    0.0
hbond:PRO:107      0
Name: 14, dtype: object

>  <halogenbond:PRO:107>  (16) 
halogenbond:PRO:107    0.0
halogenbond:PRO:107      0
Name: 14, dtype: object

>  <hbond:GLY:108>  (16) 
hbond:GLY:108    NaN
hbond:GLY:108     -1
Name: 14, dtype: object

>  <halogenbond:GLY:108>  (16) 
halogenbond:GLY:108    NaN
halogenbond:GLY:108     -1
Name: 14, dtype: object

>  <hbond:ASP:109>  (16) 
hbond:ASP:109    0.0
hbond:ASP:109      0
Name: 14, dtype: object

>  <hydroph_interaction:ASP:109>  (16) 
hydroph_interaction:ASP:109    0.0
hydroph_interaction:ASP:109      0
Name: 14, dtype: object

>  <saltbridge:ASP:109>  (16) 
saltbridge:ASP:109    NaN
saltbridge:ASP:109     -1
Name: 14, dtype: object

>  <halogenbond:CYS:110>  (16) 
halogenbond:CYS:110    0.0
halogenbond:CYS:110      0
Name: 14, dtype: object

>  <hbond:CYS:110>  (16) 
hbond:CYS:110    0.0
hbond:CYS:110      0
Name: 14, dtype: object

>  <hbond:GLY:111>  (16) 
hbond:GLY:111    NaN
hbond:GLY:111     -1
Name: 14, dtype: object

>  <hbond:GLY:112>  (16) 
hbond:GLY:112    NaN
hbond:GLY:112     -1
Name: 14, dtype: object

>  <hbond:ILE:113>  (16) 
hbond:ILE:113    NaN
hbond:ILE:113     -1
Name: 14, dtype: object

>  <hydroph_interaction:LEU:114>  (16) 
hydroph_interaction:LEU:114    NaN
hydroph_interaction:LEU:114     -1
Name: 14, dtype: object

>  <hbond:LEU:114>  (16) 
hbond:LEU:114    NaN
hbond:LEU:114     -1
Name: 14, dtype: object

>  <hydroph_interaction:ILE:123>  (16) 
hydroph_interaction:ILE:123    NaN
hydroph_interaction:ILE:123     -1
Name: 14, dtype: object

>  <hbond:ILE:123>  (16) 
hbond:ILE:123    NaN
hbond:ILE:123     -1
Name: 14, dtype: object

>  <hydroph_interaction:VAL:124>  (16) 
hydroph_interaction:VAL:124    0.0
hydroph_interaction:VAL:124      0
Name: 14, dtype: object

>  <hbond:VAL:124>  (16) 
hbond:VAL:124    NaN
hbond:VAL:124     -1
Name: 14, dtype: object

>  <halogenbond:VAL:124>  (16) 
halogenbond:VAL:124    NaN
halogenbond:VAL:124     -1
Name: 14, dtype: object

>  <hbond:SER:125>  (16) 
hbond:SER:125    0
hbond:SER:125    0
Name: 14, dtype: object

>  <halogenbond:SER:125>  (16) 
halogenbond:SER:125    0.0
halogenbond:SER:125      0
Name: 14, dtype: object

>  <hydroph_interaction:THR:126>  (16) 
hydroph_interaction:THR:126    1.0
hydroph_interaction:THR:126      1
Name: 14, dtype: object

>  <hbond:THR:126>  (16) 
hbond:THR:126    0.0
hbond:THR:126      0
Name: 14, dtype: object

>  <halogenbond:THR:126>  (16) 
halogenbond:THR:126    NaN
halogenbond:THR:126     -1
Name: 14, dtype: object

>  <hbond:GLY:127>  (16) 
hbond:GLY:127    0
hbond:GLY:127    0
Name: 14, dtype: object

>  <halogenbond:GLY:127>  (16) 
halogenbond:GLY:127    NaN
halogenbond:GLY:127     -1
Name: 14, dtype: object

>  <hydroph_interaction:GLY:127>  (16) 
hydroph_interaction:GLY:127    NaN
hydroph_interaction:GLY:127     -1
Name: 14, dtype: object

>  <hbond:GLY:128>  (16) 
hbond:GLY:128    NaN
hbond:GLY:128     -1
Name: 14, dtype: object

>  <halogenbond:GLY:128>  (16) 
halogenbond:GLY:128    NaN
halogenbond:GLY:128     -1
Name: 14, dtype: object

>  <hydroph_interaction:GLY:128>  (16) 
hydroph_interaction:GLY:128    NaN
hydroph_interaction:GLY:128     -1
Name: 14, dtype: object

>  <hbond:ASN:129>  (16) 
hbond:ASN:129    NaN
hbond:ASN:129     -1
Name: 14, dtype: object

>  <hydroph_interaction:ASN:129>  (16) 
hydroph_interaction:ASN:129    NaN
hydroph_interaction:ASN:129     -1
Name: 14, dtype: object

>  <halogenbond:ASN:129>  (16) 
halogenbond:ASN:129    NaN
halogenbond:ASN:129     -1
Name: 14, dtype: object

>  <hbond:GLY:130>  (16) 
hbond:GLY:130    NaN
hbond:GLY:130     -1
Name: 14, dtype: object

>  <hbond:LEU:131>  (16) 
hbond:LEU:131    NaN
hbond:LEU:131     -1
Name: 14, dtype: object

>  <hydroph_interaction:LEU:131>  (16) 
hydroph_interaction:LEU:131    NaN
hydroph_interaction:LEU:131     -1
Name: 14, dtype: object

>  <halogenbond:LEU:131>  (16) 
halogenbond:LEU:131    NaN
halogenbond:LEU:131     -1
Name: 14, dtype: object

>  <hydroph_interaction:VAL:132>  (16) 
hydroph_interaction:VAL:132    0.0
hydroph_interaction:VAL:132      0
Name: 14, dtype: object

>  <hbond:VAL:132>  (16) 
hbond:VAL:132    NaN
hbond:VAL:132     -1
Name: 14, dtype: object

>  <hbond:GLY:133>  (16) 
hbond:GLY:133    NaN
hbond:GLY:133     -1
Name: 14, dtype: object

>  <halogenbond:GLY:133>  (16) 
halogenbond:GLY:133    NaN
halogenbond:GLY:133     -1
Name: 14, dtype: object

>  <hydroph_interaction:PHE:134>  (16) 
hydroph_interaction:PHE:134    NaN
hydroph_interaction:PHE:134     -1
Name: 14, dtype: object

>  <hbond:PHE:134>  (16) 
hbond:PHE:134    NaN
hbond:PHE:134     -1
Name: 14, dtype: object

>  <pistack:PHE:134>  (16) 
pistack:PHE:134    NaN
pistack:PHE:134     -1
Name: 14, dtype: object

>  <pication:PHE:134>  (16) 
pication:PHE:134    NaN
pication:PHE:134     -1
Name: 14, dtype: object

>  <halogenbond:PHE:134>  (16) 
halogenbond:PHE:134    NaN
halogenbond:PHE:134     -1
Name: 14, dtype: object

>  <hydroph_interaction:ALA:135>  (16) 
hydroph_interaction:ALA:135    NaN
hydroph_interaction:ALA:135     -1
Name: 14, dtype: object

>  <hbond:ALA:135>  (16) 
hbond:ALA:135    NaN
hbond:ALA:135     -1
Name: 14, dtype: object

$$$$
Z3193284779
     RDKit          3D

 16 16  0  0  0  0  0  0  0  0999 V2000
   28.1613   12.9075    7.3300 C   0  0  0  0  0  0  0  0  0  0  0  0
   27.9535   14.3895    7.2973 C   0  0  0  0  0  0  0  0  0  0  0  0
   28.6790   15.0691    8.3607 N   0  0  0  0  0  0  0  0  0  0  0  0
   27.8437   15.8016    9.2694 C   0  0  0  0  0  0  0  0  0  0  0  0
   29.8966   14.6204    8.8446 C   0  0  0  0  0  0  0  0  0  0  0  0
   30.6487   15.3197    9.5259 O   0  0  0  0  0  0  0  0  0  0  0  0
   30.2089   13.3486    8.4828 N   0  0  0  0  0  0  0  0  0  0  0  0
   31.0935   13.1112    7.3573 C   0  0  0  0  0  0  0  0  0  0  0  0
   31.4364   11.6747    7.2214 C   0  0  0  0  0  0  0  0  0  0  0  0
   30.7786   10.7665    8.0137 C   0  0  0  0  0  0  0  0  0  0  0  0
   31.0759    9.4281    7.9219 C   0  0  0  0  0  0  0  0  0  0  0  0
   30.3392    8.4459    8.8158 C   0  0  0  0  0  0  0  0  0  0  0  0
   32.0460    8.9943    7.0221 C   0  0  0  0  0  0  0  0  0  0  0  0
   32.7195    9.8937    6.2080 C   0  0  0  0  0  0  0  0  0  0  0  0
   32.4066   11.2445    6.3137 C   0  0  0  0  0  0  0  0  0  0  0  0
   33.0485   12.1295    5.5352 F   0  0  0  0  0  0  0  0  0  0  0  0
  1  2  1  0
  2  3  1  0
  3  4  1  0
  3  5  1  0
  5  6  2  0
  5  7  1  0
  7  8  1  0
  8  9  1  0
  9 10  2  0
 10 11  1  0
 11 12  1  0
 11 13  2  0
 13 14  1  0
 14 15  2  0
 15 16  1  0
 15  9  1  0
A    1
 C1 
A    2
 C2 
A    3
 N1 
A    4
 C3 
A    5
 C4 
A    6
 O1 
A    7
 N2 
A    8
 C5 
A    9
 C6 
A   10
 C7 
A   11
 C8 
A   12
 C9 
A   13
 C10
A   14
 C11
A   15
 C12
A   16
 F1 
M  END
>  <ref_pdb>  (17) 
Ax0310a

>  <ref_mols>  (17) 
Ax0416a,Ax0528a

>  <original SMILES>  (17) 
CCN(C)C(=O)NCc1cc(C)ccc1F

>  <rationale>  (17) 
info halogenbond:G127+D39+A86+E85+E106+E88+T126+P107+Y64+C65+N129+F83+R93+L131+I82+G128+P91+N19+H21+V84+G133+Y90+Y89+H97+L81+F134+L98+R20+G103+S66+S67+S7+G108+R38+V124+M99+S36; hbond:S87+S125+T126+A86+E85+G103+G128+G130+L131+N129+H104+R68+V124+R93+P91+F83+S7+S66+G112+G133+V132+R20+Y89+S77+A135+Y63+A92+A101+M99+F134+L100+I82+Y64+S36+L98+V84+L81+Y94+S80+R38+S37+V102+G8+I123+G111+I113+L114+C65+L22+S96; hydroph_interaction:V124+L22+E106+E88+N129+N19+L40+I123+A135+I82+L100+L98+L131+F83+R93+V132+Y63+F134+H104+R20+A86+V74+P91+A101+F76+M99+L114+A92+Y94+R68+Y72+Y64+V18+V102+W28+G127+G128+L81; pication:H104+Y63+F134+Y90+R68+F83+R20; pistack:H21+Y89+H104+F134+Y63+F83+Y94; saltbridge:R93+H104+E106+D109+E85+E88+R68+R20; 

>  <intxn_cluster>  (17) 
-1

>  <intxn_cluster_rank>  (17) 
-1

>  <N_interactions>  (17) 
3

>  <∆∆G>  (17) 
-13.75911

>  <$/mg>  (17) 
0.0

>  <comRMSD>  (17) 
0.729443

>  <N_rotatable_bonds>  (17) 
6

>  <deep_P1_sidechain>  (17) 
nan

>  <farthest_distance_to_substrate>  (17) 
2.196218

>  <hbond:SER:7>  (17) 
hbond:SER:7    NaN
hbond:SER:7     -1
Name: 15, dtype: object

>  <halogenbond:SER:7>  (17) 
halogenbond:SER:7    NaN
halogenbond:SER:7     -1
Name: 15, dtype: object

>  <hbond:GLY:8>  (17) 
hbond:GLY:8    NaN
hbond:GLY:8     -1
Name: 15, dtype: object

>  <hydroph_interaction:VAL:18>  (17) 
hydroph_interaction:VAL:18    NaN
hydroph_interaction:VAL:18     -1
Name: 15, dtype: object

>  <hbond:ASN:19>  (17) 
hbond:ASN:19    0.0
hbond:ASN:19      0
Name: 15, dtype: object

>  <hydroph_interaction:ASN:19>  (17) 
hydroph_interaction:ASN:19    NaN
hydroph_interaction:ASN:19     -1
Name: 15, dtype: object

>  <halogenbond:ASN:19>  (17) 
halogenbond:ASN:19    NaN
halogenbond:ASN:19     -1
Name: 15, dtype: object

>  <hbond:ARG:20>  (17) 
hbond:ARG:20    NaN
hbond:ARG:20     -1
Name: 15, dtype: object

>  <hydroph_interaction:ARG:20>  (17) 
hydroph_interaction:ARG:20    NaN
hydroph_interaction:ARG:20     -1
Name: 15, dtype: object

>  <saltbridge:ARG:20>  (17) 
saltbridge:ARG:20    NaN
saltbridge:ARG:20     -1
Name: 15, dtype: object

>  <halogenbond:ARG:20>  (17) 
halogenbond:ARG:20    NaN
halogenbond:ARG:20     -1
Name: 15, dtype: object

>  <pication:ARG:20>  (17) 
pication:ARG:20    NaN
pication:ARG:20     -1
Name: 15, dtype: object

>  <hbond:HIS:21>  (17) 
hbond:HIS:21    0.0
hbond:HIS:21      0
Name: 15, dtype: object

>  <hydroph_interaction:HIS:21>  (17) 
hydroph_interaction:HIS:21    0.0
hydroph_interaction:HIS:21      0
Name: 15, dtype: object

>  <pistack:HIS:21>  (17) 
pistack:HIS:21    NaN
pistack:HIS:21     -1
Name: 15, dtype: object

>  <pication:HIS:21>  (17) 
pication:HIS:21    0.0
pication:HIS:21      0
Name: 15, dtype: object

>  <saltbridge:HIS:21>  (17) 
saltbridge:HIS:21    0.0
saltbridge:HIS:21      0
Name: 15, dtype: object

>  <halogenbond:HIS:21>  (17) 
halogenbond:HIS:21    NaN
halogenbond:HIS:21     -1
Name: 15, dtype: object

>  <hydroph_interaction:LEU:22>  (17) 
hydroph_interaction:LEU:22    NaN
hydroph_interaction:LEU:22     -1
Name: 15, dtype: object

>  <hbond:LEU:22>  (17) 
hbond:LEU:22    NaN
hbond:LEU:22     -1
Name: 15, dtype: object

>  <hydroph_interaction:TRP:28>  (17) 
hydroph_interaction:TRP:28    NaN
hydroph_interaction:TRP:28     -1
Name: 15, dtype: object

>  <hbond:SER:36>  (17) 
hbond:SER:36    NaN
hbond:SER:36     -1
Name: 15, dtype: object

>  <halogenbond:SER:36>  (17) 
halogenbond:SER:36    NaN
halogenbond:SER:36     -1
Name: 15, dtype: object

>  <hbond:SER:37>  (17) 
hbond:SER:37    NaN
hbond:SER:37     -1
Name: 15, dtype: object

>  <hbond:ARG:38>  (17) 
hbond:ARG:38    NaN
hbond:ARG:38     -1
Name: 15, dtype: object

>  <halogenbond:ARG:38>  (17) 
halogenbond:ARG:38    NaN
halogenbond:ARG:38     -1
Name: 15, dtype: object

>  <saltbridge:ASP:39>  (17) 
saltbridge:ASP:39    0.0
saltbridge:ASP:39      0
Name: 15, dtype: object

>  <halogenbond:ASP:39>  (17) 
halogenbond:ASP:39    NaN
halogenbond:ASP:39     -1
Name: 15, dtype: object

>  <hbond:ASP:39>  (17) 
hbond:ASP:39    0.0
hbond:ASP:39      0
Name: 15, dtype: object

>  <hydroph_interaction:ASP:39>  (17) 
hydroph_interaction:ASP:39    0.0
hydroph_interaction:ASP:39      0
Name: 15, dtype: object

>  <hydroph_interaction:LEU:40>  (17) 
hydroph_interaction:LEU:40    NaN
hydroph_interaction:LEU:40     -1
Name: 15, dtype: object

>  <hydroph_interaction:TYR:63>  (17) 
hydroph_interaction:TYR:63    NaN
hydroph_interaction:TYR:63     -1
Name: 15, dtype: object

>  <hbond:TYR:63>  (17) 
hbond:TYR:63    NaN
hbond:TYR:63     -1
Name: 15, dtype: object

>  <pistack:TYR:63>  (17) 
pistack:TYR:63    NaN
pistack:TYR:63     -1
Name: 15, dtype: object

>  <pication:TYR:63>  (17) 
pication:TYR:63    NaN
pication:TYR:63     -1
Name: 15, dtype: object

>  <halogenbond:TYR:64>  (17) 
halogenbond:TYR:64    NaN
halogenbond:TYR:64     -1
Name: 15, dtype: object

>  <hbond:TYR:64>  (17) 
hbond:TYR:64    NaN
hbond:TYR:64     -1
Name: 15, dtype: object

>  <hydroph_interaction:TYR:64>  (17) 
hydroph_interaction:TYR:64    NaN
hydroph_interaction:TYR:64     -1
Name: 15, dtype: object

>  <halogenbond:CYS:65>  (17) 
halogenbond:CYS:65    NaN
halogenbond:CYS:65     -1
Name: 15, dtype: object

>  <hbond:CYS:65>  (17) 
hbond:CYS:65    NaN
hbond:CYS:65     -1
Name: 15, dtype: object

>  <hbond:SER:66>  (17) 
hbond:SER:66    NaN
hbond:SER:66     -1
Name: 15, dtype: object

>  <halogenbond:SER:66>  (17) 
halogenbond:SER:66    NaN
halogenbond:SER:66     -1
Name: 15, dtype: object

>  <hbond:SER:67>  (17) 
hbond:SER:67    0.0
hbond:SER:67      0
Name: 15, dtype: object

>  <halogenbond:SER:67>  (17) 
halogenbond:SER:67    NaN
halogenbond:SER:67     -1
Name: 15, dtype: object

>  <hbond:ARG:68>  (17) 
hbond:ARG:68    NaN
hbond:ARG:68     -1
Name: 15, dtype: object

>  <saltbridge:ARG:68>  (17) 
saltbridge:ARG:68    NaN
saltbridge:ARG:68     -1
Name: 15, dtype: object

>  <hydroph_interaction:ARG:68>  (17) 
hydroph_interaction:ARG:68    NaN
hydroph_interaction:ARG:68     -1
Name: 15, dtype: object

>  <pication:ARG:68>  (17) 
pication:ARG:68    NaN
pication:ARG:68     -1
Name: 15, dtype: object

>  <hydroph_interaction:TYR:72>  (17) 
hydroph_interaction:TYR:72    NaN
hydroph_interaction:TYR:72     -1
Name: 15, dtype: object

>  <hydroph_interaction:VAL:74>  (17) 
hydroph_interaction:VAL:74    NaN
hydroph_interaction:VAL:74     -1
Name: 15, dtype: object

>  <hydroph_interaction:PHE:76>  (17) 
hydroph_interaction:PHE:76    NaN
hydroph_interaction:PHE:76     -1
Name: 15, dtype: object

>  <hbond:SER:77>  (17) 
hbond:SER:77    NaN
hbond:SER:77     -1
Name: 15, dtype: object

>  <hbond:SER:80>  (17) 
hbond:SER:80    NaN
hbond:SER:80     -1
Name: 15, dtype: object

>  <hbond:LEU:81>  (17) 
hbond:LEU:81    NaN
hbond:LEU:81     -1
Name: 15, dtype: object

>  <halogenbond:LEU:81>  (17) 
halogenbond:LEU:81    NaN
halogenbond:LEU:81     -1
Name: 15, dtype: object

>  <hydroph_interaction:LEU:81>  (17) 
hydroph_interaction:LEU:81    NaN
hydroph_interaction:LEU:81     -1
Name: 15, dtype: object

>  <hydroph_interaction:ILE:82>  (17) 
hydroph_interaction:ILE:82    NaN
hydroph_interaction:ILE:82     -1
Name: 15, dtype: object

>  <halogenbond:ILE:82>  (17) 
halogenbond:ILE:82    NaN
halogenbond:ILE:82     -1
Name: 15, dtype: object

>  <hbond:ILE:82>  (17) 
hbond:ILE:82    NaN
hbond:ILE:82     -1
Name: 15, dtype: object

>  <hbond:PHE:83>  (17) 
hbond:PHE:83    NaN
hbond:PHE:83     -1
Name: 15, dtype: object

>  <hydroph_interaction:PHE:83>  (17) 
hydroph_interaction:PHE:83    NaN
hydroph_interaction:PHE:83     -1
Name: 15, dtype: object

>  <halogenbond:PHE:83>  (17) 
halogenbond:PHE:83    NaN
halogenbond:PHE:83     -1
Name: 15, dtype: object

>  <pistack:PHE:83>  (17) 
pistack:PHE:83    NaN
pistack:PHE:83     -1
Name: 15, dtype: object

>  <pication:PHE:83>  (17) 
pication:PHE:83    NaN
pication:PHE:83     -1
Name: 15, dtype: object

>  <hydroph_interaction:VAL:84>  (17) 
hydroph_interaction:VAL:84    0.0
hydroph_interaction:VAL:84      0
Name: 15, dtype: object

>  <halogenbond:VAL:84>  (17) 
halogenbond:VAL:84    NaN
halogenbond:VAL:84     -1
Name: 15, dtype: object

>  <hbond:VAL:84>  (17) 
hbond:VAL:84    NaN
hbond:VAL:84     -1
Name: 15, dtype: object

>  <hydroph_interaction:GLU:85>  (17) 
hydroph_interaction:GLU:85    0.0
hydroph_interaction:GLU:85      0
Name: 15, dtype: object

>  <hbond:GLU:85>  (17) 
hbond:GLU:85    NaN
hbond:GLU:85     -1
Name: 15, dtype: object

>  <halogenbond:GLU:85>  (17) 
halogenbond:GLU:85    NaN
halogenbond:GLU:85     -1
Name: 15, dtype: object

>  <saltbridge:GLU:85>  (17) 
saltbridge:GLU:85    NaN
saltbridge:GLU:85     -1
Name: 15, dtype: object

>  <halogenbond:ALA:86>  (17) 
halogenbond:ALA:86    NaN
halogenbond:ALA:86     -1
Name: 15, dtype: object

>  <hbond:ALA:86>  (17) 
hbond:ALA:86    NaN
hbond:ALA:86     -1
Name: 15, dtype: object

>  <hydroph_interaction:ALA:86>  (17) 
hydroph_interaction:ALA:86    NaN
hydroph_interaction:ALA:86     -1
Name: 15, dtype: object

>  <hbond:SER:87>  (17) 
hbond:SER:87    1
hbond:SER:87    1
Name: 15, dtype: object

>  <halogenbond:SER:87>  (17) 
halogenbond:SER:87    0.0
halogenbond:SER:87      0
Name: 15, dtype: object

>  <hbond:GLU:88>  (17) 
hbond:GLU:88    0.0
hbond:GLU:88      0
Name: 15, dtype: object

>  <hydroph_interaction:GLU:88>  (17) 
hydroph_interaction:GLU:88    NaN
hydroph_interaction:GLU:88     -1
Name: 15, dtype: object

>  <halogenbond:GLU:88>  (17) 
halogenbond:GLU:88    NaN
halogenbond:GLU:88     -1
Name: 15, dtype: object

>  <saltbridge:GLU:88>  (17) 
saltbridge:GLU:88    NaN
saltbridge:GLU:88     -1
Name: 15, dtype: object

>  <hydroph_interaction:TYR:89>  (17) 
hydroph_interaction:TYR:89    0.0
hydroph_interaction:TYR:89      0
Name: 15, dtype: object

>  <pistack:TYR:89>  (17) 
pistack:TYR:89    NaN
pistack:TYR:89     -1
Name: 15, dtype: object

>  <hbond:TYR:89>  (17) 
hbond:TYR:89    NaN
hbond:TYR:89     -1
Name: 15, dtype: object

>  <halogenbond:TYR:89>  (17) 
halogenbond:TYR:89    NaN
halogenbond:TYR:89     -1
Name: 15, dtype: object

>  <hydroph_interaction:TYR:90>  (17) 
hydroph_interaction:TYR:90    0.0
hydroph_interaction:TYR:90      0
Name: 15, dtype: object

>  <hbond:TYR:90>  (17) 
hbond:TYR:90    0.0
hbond:TYR:90      0
Name: 15, dtype: object

>  <pistack:TYR:90>  (17) 
pistack:TYR:90    0.0
pistack:TYR:90      0
Name: 15, dtype: object

>  <halogenbond:TYR:90>  (17) 
halogenbond:TYR:90    NaN
halogenbond:TYR:90     -1
Name: 15, dtype: object

>  <pication:TYR:90>  (17) 
pication:TYR:90    NaN
pication:TYR:90     -1
Name: 15, dtype: object

>  <hbond:PRO:91>  (17) 
hbond:PRO:91    NaN
hbond:PRO:91     -1
Name: 15, dtype: object

>  <hydroph_interaction:PRO:91>  (17) 
hydroph_interaction:PRO:91    NaN
hydroph_interaction:PRO:91     -1
Name: 15, dtype: object

>  <halogenbond:PRO:91>  (17) 
halogenbond:PRO:91    NaN
halogenbond:PRO:91     -1
Name: 15, dtype: object

>  <hbond:ALA:92>  (17) 
hbond:ALA:92    NaN
hbond:ALA:92     -1
Name: 15, dtype: object

>  <hydroph_interaction:ALA:92>  (17) 
hydroph_interaction:ALA:92    NaN
hydroph_interaction:ALA:92     -1
Name: 15, dtype: object

>  <saltbridge:ARG:93>  (17) 
saltbridge:ARG:93    NaN
saltbridge:ARG:93     -1
Name: 15, dtype: object

>  <hbond:ARG:93>  (17) 
hbond:ARG:93    NaN
hbond:ARG:93     -1
Name: 15, dtype: object

>  <hydroph_interaction:ARG:93>  (17) 
hydroph_interaction:ARG:93    NaN
hydroph_interaction:ARG:93     -1
Name: 15, dtype: object

>  <halogenbond:ARG:93>  (17) 
halogenbond:ARG:93    NaN
halogenbond:ARG:93     -1
Name: 15, dtype: object

>  <pication:ARG:93>  (17) 
pication:ARG:93    0.0
pication:ARG:93      0
Name: 15, dtype: object

>  <hydroph_interaction:TYR:94>  (17) 
hydroph_interaction:TYR:94    NaN
hydroph_interaction:TYR:94     -1
Name: 15, dtype: object

>  <pistack:TYR:94>  (17) 
pistack:TYR:94    NaN
pistack:TYR:94     -1
Name: 15, dtype: object

>  <hbond:TYR:94>  (17) 
hbond:TYR:94    NaN
hbond:TYR:94     -1
Name: 15, dtype: object

>  <hbond:GLN:95>  (17) 
hbond:GLN:95    0.0
hbond:GLN:95      0
Name: 15, dtype: object

>  <hydroph_interaction:GLN:95>  (17) 
hydroph_interaction:GLN:95    0.0
hydroph_interaction:GLN:95      0
Name: 15, dtype: object

>  <halogenbond:GLN:95>  (17) 
halogenbond:GLN:95    0.0
halogenbond:GLN:95      0
Name: 15, dtype: object

>  <hbond:SER:96>  (17) 
hbond:SER:96    NaN
hbond:SER:96     -1
Name: 15, dtype: object

>  <halogenbond:HIS:97>  (17) 
halogenbond:HIS:97    NaN
halogenbond:HIS:97     -1
Name: 15, dtype: object

>  <hydroph_interaction:LEU:98>  (17) 
hydroph_interaction:LEU:98    NaN
hydroph_interaction:LEU:98     -1
Name: 15, dtype: object

>  <hbond:LEU:98>  (17) 
hbond:LEU:98    NaN
hbond:LEU:98     -1
Name: 15, dtype: object

>  <halogenbond:LEU:98>  (17) 
halogenbond:LEU:98    NaN
halogenbond:LEU:98     -1
Name: 15, dtype: object

>  <hbond:MET:99>  (17) 
hbond:MET:99    NaN
hbond:MET:99     -1
Name: 15, dtype: object

>  <hydroph_interaction:MET:99>  (17) 
hydroph_interaction:MET:99    NaN
hydroph_interaction:MET:99     -1
Name: 15, dtype: object

>  <halogenbond:MET:99>  (17) 
halogenbond:MET:99    NaN
halogenbond:MET:99     -1
Name: 15, dtype: object

>  <hydroph_interaction:LEU:100>  (17) 
hydroph_interaction:LEU:100    NaN
hydroph_interaction:LEU:100     -1
Name: 15, dtype: object

>  <hbond:LEU:100>  (17) 
hbond:LEU:100    NaN
hbond:LEU:100     -1
Name: 15, dtype: object

>  <hbond:ALA:101>  (17) 
hbond:ALA:101    NaN
hbond:ALA:101     -1
Name: 15, dtype: object

>  <hydroph_interaction:ALA:101>  (17) 
hydroph_interaction:ALA:101    NaN
hydroph_interaction:ALA:101     -1
Name: 15, dtype: object

>  <hydroph_interaction:VAL:102>  (17) 
hydroph_interaction:VAL:102    NaN
hydroph_interaction:VAL:102     -1
Name: 15, dtype: object

>  <hbond:VAL:102>  (17) 
hbond:VAL:102    NaN
hbond:VAL:102     -1
Name: 15, dtype: object

>  <hbond:GLY:103>  (17) 
hbond:GLY:103    NaN
hbond:GLY:103     -1
Name: 15, dtype: object

>  <halogenbond:GLY:103>  (17) 
halogenbond:GLY:103    NaN
halogenbond:GLY:103     -1
Name: 15, dtype: object

>  <hbond:HIS:104>  (17) 
hbond:HIS:104    NaN
hbond:HIS:104     -1
Name: 15, dtype: object

>  <saltbridge:HIS:104>  (17) 
saltbridge:HIS:104    NaN
saltbridge:HIS:104     -1
Name: 15, dtype: object

>  <pication:HIS:104>  (17) 
pication:HIS:104    NaN
pication:HIS:104     -1
Name: 15, dtype: object

>  <halogenbond:HIS:104>  (17) 
halogenbond:HIS:104    0.0
halogenbond:HIS:104      0
Name: 15, dtype: object

>  <hydroph_interaction:HIS:104>  (17) 
hydroph_interaction:HIS:104    NaN
hydroph_interaction:HIS:104     -1
Name: 15, dtype: object

>  <pistack:HIS:104>  (17) 
pistack:HIS:104    NaN
pistack:HIS:104     -1
Name: 15, dtype: object

>  <halogenbond:SER:105>  (17) 
halogenbond:SER:105    0.0
halogenbond:SER:105      0
Name: 15, dtype: object

>  <hbond:SER:105>  (17) 
hbond:SER:105    0.0
hbond:SER:105      0
Name: 15, dtype: object

>  <hbond:GLU:106>  (17) 
hbond:GLU:106    0.0
hbond:GLU:106      0
Name: 15, dtype: object

>  <hydroph_interaction:GLU:106>  (17) 
hydroph_interaction:GLU:106    NaN
hydroph_interaction:GLU:106     -1
Name: 15, dtype: object

>  <saltbridge:GLU:106>  (17) 
saltbridge:GLU:106    NaN
saltbridge:GLU:106     -1
Name: 15, dtype: object

>  <halogenbond:GLU:106>  (17) 
halogenbond:GLU:106    NaN
halogenbond:GLU:106     -1
Name: 15, dtype: object

>  <hydroph_interaction:PRO:107>  (17) 
hydroph_interaction:PRO:107    0
hydroph_interaction:PRO:107    0
Name: 15, dtype: object

>  <hbond:PRO:107>  (17) 
hbond:PRO:107    0.0
hbond:PRO:107      0
Name: 15, dtype: object

>  <halogenbond:PRO:107>  (17) 
halogenbond:PRO:107    NaN
halogenbond:PRO:107     -1
Name: 15, dtype: object

>  <hbond:GLY:108>  (17) 
hbond:GLY:108    0.0
hbond:GLY:108      0
Name: 15, dtype: object

>  <halogenbond:GLY:108>  (17) 
halogenbond:GLY:108    NaN
halogenbond:GLY:108     -1
Name: 15, dtype: object

>  <hbond:ASP:109>  (17) 
hbond:ASP:109    0.0
hbond:ASP:109      0
Name: 15, dtype: object

>  <hydroph_interaction:ASP:109>  (17) 
hydroph_interaction:ASP:109    0.0
hydroph_interaction:ASP:109      0
Name: 15, dtype: object

>  <saltbridge:ASP:109>  (17) 
saltbridge:ASP:109    NaN
saltbridge:ASP:109     -1
Name: 15, dtype: object

>  <halogenbond:CYS:110>  (17) 
halogenbond:CYS:110    0.0
halogenbond:CYS:110      0
Name: 15, dtype: object

>  <hbond:CYS:110>  (17) 
hbond:CYS:110    0.0
hbond:CYS:110      0
Name: 15, dtype: object

>  <hbond:GLY:111>  (17) 
hbond:GLY:111    NaN
hbond:GLY:111     -1
Name: 15, dtype: object

>  <hbond:GLY:112>  (17) 
hbond:GLY:112    NaN
hbond:GLY:112     -1
Name: 15, dtype: object

>  <hbond:ILE:113>  (17) 
hbond:ILE:113    NaN
hbond:ILE:113     -1
Name: 15, dtype: object

>  <hydroph_interaction:LEU:114>  (17) 
hydroph_interaction:LEU:114    NaN
hydroph_interaction:LEU:114     -1
Name: 15, dtype: object

>  <hbond:LEU:114>  (17) 
hbond:LEU:114    NaN
hbond:LEU:114     -1
Name: 15, dtype: object

>  <hydroph_interaction:ILE:123>  (17) 
hydroph_interaction:ILE:123    NaN
hydroph_interaction:ILE:123     -1
Name: 15, dtype: object

>  <hbond:ILE:123>  (17) 
hbond:ILE:123    NaN
hbond:ILE:123     -1
Name: 15, dtype: object

>  <hydroph_interaction:VAL:124>  (17) 
hydroph_interaction:VAL:124    1.0
hydroph_interaction:VAL:124      1
Name: 15, dtype: object

>  <hbond:VAL:124>  (17) 
hbond:VAL:124    NaN
hbond:VAL:124     -1
Name: 15, dtype: object

>  <halogenbond:VAL:124>  (17) 
halogenbond:VAL:124    NaN
halogenbond:VAL:124     -1
Name: 15, dtype: object

>  <hbond:SER:125>  (17) 
hbond:SER:125    1
hbond:SER:125    1
Name: 15, dtype: object

>  <halogenbond:SER:125>  (17) 
halogenbond:SER:125    0.0
halogenbond:SER:125      0
Name: 15, dtype: object

>  <hydroph_interaction:THR:126>  (17) 
hydroph_interaction:THR:126    0.0
hydroph_interaction:THR:126      0
Name: 15, dtype: object

>  <hbond:THR:126>  (17) 
hbond:THR:126    NaN
hbond:THR:126     -1
Name: 15, dtype: object

>  <halogenbond:THR:126>  (17) 
halogenbond:THR:126    NaN
halogenbond:THR:126     -1
Name: 15, dtype: object

>  <hbond:GLY:127>  (17) 
hbond:GLY:127    0
hbond:GLY:127    0
Name: 15, dtype: object

>  <halogenbond:GLY:127>  (17) 
halogenbond:GLY:127    NaN
halogenbond:GLY:127     -1
Name: 15, dtype: object

>  <hydroph_interaction:GLY:127>  (17) 
hydroph_interaction:GLY:127    NaN
hydroph_interaction:GLY:127     -1
Name: 15, dtype: object

>  <hbond:GLY:128>  (17) 
hbond:GLY:128    NaN
hbond:GLY:128     -1
Name: 15, dtype: object

>  <halogenbond:GLY:128>  (17) 
halogenbond:GLY:128    NaN
halogenbond:GLY:128     -1
Name: 15, dtype: object

>  <hydroph_interaction:GLY:128>  (17) 
hydroph_interaction:GLY:128    NaN
hydroph_interaction:GLY:128     -1
Name: 15, dtype: object

>  <hbond:ASN:129>  (17) 
hbond:ASN:129    NaN
hbond:ASN:129     -1
Name: 15, dtype: object

>  <hydroph_interaction:ASN:129>  (17) 
hydroph_interaction:ASN:129    NaN
hydroph_interaction:ASN:129     -1
Name: 15, dtype: object

>  <halogenbond:ASN:129>  (17) 
halogenbond:ASN:129    NaN
halogenbond:ASN:129     -1
Name: 15, dtype: object

>  <hbond:GLY:130>  (17) 
hbond:GLY:130    NaN
hbond:GLY:130     -1
Name: 15, dtype: object

>  <hbond:LEU:131>  (17) 
hbond:LEU:131    NaN
hbond:LEU:131     -1
Name: 15, dtype: object

>  <hydroph_interaction:LEU:131>  (17) 
hydroph_interaction:LEU:131    NaN
hydroph_interaction:LEU:131     -1
Name: 15, dtype: object

>  <halogenbond:LEU:131>  (17) 
halogenbond:LEU:131    NaN
halogenbond:LEU:131     -1
Name: 15, dtype: object

>  <hydroph_interaction:VAL:132>  (17) 
hydroph_interaction:VAL:132    NaN
hydroph_interaction:VAL:132     -1
Name: 15, dtype: object

>  <hbond:VAL:132>  (17) 
hbond:VAL:132    NaN
hbond:VAL:132     -1
Name: 15, dtype: object

>  <hbond:GLY:133>  (17) 
hbond:GLY:133    NaN
hbond:GLY:133     -1
Name: 15, dtype: object

>  <halogenbond:GLY:133>  (17) 
halogenbond:GLY:133    NaN
halogenbond:GLY:133     -1
Name: 15, dtype: object

>  <hydroph_interaction:PHE:134>  (17) 
hydroph_interaction:PHE:134    NaN
hydroph_interaction:PHE:134     -1
Name: 15, dtype: object

>  <hbond:PHE:134>  (17) 
hbond:PHE:134    NaN
hbond:PHE:134     -1
Name: 15, dtype: object

>  <pistack:PHE:134>  (17) 
pistack:PHE:134    NaN
pistack:PHE:134     -1
Name: 15, dtype: object

>  <pication:PHE:134>  (17) 
pication:PHE:134    NaN
pication:PHE:134     -1
Name: 15, dtype: object

>  <halogenbond:PHE:134>  (17) 
halogenbond:PHE:134    NaN
halogenbond:PHE:134     -1
Name: 15, dtype: object

>  <hydroph_interaction:ALA:135>  (17) 
hydroph_interaction:ALA:135    NaN
hydroph_interaction:ALA:135     -1
Name: 15, dtype: object

>  <hbond:ALA:135>  (17) 
hbond:ALA:135    NaN
hbond:ALA:135     -1
Name: 15, dtype: object

$$$$
PV_006442502634
     RDKit          3D

 14 14  0  0  0  0  0  0  0  0999 V2000
   28.3836   15.5833    8.2243 C   0  0  0  0  0  0  0  0  0  0  0  0
   29.4192   14.6567    8.5575 N   0  0  0  0  0  0  0  0  0  0  0  0
   29.7486   13.6588    7.6525 C   0  0  0  0  0  0  0  0  0  0  0  0
   29.2193   13.5055    6.0770 S   0  0  0  0  0  0  0  0  0  0  0  0
   30.5763   12.7494    8.1902 N   0  0  0  0  0  0  0  0  0  0  0  0
   31.1750   11.5895    7.7245 C   0  0  0  0  0  0  0  0  0  0  0  0
   32.1696   11.4445    6.7627 C   0  0  0  0  0  0  0  0  0  0  0  0
   32.6345   10.1612    6.4686 C   0  0  0  0  0  0  0  0  0  0  0  0
   33.6297    9.9777    5.5134 C   0  0  0  0  0  0  0  0  0  0  0  0
   34.4473    9.8180    4.7082 N   0  0  0  0  0  0  0  0  0  0  0  0
   32.0952    9.0621    7.1420 C   0  0  0  0  0  0  0  0  0  0  0  0
   31.1057    9.2383    8.0977 C   0  0  0  0  0  0  0  0  0  0  0  0
   30.4823    8.1432    8.8746 C   0  0  0  0  0  0  0  0  0  0  0  0
   30.6706   10.4851    8.3570 C   0  0  0  0  0  0  0  0  0  0  0  0
  1  2  1  0
  2  3  1  0
  3  4  2  0
  3  5  1  0
  5  6  1  0
  6  7  2  0
  7  8  1  0
  8  9  1  0
  9 10  3  0
  8 11  2  0
 11 12  1  0
 12 13  1  0
 12 14  2  0
 14  6  1  0
A    1
 C1 
A    2
 N1 
A    3
 C2 
A    4
 S1 
A    5
 N2 
A    6
 C3 
A    7
 C4 
A    8
 C5 
A    9
 C6 
A   10
 N3 
A   11
 C7 
A   12
 C8 
A   13
 C9 
A   14
 C10
M  END
>  <ref_pdb>  (18) 
Ax0310a

>  <ref_mols>  (18) 
Ax0451a,Ax0739a

>  <original SMILES>  (18) 
CNC(=S)Nc1cc(C)cc(C#N)c1

>  <rationale>  (18) 
info halogenbond:C110+G127+D39+A86+S125+E85+Q95+E106+E88+T126+P107+H104+Y64+C65+S87+N129+F83+R93+L131+I82+G128+P91+N19+H21+V84+G133+Y90+Y89+H97+L81+F134+L98+R20+G103+S66+S67+S7+G108+R38+V124+M99+S36; hbond:S87+S125+Y90+Q95+D39+A86+E85+G108+G103+G128+G130+L131+N129+N19+H104+R68+V124+R93+P91+F83+S67+S7+S66+G112+G133+V132+R20+Y89+S77+A135+Y63+A92+A101+M99+F134+L100+I82+Y64+S36+L98+V84+L81+Y94+S80+R38+S37+V102+G8+I123+G111+I113+L114+C65+L22+S96; hydroph_interaction:V84+V124+T126+H21+L22+E85+E106+N129+D39+N19+L40+I123+A135+Q95+I82+L100+L98+L131+F83+R93+V132+Y63+F134+H104+R20+A86+V74+P91+A101+F76+M99+L114+A92+Y94+R68+Y72+Y64+V18+V102+W28+G127+G128+L81; pication:H21+H104+R93+Y63+F134+Y90+R68+F83+R20; pistack:H21+Y89+Y90+H104+F134+Y63+F83+Y94; saltbridge:D39+R93+H104+E106+D109+E85+E88+R68+R20; 

>  <intxn_cluster>  (18) 
-1

>  <intxn_cluster_rank>  (18) 
-1

>  <N_interactions>  (18) 
4

>  <∆∆G>  (18) 
-11.29368

>  <$/mg>  (18) 
163.0

>  <comRMSD>  (18) 
0.763521

>  <N_rotatable_bonds>  (18) 
3

>  <deep_P1_sidechain>  (18) 
nan

>  <farthest_distance_to_substrate>  (18) 
2.964129

>  <hbond:SER:7>  (18) 
hbond:SER:7    NaN
hbond:SER:7     -1
Name: 16, dtype: object

>  <halogenbond:SER:7>  (18) 
halogenbond:SER:7    NaN
halogenbond:SER:7     -1
Name: 16, dtype: object

>  <hbond:GLY:8>  (18) 
hbond:GLY:8    NaN
hbond:GLY:8     -1
Name: 16, dtype: object

>  <hydroph_interaction:VAL:18>  (18) 
hydroph_interaction:VAL:18    NaN
hydroph_interaction:VAL:18     -1
Name: 16, dtype: object

>  <hbond:ASN:19>  (18) 
hbond:ASN:19    NaN
hbond:ASN:19     -1
Name: 16, dtype: object

>  <hydroph_interaction:ASN:19>  (18) 
hydroph_interaction:ASN:19    NaN
hydroph_interaction:ASN:19     -1
Name: 16, dtype: object

>  <halogenbond:ASN:19>  (18) 
halogenbond:ASN:19    NaN
halogenbond:ASN:19     -1
Name: 16, dtype: object

>  <hbond:ARG:20>  (18) 
hbond:ARG:20    NaN
hbond:ARG:20     -1
Name: 16, dtype: object

>  <hydroph_interaction:ARG:20>  (18) 
hydroph_interaction:ARG:20    NaN
hydroph_interaction:ARG:20     -1
Name: 16, dtype: object

>  <saltbridge:ARG:20>  (18) 
saltbridge:ARG:20    NaN
saltbridge:ARG:20     -1
Name: 16, dtype: object

>  <halogenbond:ARG:20>  (18) 
halogenbond:ARG:20    NaN
halogenbond:ARG:20     -1
Name: 16, dtype: object

>  <pication:ARG:20>  (18) 
pication:ARG:20    NaN
pication:ARG:20     -1
Name: 16, dtype: object

>  <hbond:HIS:21>  (18) 
hbond:HIS:21    0.0
hbond:HIS:21      0
Name: 16, dtype: object

>  <hydroph_interaction:HIS:21>  (18) 
hydroph_interaction:HIS:21    NaN
hydroph_interaction:HIS:21     -1
Name: 16, dtype: object

>  <pistack:HIS:21>  (18) 
pistack:HIS:21    NaN
pistack:HIS:21     -1
Name: 16, dtype: object

>  <pication:HIS:21>  (18) 
pication:HIS:21    NaN
pication:HIS:21     -1
Name: 16, dtype: object

>  <saltbridge:HIS:21>  (18) 
saltbridge:HIS:21    0.0
saltbridge:HIS:21      0
Name: 16, dtype: object

>  <halogenbond:HIS:21>  (18) 
halogenbond:HIS:21    NaN
halogenbond:HIS:21     -1
Name: 16, dtype: object

>  <hydroph_interaction:LEU:22>  (18) 
hydroph_interaction:LEU:22    NaN
hydroph_interaction:LEU:22     -1
Name: 16, dtype: object

>  <hbond:LEU:22>  (18) 
hbond:LEU:22    NaN
hbond:LEU:22     -1
Name: 16, dtype: object

>  <hydroph_interaction:TRP:28>  (18) 
hydroph_interaction:TRP:28    NaN
hydroph_interaction:TRP:28     -1
Name: 16, dtype: object

>  <hbond:SER:36>  (18) 
hbond:SER:36    NaN
hbond:SER:36     -1
Name: 16, dtype: object

>  <halogenbond:SER:36>  (18) 
halogenbond:SER:36    NaN
halogenbond:SER:36     -1
Name: 16, dtype: object

>  <hbond:SER:37>  (18) 
hbond:SER:37    NaN
hbond:SER:37     -1
Name: 16, dtype: object

>  <hbond:ARG:38>  (18) 
hbond:ARG:38    NaN
hbond:ARG:38     -1
Name: 16, dtype: object

>  <halogenbond:ARG:38>  (18) 
halogenbond:ARG:38    NaN
halogenbond:ARG:38     -1
Name: 16, dtype: object

>  <saltbridge:ASP:39>  (18) 
saltbridge:ASP:39    NaN
saltbridge:ASP:39     -1
Name: 16, dtype: object

>  <halogenbond:ASP:39>  (18) 
halogenbond:ASP:39    NaN
halogenbond:ASP:39     -1
Name: 16, dtype: object

>  <hbond:ASP:39>  (18) 
hbond:ASP:39    NaN
hbond:ASP:39     -1
Name: 16, dtype: object

>  <hydroph_interaction:ASP:39>  (18) 
hydroph_interaction:ASP:39    NaN
hydroph_interaction:ASP:39     -1
Name: 16, dtype: object

>  <hydroph_interaction:LEU:40>  (18) 
hydroph_interaction:LEU:40    NaN
hydroph_interaction:LEU:40     -1
Name: 16, dtype: object

>  <hydroph_interaction:TYR:63>  (18) 
hydroph_interaction:TYR:63    NaN
hydroph_interaction:TYR:63     -1
Name: 16, dtype: object

>  <hbond:TYR:63>  (18) 
hbond:TYR:63    NaN
hbond:TYR:63     -1
Name: 16, dtype: object

>  <pistack:TYR:63>  (18) 
pistack:TYR:63    NaN
pistack:TYR:63     -1
Name: 16, dtype: object

>  <pication:TYR:63>  (18) 
pication:TYR:63    NaN
pication:TYR:63     -1
Name: 16, dtype: object

>  <halogenbond:TYR:64>  (18) 
halogenbond:TYR:64    NaN
halogenbond:TYR:64     -1
Name: 16, dtype: object

>  <hbond:TYR:64>  (18) 
hbond:TYR:64    NaN
hbond:TYR:64     -1
Name: 16, dtype: object

>  <hydroph_interaction:TYR:64>  (18) 
hydroph_interaction:TYR:64    NaN
hydroph_interaction:TYR:64     -1
Name: 16, dtype: object

>  <halogenbond:CYS:65>  (18) 
halogenbond:CYS:65    NaN
halogenbond:CYS:65     -1
Name: 16, dtype: object

>  <hbond:CYS:65>  (18) 
hbond:CYS:65    NaN
hbond:CYS:65     -1
Name: 16, dtype: object

>  <hbond:SER:66>  (18) 
hbond:SER:66    NaN
hbond:SER:66     -1
Name: 16, dtype: object

>  <halogenbond:SER:66>  (18) 
halogenbond:SER:66    NaN
halogenbond:SER:66     -1
Name: 16, dtype: object

>  <hbond:SER:67>  (18) 
hbond:SER:67    NaN
hbond:SER:67     -1
Name: 16, dtype: object

>  <halogenbond:SER:67>  (18) 
halogenbond:SER:67    NaN
halogenbond:SER:67     -1
Name: 16, dtype: object

>  <hbond:ARG:68>  (18) 
hbond:ARG:68    NaN
hbond:ARG:68     -1
Name: 16, dtype: object

>  <saltbridge:ARG:68>  (18) 
saltbridge:ARG:68    NaN
saltbridge:ARG:68     -1
Name: 16, dtype: object

>  <hydroph_interaction:ARG:68>  (18) 
hydroph_interaction:ARG:68    NaN
hydroph_interaction:ARG:68     -1
Name: 16, dtype: object

>  <pication:ARG:68>  (18) 
pication:ARG:68    NaN
pication:ARG:68     -1
Name: 16, dtype: object

>  <hydroph_interaction:TYR:72>  (18) 
hydroph_interaction:TYR:72    NaN
hydroph_interaction:TYR:72     -1
Name: 16, dtype: object

>  <hydroph_interaction:VAL:74>  (18) 
hydroph_interaction:VAL:74    NaN
hydroph_interaction:VAL:74     -1
Name: 16, dtype: object

>  <hydroph_interaction:PHE:76>  (18) 
hydroph_interaction:PHE:76    NaN
hydroph_interaction:PHE:76     -1
Name: 16, dtype: object

>  <hbond:SER:77>  (18) 
hbond:SER:77    NaN
hbond:SER:77     -1
Name: 16, dtype: object

>  <hbond:SER:80>  (18) 
hbond:SER:80    NaN
hbond:SER:80     -1
Name: 16, dtype: object

>  <hbond:LEU:81>  (18) 
hbond:LEU:81    NaN
hbond:LEU:81     -1
Name: 16, dtype: object

>  <halogenbond:LEU:81>  (18) 
halogenbond:LEU:81    NaN
halogenbond:LEU:81     -1
Name: 16, dtype: object

>  <hydroph_interaction:LEU:81>  (18) 
hydroph_interaction:LEU:81    NaN
hydroph_interaction:LEU:81     -1
Name: 16, dtype: object

>  <hydroph_interaction:ILE:82>  (18) 
hydroph_interaction:ILE:82    NaN
hydroph_interaction:ILE:82     -1
Name: 16, dtype: object

>  <halogenbond:ILE:82>  (18) 
halogenbond:ILE:82    NaN
halogenbond:ILE:82     -1
Name: 16, dtype: object

>  <hbond:ILE:82>  (18) 
hbond:ILE:82    NaN
hbond:ILE:82     -1
Name: 16, dtype: object

>  <hbond:PHE:83>  (18) 
hbond:PHE:83    NaN
hbond:PHE:83     -1
Name: 16, dtype: object

>  <hydroph_interaction:PHE:83>  (18) 
hydroph_interaction:PHE:83    NaN
hydroph_interaction:PHE:83     -1
Name: 16, dtype: object

>  <halogenbond:PHE:83>  (18) 
halogenbond:PHE:83    NaN
halogenbond:PHE:83     -1
Name: 16, dtype: object

>  <pistack:PHE:83>  (18) 
pistack:PHE:83    NaN
pistack:PHE:83     -1
Name: 16, dtype: object

>  <pication:PHE:83>  (18) 
pication:PHE:83    NaN
pication:PHE:83     -1
Name: 16, dtype: object

>  <hydroph_interaction:VAL:84>  (18) 
hydroph_interaction:VAL:84    NaN
hydroph_interaction:VAL:84     -1
Name: 16, dtype: object

>  <halogenbond:VAL:84>  (18) 
halogenbond:VAL:84    NaN
halogenbond:VAL:84     -1
Name: 16, dtype: object

>  <hbond:VAL:84>  (18) 
hbond:VAL:84    NaN
hbond:VAL:84     -1
Name: 16, dtype: object

>  <hydroph_interaction:GLU:85>  (18) 
hydroph_interaction:GLU:85    NaN
hydroph_interaction:GLU:85     -1
Name: 16, dtype: object

>  <hbond:GLU:85>  (18) 
hbond:GLU:85    NaN
hbond:GLU:85     -1
Name: 16, dtype: object

>  <halogenbond:GLU:85>  (18) 
halogenbond:GLU:85    NaN
halogenbond:GLU:85     -1
Name: 16, dtype: object

>  <saltbridge:GLU:85>  (18) 
saltbridge:GLU:85    NaN
saltbridge:GLU:85     -1
Name: 16, dtype: object

>  <halogenbond:ALA:86>  (18) 
halogenbond:ALA:86    NaN
halogenbond:ALA:86     -1
Name: 16, dtype: object

>  <hbond:ALA:86>  (18) 
hbond:ALA:86    NaN
hbond:ALA:86     -1
Name: 16, dtype: object

>  <hydroph_interaction:ALA:86>  (18) 
hydroph_interaction:ALA:86    NaN
hydroph_interaction:ALA:86     -1
Name: 16, dtype: object

>  <hbond:SER:87>  (18) 
hbond:SER:87    1
hbond:SER:87    1
Name: 16, dtype: object

>  <halogenbond:SER:87>  (18) 
halogenbond:SER:87    NaN
halogenbond:SER:87     -1
Name: 16, dtype: object

>  <hbond:GLU:88>  (18) 
hbond:GLU:88    0.0
hbond:GLU:88      0
Name: 16, dtype: object

>  <hydroph_interaction:GLU:88>  (18) 
hydroph_interaction:GLU:88    0.0
hydroph_interaction:GLU:88      0
Name: 16, dtype: object

>  <halogenbond:GLU:88>  (18) 
halogenbond:GLU:88    NaN
halogenbond:GLU:88     -1
Name: 16, dtype: object

>  <saltbridge:GLU:88>  (18) 
saltbridge:GLU:88    NaN
saltbridge:GLU:88     -1
Name: 16, dtype: object

>  <hydroph_interaction:TYR:89>  (18) 
hydroph_interaction:TYR:89    0.0
hydroph_interaction:TYR:89      0
Name: 16, dtype: object

>  <pistack:TYR:89>  (18) 
pistack:TYR:89    NaN
pistack:TYR:89     -1
Name: 16, dtype: object

>  <hbond:TYR:89>  (18) 
hbond:TYR:89    NaN
hbond:TYR:89     -1
Name: 16, dtype: object

>  <halogenbond:TYR:89>  (18) 
halogenbond:TYR:89    NaN
halogenbond:TYR:89     -1
Name: 16, dtype: object

>  <hydroph_interaction:TYR:90>  (18) 
hydroph_interaction:TYR:90    0.0
hydroph_interaction:TYR:90      0
Name: 16, dtype: object

>  <hbond:TYR:90>  (18) 
hbond:TYR:90    NaN
hbond:TYR:90     -1
Name: 16, dtype: object

>  <pistack:TYR:90>  (18) 
pistack:TYR:90    NaN
pistack:TYR:90     -1
Name: 16, dtype: object

>  <halogenbond:TYR:90>  (18) 
halogenbond:TYR:90    NaN
halogenbond:TYR:90     -1
Name: 16, dtype: object

>  <pication:TYR:90>  (18) 
pication:TYR:90    NaN
pication:TYR:90     -1
Name: 16, dtype: object

>  <hbond:PRO:91>  (18) 
hbond:PRO:91    NaN
hbond:PRO:91     -1
Name: 16, dtype: object

>  <hydroph_interaction:PRO:91>  (18) 
hydroph_interaction:PRO:91    NaN
hydroph_interaction:PRO:91     -1
Name: 16, dtype: object

>  <halogenbond:PRO:91>  (18) 
halogenbond:PRO:91    NaN
halogenbond:PRO:91     -1
Name: 16, dtype: object

>  <hbond:ALA:92>  (18) 
hbond:ALA:92    NaN
hbond:ALA:92     -1
Name: 16, dtype: object

>  <hydroph_interaction:ALA:92>  (18) 
hydroph_interaction:ALA:92    NaN
hydroph_interaction:ALA:92     -1
Name: 16, dtype: object

>  <saltbridge:ARG:93>  (18) 
saltbridge:ARG:93    NaN
saltbridge:ARG:93     -1
Name: 16, dtype: object

>  <hbond:ARG:93>  (18) 
hbond:ARG:93    NaN
hbond:ARG:93     -1
Name: 16, dtype: object

>  <hydroph_interaction:ARG:93>  (18) 
hydroph_interaction:ARG:93    NaN
hydroph_interaction:ARG:93     -1
Name: 16, dtype: object

>  <halogenbond:ARG:93>  (18) 
halogenbond:ARG:93    NaN
halogenbond:ARG:93     -1
Name: 16, dtype: object

>  <pication:ARG:93>  (18) 
pication:ARG:93    NaN
pication:ARG:93     -1
Name: 16, dtype: object

>  <hydroph_interaction:TYR:94>  (18) 
hydroph_interaction:TYR:94    NaN
hydroph_interaction:TYR:94     -1
Name: 16, dtype: object

>  <pistack:TYR:94>  (18) 
pistack:TYR:94    NaN
pistack:TYR:94     -1
Name: 16, dtype: object

>  <hbond:TYR:94>  (18) 
hbond:TYR:94    NaN
hbond:TYR:94     -1
Name: 16, dtype: object

>  <hbond:GLN:95>  (18) 
hbond:GLN:95    NaN
hbond:GLN:95     -1
Name: 16, dtype: object

>  <hydroph_interaction:GLN:95>  (18) 
hydroph_interaction:GLN:95    NaN
hydroph_interaction:GLN:95     -1
Name: 16, dtype: object

>  <halogenbond:GLN:95>  (18) 
halogenbond:GLN:95    NaN
halogenbond:GLN:95     -1
Name: 16, dtype: object

>  <hbond:SER:96>  (18) 
hbond:SER:96    NaN
hbond:SER:96     -1
Name: 16, dtype: object

>  <halogenbond:HIS:97>  (18) 
halogenbond:HIS:97    NaN
halogenbond:HIS:97     -1
Name: 16, dtype: object

>  <hydroph_interaction:LEU:98>  (18) 
hydroph_interaction:LEU:98    NaN
hydroph_interaction:LEU:98     -1
Name: 16, dtype: object

>  <hbond:LEU:98>  (18) 
hbond:LEU:98    NaN
hbond:LEU:98     -1
Name: 16, dtype: object

>  <halogenbond:LEU:98>  (18) 
halogenbond:LEU:98    NaN
halogenbond:LEU:98     -1
Name: 16, dtype: object

>  <hbond:MET:99>  (18) 
hbond:MET:99    NaN
hbond:MET:99     -1
Name: 16, dtype: object

>  <hydroph_interaction:MET:99>  (18) 
hydroph_interaction:MET:99    NaN
hydroph_interaction:MET:99     -1
Name: 16, dtype: object

>  <halogenbond:MET:99>  (18) 
halogenbond:MET:99    NaN
halogenbond:MET:99     -1
Name: 16, dtype: object

>  <hydroph_interaction:LEU:100>  (18) 
hydroph_interaction:LEU:100    NaN
hydroph_interaction:LEU:100     -1
Name: 16, dtype: object

>  <hbond:LEU:100>  (18) 
hbond:LEU:100    NaN
hbond:LEU:100     -1
Name: 16, dtype: object

>  <hbond:ALA:101>  (18) 
hbond:ALA:101    NaN
hbond:ALA:101     -1
Name: 16, dtype: object

>  <hydroph_interaction:ALA:101>  (18) 
hydroph_interaction:ALA:101    NaN
hydroph_interaction:ALA:101     -1
Name: 16, dtype: object

>  <hydroph_interaction:VAL:102>  (18) 
hydroph_interaction:VAL:102    NaN
hydroph_interaction:VAL:102     -1
Name: 16, dtype: object

>  <hbond:VAL:102>  (18) 
hbond:VAL:102    NaN
hbond:VAL:102     -1
Name: 16, dtype: object

>  <hbond:GLY:103>  (18) 
hbond:GLY:103    NaN
hbond:GLY:103     -1
Name: 16, dtype: object

>  <halogenbond:GLY:103>  (18) 
halogenbond:GLY:103    NaN
halogenbond:GLY:103     -1
Name: 16, dtype: object

>  <hbond:HIS:104>  (18) 
hbond:HIS:104    NaN
hbond:HIS:104     -1
Name: 16, dtype: object

>  <saltbridge:HIS:104>  (18) 
saltbridge:HIS:104    NaN
saltbridge:HIS:104     -1
Name: 16, dtype: object

>  <pication:HIS:104>  (18) 
pication:HIS:104    NaN
pication:HIS:104     -1
Name: 16, dtype: object

>  <halogenbond:HIS:104>  (18) 
halogenbond:HIS:104    NaN
halogenbond:HIS:104     -1
Name: 16, dtype: object

>  <hydroph_interaction:HIS:104>  (18) 
hydroph_interaction:HIS:104    NaN
hydroph_interaction:HIS:104     -1
Name: 16, dtype: object

>  <pistack:HIS:104>  (18) 
pistack:HIS:104    NaN
pistack:HIS:104     -1
Name: 16, dtype: object

>  <halogenbond:SER:105>  (18) 
halogenbond:SER:105    0.0
halogenbond:SER:105      0
Name: 16, dtype: object

>  <hbond:SER:105>  (18) 
hbond:SER:105    0.0
hbond:SER:105      0
Name: 16, dtype: object

>  <hbond:GLU:106>  (18) 
hbond:GLU:106    0.0
hbond:GLU:106      0
Name: 16, dtype: object

>  <hydroph_interaction:GLU:106>  (18) 
hydroph_interaction:GLU:106    NaN
hydroph_interaction:GLU:106     -1
Name: 16, dtype: object

>  <saltbridge:GLU:106>  (18) 
saltbridge:GLU:106    NaN
saltbridge:GLU:106     -1
Name: 16, dtype: object

>  <halogenbond:GLU:106>  (18) 
halogenbond:GLU:106    NaN
halogenbond:GLU:106     -1
Name: 16, dtype: object

>  <hydroph_interaction:PRO:107>  (18) 
hydroph_interaction:PRO:107    0
hydroph_interaction:PRO:107    0
Name: 16, dtype: object

>  <hbond:PRO:107>  (18) 
hbond:PRO:107    0.0
hbond:PRO:107      0
Name: 16, dtype: object

>  <halogenbond:PRO:107>  (18) 
halogenbond:PRO:107    NaN
halogenbond:PRO:107     -1
Name: 16, dtype: object

>  <hbond:GLY:108>  (18) 
hbond:GLY:108    NaN
hbond:GLY:108     -1
Name: 16, dtype: object

>  <halogenbond:GLY:108>  (18) 
halogenbond:GLY:108    NaN
halogenbond:GLY:108     -1
Name: 16, dtype: object

>  <hbond:ASP:109>  (18) 
hbond:ASP:109    0.0
hbond:ASP:109      0
Name: 16, dtype: object

>  <hydroph_interaction:ASP:109>  (18) 
hydroph_interaction:ASP:109    0.0
hydroph_interaction:ASP:109      0
Name: 16, dtype: object

>  <saltbridge:ASP:109>  (18) 
saltbridge:ASP:109    NaN
saltbridge:ASP:109     -1
Name: 16, dtype: object

>  <halogenbond:CYS:110>  (18) 
halogenbond:CYS:110    NaN
halogenbond:CYS:110     -1
Name: 16, dtype: object

>  <hbond:CYS:110>  (18) 
hbond:CYS:110    0.0
hbond:CYS:110      0
Name: 16, dtype: object

>  <hbond:GLY:111>  (18) 
hbond:GLY:111    NaN
hbond:GLY:111     -1
Name: 16, dtype: object

>  <hbond:GLY:112>  (18) 
hbond:GLY:112    NaN
hbond:GLY:112     -1
Name: 16, dtype: object

>  <hbond:ILE:113>  (18) 
hbond:ILE:113    NaN
hbond:ILE:113     -1
Name: 16, dtype: object

>  <hydroph_interaction:LEU:114>  (18) 
hydroph_interaction:LEU:114    NaN
hydroph_interaction:LEU:114     -1
Name: 16, dtype: object

>  <hbond:LEU:114>  (18) 
hbond:LEU:114    NaN
hbond:LEU:114     -1
Name: 16, dtype: object

>  <hydroph_interaction:ILE:123>  (18) 
hydroph_interaction:ILE:123    NaN
hydroph_interaction:ILE:123     -1
Name: 16, dtype: object

>  <hbond:ILE:123>  (18) 
hbond:ILE:123    NaN
hbond:ILE:123     -1
Name: 16, dtype: object

>  <hydroph_interaction:VAL:124>  (18) 
hydroph_interaction:VAL:124    1.0
hydroph_interaction:VAL:124      1
Name: 16, dtype: object

>  <hbond:VAL:124>  (18) 
hbond:VAL:124    NaN
hbond:VAL:124     -1
Name: 16, dtype: object

>  <halogenbond:VAL:124>  (18) 
halogenbond:VAL:124    NaN
halogenbond:VAL:124     -1
Name: 16, dtype: object

>  <hbond:SER:125>  (18) 
hbond:SER:125    2
hbond:SER:125    2
Name: 16, dtype: object

>  <halogenbond:SER:125>  (18) 
halogenbond:SER:125    NaN
halogenbond:SER:125     -1
Name: 16, dtype: object

>  <hydroph_interaction:THR:126>  (18) 
hydroph_interaction:THR:126    NaN
hydroph_interaction:THR:126     -1
Name: 16, dtype: object

>  <hbond:THR:126>  (18) 
hbond:THR:126    0.0
hbond:THR:126      0
Name: 16, dtype: object

>  <halogenbond:THR:126>  (18) 
halogenbond:THR:126    NaN
halogenbond:THR:126     -1
Name: 16, dtype: object

>  <hbond:GLY:127>  (18) 
hbond:GLY:127    0
hbond:GLY:127    0
Name: 16, dtype: object

>  <halogenbond:GLY:127>  (18) 
halogenbond:GLY:127    NaN
halogenbond:GLY:127     -1
Name: 16, dtype: object

>  <hydroph_interaction:GLY:127>  (18) 
hydroph_interaction:GLY:127    NaN
hydroph_interaction:GLY:127     -1
Name: 16, dtype: object

>  <hbond:GLY:128>  (18) 
hbond:GLY:128    NaN
hbond:GLY:128     -1
Name: 16, dtype: object

>  <halogenbond:GLY:128>  (18) 
halogenbond:GLY:128    NaN
halogenbond:GLY:128     -1
Name: 16, dtype: object

>  <hydroph_interaction:GLY:128>  (18) 
hydroph_interaction:GLY:128    NaN
hydroph_interaction:GLY:128     -1
Name: 16, dtype: object

>  <hbond:ASN:129>  (18) 
hbond:ASN:129    NaN
hbond:ASN:129     -1
Name: 16, dtype: object

>  <hydroph_interaction:ASN:129>  (18) 
hydroph_interaction:ASN:129    NaN
hydroph_interaction:ASN:129     -1
Name: 16, dtype: object

>  <halogenbond:ASN:129>  (18) 
halogenbond:ASN:129    NaN
halogenbond:ASN:129     -1
Name: 16, dtype: object

>  <hbond:GLY:130>  (18) 
hbond:GLY:130    NaN
hbond:GLY:130     -1
Name: 16, dtype: object

>  <hbond:LEU:131>  (18) 
hbond:LEU:131    NaN
hbond:LEU:131     -1
Name: 16, dtype: object

>  <hydroph_interaction:LEU:131>  (18) 
hydroph_interaction:LEU:131    NaN
hydroph_interaction:LEU:131     -1
Name: 16, dtype: object

>  <halogenbond:LEU:131>  (18) 
halogenbond:LEU:131    NaN
halogenbond:LEU:131     -1
Name: 16, dtype: object

>  <hydroph_interaction:VAL:132>  (18) 
hydroph_interaction:VAL:132    NaN
hydroph_interaction:VAL:132     -1
Name: 16, dtype: object

>  <hbond:VAL:132>  (18) 
hbond:VAL:132    NaN
hbond:VAL:132     -1
Name: 16, dtype: object

>  <hbond:GLY:133>  (18) 
hbond:GLY:133    NaN
hbond:GLY:133     -1
Name: 16, dtype: object

>  <halogenbond:GLY:133>  (18) 
halogenbond:GLY:133    NaN
halogenbond:GLY:133     -1
Name: 16, dtype: object

>  <hydroph_interaction:PHE:134>  (18) 
hydroph_interaction:PHE:134    NaN
hydroph_interaction:PHE:134     -1
Name: 16, dtype: object

>  <hbond:PHE:134>  (18) 
hbond:PHE:134    NaN
hbond:PHE:134     -1
Name: 16, dtype: object

>  <pistack:PHE:134>  (18) 
pistack:PHE:134    NaN
pistack:PHE:134     -1
Name: 16, dtype: object

>  <pication:PHE:134>  (18) 
pication:PHE:134    NaN
pication:PHE:134     -1
Name: 16, dtype: object

>  <halogenbond:PHE:134>  (18) 
halogenbond:PHE:134    NaN
halogenbond:PHE:134     -1
Name: 16, dtype: object

>  <hydroph_interaction:ALA:135>  (18) 
hydroph_interaction:ALA:135    NaN
hydroph_interaction:ALA:135     -1
Name: 16, dtype: object

>  <hbond:ALA:135>  (18) 
hbond:ALA:135    NaN
hbond:ALA:135     -1
Name: 16, dtype: object

$$$$
Z1500126901
     RDKit          3D

 13 14  0  0  0  0  0  0  0  0999 V2000
   28.5680   13.9326    8.3901 N   0  0  0  0  0  0  0  0  0  0  0  0
   29.4419   13.1985    7.6457 C   0  0  0  0  0  0  0  0  0  0  0  0
   29.5664   13.4297    6.2431 O   0  0  0  0  0  0  0  0  0  0  0  0
   30.1029   12.2871    8.4068 N   0  0  0  0  0  0  0  0  0  0  0  0
   30.7996   11.1785    7.9193 C   0  0  0  0  0  0  0  0  0  0  0  0
   30.5671    9.8026    8.3623 C   0  0  0  0  0  0  0  0  0  0  0  0
   31.2375    8.7155    7.8911 C   0  0  0  0  0  0  0  0  0  0  0  0
   32.2031    8.9625    6.9308 C   0  0  0  0  0  0  0  0  0  0  0  0
   32.4803   10.2409    6.4670 C   0  0  0  0  0  0  0  0  0  0  0  0
   31.7846   11.3522    6.9529 C   0  0  0  0  0  0  0  0  0  0  0  0
   32.3252   12.8150    6.2100 S   0  0  0  0  0  0  0  0  0  0  0  0
   33.4698   12.0007    5.2538 C   0  0  0  0  0  0  0  0  0  0  0  0
   33.4499   10.6248    5.4878 C   0  0  0  0  0  0  0  0  0  0  0  0
  1  2  1  0
  2  3  2  0
  2  4  1  0
  4  5  1  0
  5  6  2  0
  6  7  1  0
  7  8  2  0
  8  9  1  0
  9 10  2  0
 10 11  1  0
 11 12  1  0
 12 13  2  0
 10  5  1  0
 13  9  1  0
A    1
 N1 
A    2
 C1 
A    3
 O1 
A    4
 N2 
A    5
 C2 
A    6
 C3 
A    7
 C4 
A    8
 C5 
A    9
 C6 
A   10
 C7 
A   11
 S1 
A   12
 C8 
A   13
 C9 
M  END
>  <ref_pdb>  (19) 
Ax0310a

>  <ref_mols>  (19) 
Ax0554a,Ax0739a

>  <original SMILES>  (19) 
NC(=O)Nc1cccc2ccsc12

>  <rationale>  (19) 
info halogenbond:C110+G127+D39+A86+S125+E85+Q95+E106+E88+T126+P107+H104+Y64+C65+S87+N129+F83+R93+L131+I82+G128+P91+N19+H21+V84+G133+Y90+Y89+H97+L81+F134+L98+R20+G103+S66+S67+S7+G108+R38+V124+M99+S36; hbond:S87+S125+Y90+Q95+D39+A86+E85+G108+G103+G128+G130+L131+N129+N19+H104+R68+V124+R93+P91+F83+S67+S7+S66+G112+G133+V132+R20+Y89+S77+A135+Y63+A92+A101+M99+F134+L100+I82+Y64+S36+L98+V84+L81+Y94+S80+R38+S37+V102+G8+I123+G111+I113+L114+C65+L22+S96; hydroph_interaction:V84+T126+H21+L22+E85+E106+N129+D39+N19+L40+I123+A135+Q95+I82+L100+L98+L131+F83+R93+V132+Y63+F134+H104+R20+A86+V74+P91+A101+F76+M99+L114+A92+Y94+R68+Y72+Y64+V18+V102+W28+G127+G128+L81; pication:H21+H104+R93+Y63+F134+Y90+R68+F83+R20; pistack:H21+Y89+Y90+H104+F134+Y63+F83+Y94; saltbridge:D39+R93+H104+E106+D109+E85+E88+R68+R20; 

>  <intxn_cluster>  (19) 
-1

>  <intxn_cluster_rank>  (19) 
-1

>  <N_interactions>  (19) 
3

>  <∆∆G>  (19) 
-7.810666

>  <$/mg>  (19) 
0.0

>  <comRMSD>  (19) 
0.691681

>  <N_rotatable_bonds>  (19) 
1

>  <deep_P1_sidechain>  (19) 
nan

>  <farthest_distance_to_substrate>  (19) 
2.35564

>  <hbond:SER:7>  (19) 
hbond:SER:7    NaN
hbond:SER:7     -1
Name: 17, dtype: object

>  <halogenbond:SER:7>  (19) 
halogenbond:SER:7    NaN
halogenbond:SER:7     -1
Name: 17, dtype: object

>  <hbond:GLY:8>  (19) 
hbond:GLY:8    NaN
hbond:GLY:8     -1
Name: 17, dtype: object

>  <hydroph_interaction:VAL:18>  (19) 
hydroph_interaction:VAL:18    NaN
hydroph_interaction:VAL:18     -1
Name: 17, dtype: object

>  <hbond:ASN:19>  (19) 
hbond:ASN:19    NaN
hbond:ASN:19     -1
Name: 17, dtype: object

>  <hydroph_interaction:ASN:19>  (19) 
hydroph_interaction:ASN:19    NaN
hydroph_interaction:ASN:19     -1
Name: 17, dtype: object

>  <halogenbond:ASN:19>  (19) 
halogenbond:ASN:19    NaN
halogenbond:ASN:19     -1
Name: 17, dtype: object

>  <hbond:ARG:20>  (19) 
hbond:ARG:20    NaN
hbond:ARG:20     -1
Name: 17, dtype: object

>  <hydroph_interaction:ARG:20>  (19) 
hydroph_interaction:ARG:20    NaN
hydroph_interaction:ARG:20     -1
Name: 17, dtype: object

>  <saltbridge:ARG:20>  (19) 
saltbridge:ARG:20    NaN
saltbridge:ARG:20     -1
Name: 17, dtype: object

>  <halogenbond:ARG:20>  (19) 
halogenbond:ARG:20    NaN
halogenbond:ARG:20     -1
Name: 17, dtype: object

>  <pication:ARG:20>  (19) 
pication:ARG:20    NaN
pication:ARG:20     -1
Name: 17, dtype: object

>  <hbond:HIS:21>  (19) 
hbond:HIS:21    0.0
hbond:HIS:21      0
Name: 17, dtype: object

>  <hydroph_interaction:HIS:21>  (19) 
hydroph_interaction:HIS:21    NaN
hydroph_interaction:HIS:21     -1
Name: 17, dtype: object

>  <pistack:HIS:21>  (19) 
pistack:HIS:21    NaN
pistack:HIS:21     -1
Name: 17, dtype: object

>  <pication:HIS:21>  (19) 
pication:HIS:21    NaN
pication:HIS:21     -1
Name: 17, dtype: object

>  <saltbridge:HIS:21>  (19) 
saltbridge:HIS:21    0.0
saltbridge:HIS:21      0
Name: 17, dtype: object

>  <halogenbond:HIS:21>  (19) 
halogenbond:HIS:21    NaN
halogenbond:HIS:21     -1
Name: 17, dtype: object

>  <hydroph_interaction:LEU:22>  (19) 
hydroph_interaction:LEU:22    NaN
hydroph_interaction:LEU:22     -1
Name: 17, dtype: object

>  <hbond:LEU:22>  (19) 
hbond:LEU:22    NaN
hbond:LEU:22     -1
Name: 17, dtype: object

>  <hydroph_interaction:TRP:28>  (19) 
hydroph_interaction:TRP:28    NaN
hydroph_interaction:TRP:28     -1
Name: 17, dtype: object

>  <hbond:SER:36>  (19) 
hbond:SER:36    NaN
hbond:SER:36     -1
Name: 17, dtype: object

>  <halogenbond:SER:36>  (19) 
halogenbond:SER:36    NaN
halogenbond:SER:36     -1
Name: 17, dtype: object

>  <hbond:SER:37>  (19) 
hbond:SER:37    NaN
hbond:SER:37     -1
Name: 17, dtype: object

>  <hbond:ARG:38>  (19) 
hbond:ARG:38    NaN
hbond:ARG:38     -1
Name: 17, dtype: object

>  <halogenbond:ARG:38>  (19) 
halogenbond:ARG:38    NaN
halogenbond:ARG:38     -1
Name: 17, dtype: object

>  <saltbridge:ASP:39>  (19) 
saltbridge:ASP:39    NaN
saltbridge:ASP:39     -1
Name: 17, dtype: object

>  <halogenbond:ASP:39>  (19) 
halogenbond:ASP:39    NaN
halogenbond:ASP:39     -1
Name: 17, dtype: object

>  <hbond:ASP:39>  (19) 
hbond:ASP:39    NaN
hbond:ASP:39     -1
Name: 17, dtype: object

>  <hydroph_interaction:ASP:39>  (19) 
hydroph_interaction:ASP:39    NaN
hydroph_interaction:ASP:39     -1
Name: 17, dtype: object

>  <hydroph_interaction:LEU:40>  (19) 
hydroph_interaction:LEU:40    NaN
hydroph_interaction:LEU:40     -1
Name: 17, dtype: object

>  <hydroph_interaction:TYR:63>  (19) 
hydroph_interaction:TYR:63    NaN
hydroph_interaction:TYR:63     -1
Name: 17, dtype: object

>  <hbond:TYR:63>  (19) 
hbond:TYR:63    NaN
hbond:TYR:63     -1
Name: 17, dtype: object

>  <pistack:TYR:63>  (19) 
pistack:TYR:63    NaN
pistack:TYR:63     -1
Name: 17, dtype: object

>  <pication:TYR:63>  (19) 
pication:TYR:63    NaN
pication:TYR:63     -1
Name: 17, dtype: object

>  <halogenbond:TYR:64>  (19) 
halogenbond:TYR:64    NaN
halogenbond:TYR:64     -1
Name: 17, dtype: object

>  <hbond:TYR:64>  (19) 
hbond:TYR:64    NaN
hbond:TYR:64     -1
Name: 17, dtype: object

>  <hydroph_interaction:TYR:64>  (19) 
hydroph_interaction:TYR:64    NaN
hydroph_interaction:TYR:64     -1
Name: 17, dtype: object

>  <halogenbond:CYS:65>  (19) 
halogenbond:CYS:65    NaN
halogenbond:CYS:65     -1
Name: 17, dtype: object

>  <hbond:CYS:65>  (19) 
hbond:CYS:65    NaN
hbond:CYS:65     -1
Name: 17, dtype: object

>  <hbond:SER:66>  (19) 
hbond:SER:66    NaN
hbond:SER:66     -1
Name: 17, dtype: object

>  <halogenbond:SER:66>  (19) 
halogenbond:SER:66    NaN
halogenbond:SER:66     -1
Name: 17, dtype: object

>  <hbond:SER:67>  (19) 
hbond:SER:67    NaN
hbond:SER:67     -1
Name: 17, dtype: object

>  <halogenbond:SER:67>  (19) 
halogenbond:SER:67    NaN
halogenbond:SER:67     -1
Name: 17, dtype: object

>  <hbond:ARG:68>  (19) 
hbond:ARG:68    NaN
hbond:ARG:68     -1
Name: 17, dtype: object

>  <saltbridge:ARG:68>  (19) 
saltbridge:ARG:68    NaN
saltbridge:ARG:68     -1
Name: 17, dtype: object

>  <hydroph_interaction:ARG:68>  (19) 
hydroph_interaction:ARG:68    NaN
hydroph_interaction:ARG:68     -1
Name: 17, dtype: object

>  <pication:ARG:68>  (19) 
pication:ARG:68    NaN
pication:ARG:68     -1
Name: 17, dtype: object

>  <hydroph_interaction:TYR:72>  (19) 
hydroph_interaction:TYR:72    NaN
hydroph_interaction:TYR:72     -1
Name: 17, dtype: object

>  <hydroph_interaction:VAL:74>  (19) 
hydroph_interaction:VAL:74    NaN
hydroph_interaction:VAL:74     -1
Name: 17, dtype: object

>  <hydroph_interaction:PHE:76>  (19) 
hydroph_interaction:PHE:76    NaN
hydroph_interaction:PHE:76     -1
Name: 17, dtype: object

>  <hbond:SER:77>  (19) 
hbond:SER:77    NaN
hbond:SER:77     -1
Name: 17, dtype: object

>  <hbond:SER:80>  (19) 
hbond:SER:80    NaN
hbond:SER:80     -1
Name: 17, dtype: object

>  <hbond:LEU:81>  (19) 
hbond:LEU:81    NaN
hbond:LEU:81     -1
Name: 17, dtype: object

>  <halogenbond:LEU:81>  (19) 
halogenbond:LEU:81    NaN
halogenbond:LEU:81     -1
Name: 17, dtype: object

>  <hydroph_interaction:LEU:81>  (19) 
hydroph_interaction:LEU:81    NaN
hydroph_interaction:LEU:81     -1
Name: 17, dtype: object

>  <hydroph_interaction:ILE:82>  (19) 
hydroph_interaction:ILE:82    NaN
hydroph_interaction:ILE:82     -1
Name: 17, dtype: object

>  <halogenbond:ILE:82>  (19) 
halogenbond:ILE:82    NaN
halogenbond:ILE:82     -1
Name: 17, dtype: object

>  <hbond:ILE:82>  (19) 
hbond:ILE:82    NaN
hbond:ILE:82     -1
Name: 17, dtype: object

>  <hbond:PHE:83>  (19) 
hbond:PHE:83    NaN
hbond:PHE:83     -1
Name: 17, dtype: object

>  <hydroph_interaction:PHE:83>  (19) 
hydroph_interaction:PHE:83    NaN
hydroph_interaction:PHE:83     -1
Name: 17, dtype: object

>  <halogenbond:PHE:83>  (19) 
halogenbond:PHE:83    NaN
halogenbond:PHE:83     -1
Name: 17, dtype: object

>  <pistack:PHE:83>  (19) 
pistack:PHE:83    NaN
pistack:PHE:83     -1
Name: 17, dtype: object

>  <pication:PHE:83>  (19) 
pication:PHE:83    NaN
pication:PHE:83     -1
Name: 17, dtype: object

>  <hydroph_interaction:VAL:84>  (19) 
hydroph_interaction:VAL:84    NaN
hydroph_interaction:VAL:84     -1
Name: 17, dtype: object

>  <halogenbond:VAL:84>  (19) 
halogenbond:VAL:84    NaN
halogenbond:VAL:84     -1
Name: 17, dtype: object

>  <hbond:VAL:84>  (19) 
hbond:VAL:84    NaN
hbond:VAL:84     -1
Name: 17, dtype: object

>  <hydroph_interaction:GLU:85>  (19) 
hydroph_interaction:GLU:85    NaN
hydroph_interaction:GLU:85     -1
Name: 17, dtype: object

>  <hbond:GLU:85>  (19) 
hbond:GLU:85    NaN
hbond:GLU:85     -1
Name: 17, dtype: object

>  <halogenbond:GLU:85>  (19) 
halogenbond:GLU:85    NaN
halogenbond:GLU:85     -1
Name: 17, dtype: object

>  <saltbridge:GLU:85>  (19) 
saltbridge:GLU:85    NaN
saltbridge:GLU:85     -1
Name: 17, dtype: object

>  <halogenbond:ALA:86>  (19) 
halogenbond:ALA:86    NaN
halogenbond:ALA:86     -1
Name: 17, dtype: object

>  <hbond:ALA:86>  (19) 
hbond:ALA:86    NaN
hbond:ALA:86     -1
Name: 17, dtype: object

>  <hydroph_interaction:ALA:86>  (19) 
hydroph_interaction:ALA:86    NaN
hydroph_interaction:ALA:86     -1
Name: 17, dtype: object

>  <hbond:SER:87>  (19) 
hbond:SER:87    1
hbond:SER:87    1
Name: 17, dtype: object

>  <halogenbond:SER:87>  (19) 
halogenbond:SER:87    NaN
halogenbond:SER:87     -1
Name: 17, dtype: object

>  <hbond:GLU:88>  (19) 
hbond:GLU:88    0.0
hbond:GLU:88      0
Name: 17, dtype: object

>  <hydroph_interaction:GLU:88>  (19) 
hydroph_interaction:GLU:88    0.0
hydroph_interaction:GLU:88      0
Name: 17, dtype: object

>  <halogenbond:GLU:88>  (19) 
halogenbond:GLU:88    NaN
halogenbond:GLU:88     -1
Name: 17, dtype: object

>  <saltbridge:GLU:88>  (19) 
saltbridge:GLU:88    NaN
saltbridge:GLU:88     -1
Name: 17, dtype: object

>  <hydroph_interaction:TYR:89>  (19) 
hydroph_interaction:TYR:89    0.0
hydroph_interaction:TYR:89      0
Name: 17, dtype: object

>  <pistack:TYR:89>  (19) 
pistack:TYR:89    NaN
pistack:TYR:89     -1
Name: 17, dtype: object

>  <hbond:TYR:89>  (19) 
hbond:TYR:89    NaN
hbond:TYR:89     -1
Name: 17, dtype: object

>  <halogenbond:TYR:89>  (19) 
halogenbond:TYR:89    NaN
halogenbond:TYR:89     -1
Name: 17, dtype: object

>  <hydroph_interaction:TYR:90>  (19) 
hydroph_interaction:TYR:90    0.0
hydroph_interaction:TYR:90      0
Name: 17, dtype: object

>  <hbond:TYR:90>  (19) 
hbond:TYR:90    NaN
hbond:TYR:90     -1
Name: 17, dtype: object

>  <pistack:TYR:90>  (19) 
pistack:TYR:90    NaN
pistack:TYR:90     -1
Name: 17, dtype: object

>  <halogenbond:TYR:90>  (19) 
halogenbond:TYR:90    NaN
halogenbond:TYR:90     -1
Name: 17, dtype: object

>  <pication:TYR:90>  (19) 
pication:TYR:90    NaN
pication:TYR:90     -1
Name: 17, dtype: object

>  <hbond:PRO:91>  (19) 
hbond:PRO:91    NaN
hbond:PRO:91     -1
Name: 17, dtype: object

>  <hydroph_interaction:PRO:91>  (19) 
hydroph_interaction:PRO:91    NaN
hydroph_interaction:PRO:91     -1
Name: 17, dtype: object

>  <halogenbond:PRO:91>  (19) 
halogenbond:PRO:91    NaN
halogenbond:PRO:91     -1
Name: 17, dtype: object

>  <hbond:ALA:92>  (19) 
hbond:ALA:92    NaN
hbond:ALA:92     -1
Name: 17, dtype: object

>  <hydroph_interaction:ALA:92>  (19) 
hydroph_interaction:ALA:92    NaN
hydroph_interaction:ALA:92     -1
Name: 17, dtype: object

>  <saltbridge:ARG:93>  (19) 
saltbridge:ARG:93    NaN
saltbridge:ARG:93     -1
Name: 17, dtype: object

>  <hbond:ARG:93>  (19) 
hbond:ARG:93    NaN
hbond:ARG:93     -1
Name: 17, dtype: object

>  <hydroph_interaction:ARG:93>  (19) 
hydroph_interaction:ARG:93    NaN
hydroph_interaction:ARG:93     -1
Name: 17, dtype: object

>  <halogenbond:ARG:93>  (19) 
halogenbond:ARG:93    NaN
halogenbond:ARG:93     -1
Name: 17, dtype: object

>  <pication:ARG:93>  (19) 
pication:ARG:93    NaN
pication:ARG:93     -1
Name: 17, dtype: object

>  <hydroph_interaction:TYR:94>  (19) 
hydroph_interaction:TYR:94    NaN
hydroph_interaction:TYR:94     -1
Name: 17, dtype: object

>  <pistack:TYR:94>  (19) 
pistack:TYR:94    NaN
pistack:TYR:94     -1
Name: 17, dtype: object

>  <hbond:TYR:94>  (19) 
hbond:TYR:94    NaN
hbond:TYR:94     -1
Name: 17, dtype: object

>  <hbond:GLN:95>  (19) 
hbond:GLN:95    NaN
hbond:GLN:95     -1
Name: 17, dtype: object

>  <hydroph_interaction:GLN:95>  (19) 
hydroph_interaction:GLN:95    NaN
hydroph_interaction:GLN:95     -1
Name: 17, dtype: object

>  <halogenbond:GLN:95>  (19) 
halogenbond:GLN:95    NaN
halogenbond:GLN:95     -1
Name: 17, dtype: object

>  <hbond:SER:96>  (19) 
hbond:SER:96    NaN
hbond:SER:96     -1
Name: 17, dtype: object

>  <halogenbond:HIS:97>  (19) 
halogenbond:HIS:97    NaN
halogenbond:HIS:97     -1
Name: 17, dtype: object

>  <hydroph_interaction:LEU:98>  (19) 
hydroph_interaction:LEU:98    NaN
hydroph_interaction:LEU:98     -1
Name: 17, dtype: object

>  <hbond:LEU:98>  (19) 
hbond:LEU:98    NaN
hbond:LEU:98     -1
Name: 17, dtype: object

>  <halogenbond:LEU:98>  (19) 
halogenbond:LEU:98    NaN
halogenbond:LEU:98     -1
Name: 17, dtype: object

>  <hbond:MET:99>  (19) 
hbond:MET:99    NaN
hbond:MET:99     -1
Name: 17, dtype: object

>  <hydroph_interaction:MET:99>  (19) 
hydroph_interaction:MET:99    NaN
hydroph_interaction:MET:99     -1
Name: 17, dtype: object

>  <halogenbond:MET:99>  (19) 
halogenbond:MET:99    NaN
halogenbond:MET:99     -1
Name: 17, dtype: object

>  <hydroph_interaction:LEU:100>  (19) 
hydroph_interaction:LEU:100    NaN
hydroph_interaction:LEU:100     -1
Name: 17, dtype: object

>  <hbond:LEU:100>  (19) 
hbond:LEU:100    NaN
hbond:LEU:100     -1
Name: 17, dtype: object

>  <hbond:ALA:101>  (19) 
hbond:ALA:101    NaN
hbond:ALA:101     -1
Name: 17, dtype: object

>  <hydroph_interaction:ALA:101>  (19) 
hydroph_interaction:ALA:101    NaN
hydroph_interaction:ALA:101     -1
Name: 17, dtype: object

>  <hydroph_interaction:VAL:102>  (19) 
hydroph_interaction:VAL:102    NaN
hydroph_interaction:VAL:102     -1
Name: 17, dtype: object

>  <hbond:VAL:102>  (19) 
hbond:VAL:102    NaN
hbond:VAL:102     -1
Name: 17, dtype: object

>  <hbond:GLY:103>  (19) 
hbond:GLY:103    NaN
hbond:GLY:103     -1
Name: 17, dtype: object

>  <halogenbond:GLY:103>  (19) 
halogenbond:GLY:103    NaN
halogenbond:GLY:103     -1
Name: 17, dtype: object

>  <hbond:HIS:104>  (19) 
hbond:HIS:104    NaN
hbond:HIS:104     -1
Name: 17, dtype: object

>  <saltbridge:HIS:104>  (19) 
saltbridge:HIS:104    NaN
saltbridge:HIS:104     -1
Name: 17, dtype: object

>  <pication:HIS:104>  (19) 
pication:HIS:104    NaN
pication:HIS:104     -1
Name: 17, dtype: object

>  <halogenbond:HIS:104>  (19) 
halogenbond:HIS:104    NaN
halogenbond:HIS:104     -1
Name: 17, dtype: object

>  <hydroph_interaction:HIS:104>  (19) 
hydroph_interaction:HIS:104    NaN
hydroph_interaction:HIS:104     -1
Name: 17, dtype: object

>  <pistack:HIS:104>  (19) 
pistack:HIS:104    NaN
pistack:HIS:104     -1
Name: 17, dtype: object

>  <halogenbond:SER:105>  (19) 
halogenbond:SER:105    0.0
halogenbond:SER:105      0
Name: 17, dtype: object

>  <hbond:SER:105>  (19) 
hbond:SER:105    0.0
hbond:SER:105      0
Name: 17, dtype: object

>  <hbond:GLU:106>  (19) 
hbond:GLU:106    0.0
hbond:GLU:106      0
Name: 17, dtype: object

>  <hydroph_interaction:GLU:106>  (19) 
hydroph_interaction:GLU:106    NaN
hydroph_interaction:GLU:106     -1
Name: 17, dtype: object

>  <saltbridge:GLU:106>  (19) 
saltbridge:GLU:106    NaN
saltbridge:GLU:106     -1
Name: 17, dtype: object

>  <halogenbond:GLU:106>  (19) 
halogenbond:GLU:106    NaN
halogenbond:GLU:106     -1
Name: 17, dtype: object

>  <hydroph_interaction:PRO:107>  (19) 
hydroph_interaction:PRO:107    0
hydroph_interaction:PRO:107    0
Name: 17, dtype: object

>  <hbond:PRO:107>  (19) 
hbond:PRO:107    0.0
hbond:PRO:107      0
Name: 17, dtype: object

>  <halogenbond:PRO:107>  (19) 
halogenbond:PRO:107    NaN
halogenbond:PRO:107     -1
Name: 17, dtype: object

>  <hbond:GLY:108>  (19) 
hbond:GLY:108    NaN
hbond:GLY:108     -1
Name: 17, dtype: object

>  <halogenbond:GLY:108>  (19) 
halogenbond:GLY:108    NaN
halogenbond:GLY:108     -1
Name: 17, dtype: object

>  <hbond:ASP:109>  (19) 
hbond:ASP:109    0.0
hbond:ASP:109      0
Name: 17, dtype: object

>  <hydroph_interaction:ASP:109>  (19) 
hydroph_interaction:ASP:109    0.0
hydroph_interaction:ASP:109      0
Name: 17, dtype: object

>  <saltbridge:ASP:109>  (19) 
saltbridge:ASP:109    NaN
saltbridge:ASP:109     -1
Name: 17, dtype: object

>  <halogenbond:CYS:110>  (19) 
halogenbond:CYS:110    NaN
halogenbond:CYS:110     -1
Name: 17, dtype: object

>  <hbond:CYS:110>  (19) 
hbond:CYS:110    0.0
hbond:CYS:110      0
Name: 17, dtype: object

>  <hbond:GLY:111>  (19) 
hbond:GLY:111    NaN
hbond:GLY:111     -1
Name: 17, dtype: object

>  <hbond:GLY:112>  (19) 
hbond:GLY:112    NaN
hbond:GLY:112     -1
Name: 17, dtype: object

>  <hbond:ILE:113>  (19) 
hbond:ILE:113    NaN
hbond:ILE:113     -1
Name: 17, dtype: object

>  <hydroph_interaction:LEU:114>  (19) 
hydroph_interaction:LEU:114    NaN
hydroph_interaction:LEU:114     -1
Name: 17, dtype: object

>  <hbond:LEU:114>  (19) 
hbond:LEU:114    NaN
hbond:LEU:114     -1
Name: 17, dtype: object

>  <hydroph_interaction:ILE:123>  (19) 
hydroph_interaction:ILE:123    NaN
hydroph_interaction:ILE:123     -1
Name: 17, dtype: object

>  <hbond:ILE:123>  (19) 
hbond:ILE:123    NaN
hbond:ILE:123     -1
Name: 17, dtype: object

>  <hydroph_interaction:VAL:124>  (19) 
hydroph_interaction:VAL:124    0.0
hydroph_interaction:VAL:124      0
Name: 17, dtype: object

>  <hbond:VAL:124>  (19) 
hbond:VAL:124    NaN
hbond:VAL:124     -1
Name: 17, dtype: object

>  <halogenbond:VAL:124>  (19) 
halogenbond:VAL:124    NaN
halogenbond:VAL:124     -1
Name: 17, dtype: object

>  <hbond:SER:125>  (19) 
hbond:SER:125    2
hbond:SER:125    2
Name: 17, dtype: object

>  <halogenbond:SER:125>  (19) 
halogenbond:SER:125    NaN
halogenbond:SER:125     -1
Name: 17, dtype: object

>  <hydroph_interaction:THR:126>  (19) 
hydroph_interaction:THR:126    NaN
hydroph_interaction:THR:126     -1
Name: 17, dtype: object

>  <hbond:THR:126>  (19) 
hbond:THR:126    0.0
hbond:THR:126      0
Name: 17, dtype: object

>  <halogenbond:THR:126>  (19) 
halogenbond:THR:126    NaN
halogenbond:THR:126     -1
Name: 17, dtype: object

>  <hbond:GLY:127>  (19) 
hbond:GLY:127    0
hbond:GLY:127    0
Name: 17, dtype: object

>  <halogenbond:GLY:127>  (19) 
halogenbond:GLY:127    NaN
halogenbond:GLY:127     -1
Name: 17, dtype: object

>  <hydroph_interaction:GLY:127>  (19) 
hydroph_interaction:GLY:127    NaN
hydroph_interaction:GLY:127     -1
Name: 17, dtype: object

>  <hbond:GLY:128>  (19) 
hbond:GLY:128    NaN
hbond:GLY:128     -1
Name: 17, dtype: object

>  <halogenbond:GLY:128>  (19) 
halogenbond:GLY:128    NaN
halogenbond:GLY:128     -1
Name: 17, dtype: object

>  <hydroph_interaction:GLY:128>  (19) 
hydroph_interaction:GLY:128    NaN
hydroph_interaction:GLY:128     -1
Name: 17, dtype: object

>  <hbond:ASN:129>  (19) 
hbond:ASN:129    NaN
hbond:ASN:129     -1
Name: 17, dtype: object

>  <hydroph_interaction:ASN:129>  (19) 
hydroph_interaction:ASN:129    NaN
hydroph_interaction:ASN:129     -1
Name: 17, dtype: object

>  <halogenbond:ASN:129>  (19) 
halogenbond:ASN:129    NaN
halogenbond:ASN:129     -1
Name: 17, dtype: object

>  <hbond:GLY:130>  (19) 
hbond:GLY:130    NaN
hbond:GLY:130     -1
Name: 17, dtype: object

>  <hbond:LEU:131>  (19) 
hbond:LEU:131    NaN
hbond:LEU:131     -1
Name: 17, dtype: object

>  <hydroph_interaction:LEU:131>  (19) 
hydroph_interaction:LEU:131    NaN
hydroph_interaction:LEU:131     -1
Name: 17, dtype: object

>  <halogenbond:LEU:131>  (19) 
halogenbond:LEU:131    NaN
halogenbond:LEU:131     -1
Name: 17, dtype: object

>  <hydroph_interaction:VAL:132>  (19) 
hydroph_interaction:VAL:132    NaN
hydroph_interaction:VAL:132     -1
Name: 17, dtype: object

>  <hbond:VAL:132>  (19) 
hbond:VAL:132    NaN
hbond:VAL:132     -1
Name: 17, dtype: object

>  <hbond:GLY:133>  (19) 
hbond:GLY:133    NaN
hbond:GLY:133     -1
Name: 17, dtype: object

>  <halogenbond:GLY:133>  (19) 
halogenbond:GLY:133    NaN
halogenbond:GLY:133     -1
Name: 17, dtype: object

>  <hydroph_interaction:PHE:134>  (19) 
hydroph_interaction:PHE:134    NaN
hydroph_interaction:PHE:134     -1
Name: 17, dtype: object

>  <hbond:PHE:134>  (19) 
hbond:PHE:134    NaN
hbond:PHE:134     -1
Name: 17, dtype: object

>  <pistack:PHE:134>  (19) 
pistack:PHE:134    NaN
pistack:PHE:134     -1
Name: 17, dtype: object

>  <pication:PHE:134>  (19) 
pication:PHE:134    NaN
pication:PHE:134     -1
Name: 17, dtype: object

>  <halogenbond:PHE:134>  (19) 
halogenbond:PHE:134    NaN
halogenbond:PHE:134     -1
Name: 17, dtype: object

>  <hydroph_interaction:ALA:135>  (19) 
hydroph_interaction:ALA:135    NaN
hydroph_interaction:ALA:135     -1
Name: 17, dtype: object

>  <hbond:ALA:135>  (19) 
hbond:ALA:135    NaN
hbond:ALA:135     -1
Name: 17, dtype: object

$$$$
Z5180489862
     RDKit          3D

 14 15  0  0  0  0  0  0  0  0999 V2000
   30.1448    8.8972    9.0368 C   0  0  0  0  0  0  0  0  0  0  0  0
   31.0334    9.5604    8.0214 C   0  0  0  0  0  0  0  0  0  0  0  0
   31.0374   11.0736    7.7411 C   0  0  0  0  0  0  0  0  0  0  0  0
   30.1865   12.0808    8.4052 N   0  0  0  0  0  0  0  0  0  0  0  0
   29.2748   12.8672    7.6780 C   0  0  0  0  0  0  0  0  0  0  0  0
   28.7588   13.8720    8.4490 N   0  0  0  0  0  0  0  0  0  0  0  0
   28.9350   12.7514    6.5141 O   0  0  0  0  0  0  0  0  0  0  0  0
   32.0387   11.4723    6.6824 C   0  0  0  0  0  0  0  0  0  0  0  0
   32.3441   12.6696    6.1692 N   0  0  0  0  0  0  0  0  0  0  0  0
   33.3342   12.4573    5.2380 O   0  0  0  0  0  0  0  0  0  0  0  0
   33.6546   11.1238    5.1594 N   0  0  0  0  0  0  0  0  0  0  0  0
   32.8560   10.5351    6.0465 C   0  0  0  0  0  0  0  0  0  0  0  0
   32.7929    9.1884    6.3484 C   0  0  0  0  0  0  0  0  0  0  0  0
   31.9048    8.7589    7.3025 C   0  0  0  0  0  0  0  0  0  0  0  0
  1  2  1  0
  2  3  2  0
  3  4  1  0
  4  5  1  0
  5  6  1  0
  5  7  2  0
  3  8  1  0
  8  9  2  0
  9 10  1  0
 10 11  1  0
 11 12  2  0
 12 13  1  0
 13 14  2  0
 14  2  1  0
 12  8  1  0
A    1
 C1 
A    2
 C2 
A    3
 C3 
A    4
 N1 
A    5
 C4 
A    6
 N2 
A    7
 O1 
A    8
 C5 
A    9
 N3 
A   10
 O2 
A   11
 N4 
A   12
 C6 
A   13
 C7 
A   14
 C8 
M  END
>  <ref_pdb>  (20) 
Ax0310a

>  <ref_mols>  (20) 
Ax0554a,Ax0922a

>  <original SMILES>  (20) 
Cc1ccc2nonc2c1NC(N)=O

>  <rationale>  (20) 
info halogenbond:C110+G127+A86+S125+E85+Q95+E106+E88+T126+P107+H104+Y64+C65+S87+N129+F83+R93+L131+I82+G128+P91+N19+H21+V84+G133+Y90+Y89+H97+L81+F134+L98+R20+G103+S66+S67+S7+G108+R38+V124+M99+S36; hbond:S87+S125+Y90+Q95+T126+C110+D109+E85+G108+G103+G128+G130+L131+N129+N19+H104+R68+V124+R93+P91+F83+S67+S7+S66+G112+G133+V132+R20+Y89+S77+A135+Y63+A92+A101+M99+F134+L100+I82+Y64+S36+L98+V84+L81+Y94+S80+R38+S37+V102+G8+I123+G111+I113+L114+C65+L22+S96; hydroph_interaction:V84+V124+T126+L22+E85+E106+E88+D109+N129+L40+I123+A135+Q95+I82+L100+L98+L131+F83+R93+V132+Y63+F134+H104+R20+A86+V74+P91+A101+F76+M99+L114+A92+Y94+R68+Y72+Y64+V18+V102+W28+G127+G128+L81; pication:H21+H104+R93+Y63+F134+Y90+R68+F83+R20; pistack:H21+Y89+Y90+H104+F134+Y63+F83+Y94; saltbridge:D39+R93+H104+E106+D109+E85+E88+R68+R20; 

>  <intxn_cluster>  (20) 
-1

>  <intxn_cluster_rank>  (20) 
-1

>  <N_interactions>  (20) 
4

>  <∆∆G>  (20) 
-8.02534

>  <$/mg>  (20) 
163.0

>  <comRMSD>  (20) 
0.665337

>  <N_rotatable_bonds>  (20) 
2

>  <deep_P1_sidechain>  (20) 
nan

>  <farthest_distance_to_substrate>  (20) 
2.78053

>  <hbond:SER:7>  (20) 
hbond:SER:7    NaN
hbond:SER:7     -1
Name: 18, dtype: object

>  <halogenbond:SER:7>  (20) 
halogenbond:SER:7    NaN
halogenbond:SER:7     -1
Name: 18, dtype: object

>  <hbond:GLY:8>  (20) 
hbond:GLY:8    NaN
hbond:GLY:8     -1
Name: 18, dtype: object

>  <hydroph_interaction:VAL:18>  (20) 
hydroph_interaction:VAL:18    NaN
hydroph_interaction:VAL:18     -1
Name: 18, dtype: object

>  <hbond:ASN:19>  (20) 
hbond:ASN:19    NaN
hbond:ASN:19     -1
Name: 18, dtype: object

>  <hydroph_interaction:ASN:19>  (20) 
hydroph_interaction:ASN:19    0.0
hydroph_interaction:ASN:19      0
Name: 18, dtype: object

>  <halogenbond:ASN:19>  (20) 
halogenbond:ASN:19    NaN
halogenbond:ASN:19     -1
Name: 18, dtype: object

>  <hbond:ARG:20>  (20) 
hbond:ARG:20    NaN
hbond:ARG:20     -1
Name: 18, dtype: object

>  <hydroph_interaction:ARG:20>  (20) 
hydroph_interaction:ARG:20    NaN
hydroph_interaction:ARG:20     -1
Name: 18, dtype: object

>  <saltbridge:ARG:20>  (20) 
saltbridge:ARG:20    NaN
saltbridge:ARG:20     -1
Name: 18, dtype: object

>  <halogenbond:ARG:20>  (20) 
halogenbond:ARG:20    NaN
halogenbond:ARG:20     -1
Name: 18, dtype: object

>  <pication:ARG:20>  (20) 
pication:ARG:20    NaN
pication:ARG:20     -1
Name: 18, dtype: object

>  <hbond:HIS:21>  (20) 
hbond:HIS:21    0.0
hbond:HIS:21      0
Name: 18, dtype: object

>  <hydroph_interaction:HIS:21>  (20) 
hydroph_interaction:HIS:21    0.0
hydroph_interaction:HIS:21      0
Name: 18, dtype: object

>  <pistack:HIS:21>  (20) 
pistack:HIS:21    NaN
pistack:HIS:21     -1
Name: 18, dtype: object

>  <pication:HIS:21>  (20) 
pication:HIS:21    NaN
pication:HIS:21     -1
Name: 18, dtype: object

>  <saltbridge:HIS:21>  (20) 
saltbridge:HIS:21    0.0
saltbridge:HIS:21      0
Name: 18, dtype: object

>  <halogenbond:HIS:21>  (20) 
halogenbond:HIS:21    NaN
halogenbond:HIS:21     -1
Name: 18, dtype: object

>  <hydroph_interaction:LEU:22>  (20) 
hydroph_interaction:LEU:22    NaN
hydroph_interaction:LEU:22     -1
Name: 18, dtype: object

>  <hbond:LEU:22>  (20) 
hbond:LEU:22    NaN
hbond:LEU:22     -1
Name: 18, dtype: object

>  <hydroph_interaction:TRP:28>  (20) 
hydroph_interaction:TRP:28    NaN
hydroph_interaction:TRP:28     -1
Name: 18, dtype: object

>  <hbond:SER:36>  (20) 
hbond:SER:36    NaN
hbond:SER:36     -1
Name: 18, dtype: object

>  <halogenbond:SER:36>  (20) 
halogenbond:SER:36    NaN
halogenbond:SER:36     -1
Name: 18, dtype: object

>  <hbond:SER:37>  (20) 
hbond:SER:37    NaN
hbond:SER:37     -1
Name: 18, dtype: object

>  <hbond:ARG:38>  (20) 
hbond:ARG:38    NaN
hbond:ARG:38     -1
Name: 18, dtype: object

>  <halogenbond:ARG:38>  (20) 
halogenbond:ARG:38    NaN
halogenbond:ARG:38     -1
Name: 18, dtype: object

>  <saltbridge:ASP:39>  (20) 
saltbridge:ASP:39    NaN
saltbridge:ASP:39     -1
Name: 18, dtype: object

>  <halogenbond:ASP:39>  (20) 
halogenbond:ASP:39    0.0
halogenbond:ASP:39      0
Name: 18, dtype: object

>  <hbond:ASP:39>  (20) 
hbond:ASP:39    0.0
hbond:ASP:39      0
Name: 18, dtype: object

>  <hydroph_interaction:ASP:39>  (20) 
hydroph_interaction:ASP:39    0.0
hydroph_interaction:ASP:39      0
Name: 18, dtype: object

>  <hydroph_interaction:LEU:40>  (20) 
hydroph_interaction:LEU:40    NaN
hydroph_interaction:LEU:40     -1
Name: 18, dtype: object

>  <hydroph_interaction:TYR:63>  (20) 
hydroph_interaction:TYR:63    NaN
hydroph_interaction:TYR:63     -1
Name: 18, dtype: object

>  <hbond:TYR:63>  (20) 
hbond:TYR:63    NaN
hbond:TYR:63     -1
Name: 18, dtype: object

>  <pistack:TYR:63>  (20) 
pistack:TYR:63    NaN
pistack:TYR:63     -1
Name: 18, dtype: object

>  <pication:TYR:63>  (20) 
pication:TYR:63    NaN
pication:TYR:63     -1
Name: 18, dtype: object

>  <halogenbond:TYR:64>  (20) 
halogenbond:TYR:64    NaN
halogenbond:TYR:64     -1
Name: 18, dtype: object

>  <hbond:TYR:64>  (20) 
hbond:TYR:64    NaN
hbond:TYR:64     -1
Name: 18, dtype: object

>  <hydroph_interaction:TYR:64>  (20) 
hydroph_interaction:TYR:64    NaN
hydroph_interaction:TYR:64     -1
Name: 18, dtype: object

>  <halogenbond:CYS:65>  (20) 
halogenbond:CYS:65    NaN
halogenbond:CYS:65     -1
Name: 18, dtype: object

>  <hbond:CYS:65>  (20) 
hbond:CYS:65    NaN
hbond:CYS:65     -1
Name: 18, dtype: object

>  <hbond:SER:66>  (20) 
hbond:SER:66    NaN
hbond:SER:66     -1
Name: 18, dtype: object

>  <halogenbond:SER:66>  (20) 
halogenbond:SER:66    NaN
halogenbond:SER:66     -1
Name: 18, dtype: object

>  <hbond:SER:67>  (20) 
hbond:SER:67    NaN
hbond:SER:67     -1
Name: 18, dtype: object

>  <halogenbond:SER:67>  (20) 
halogenbond:SER:67    NaN
halogenbond:SER:67     -1
Name: 18, dtype: object

>  <hbond:ARG:68>  (20) 
hbond:ARG:68    NaN
hbond:ARG:68     -1
Name: 18, dtype: object

>  <saltbridge:ARG:68>  (20) 
saltbridge:ARG:68    NaN
saltbridge:ARG:68     -1
Name: 18, dtype: object

>  <hydroph_interaction:ARG:68>  (20) 
hydroph_interaction:ARG:68    NaN
hydroph_interaction:ARG:68     -1
Name: 18, dtype: object

>  <pication:ARG:68>  (20) 
pication:ARG:68    NaN
pication:ARG:68     -1
Name: 18, dtype: object

>  <hydroph_interaction:TYR:72>  (20) 
hydroph_interaction:TYR:72    NaN
hydroph_interaction:TYR:72     -1
Name: 18, dtype: object

>  <hydroph_interaction:VAL:74>  (20) 
hydroph_interaction:VAL:74    NaN
hydroph_interaction:VAL:74     -1
Name: 18, dtype: object

>  <hydroph_interaction:PHE:76>  (20) 
hydroph_interaction:PHE:76    NaN
hydroph_interaction:PHE:76     -1
Name: 18, dtype: object

>  <hbond:SER:77>  (20) 
hbond:SER:77    NaN
hbond:SER:77     -1
Name: 18, dtype: object

>  <hbond:SER:80>  (20) 
hbond:SER:80    NaN
hbond:SER:80     -1
Name: 18, dtype: object

>  <hbond:LEU:81>  (20) 
hbond:LEU:81    NaN
hbond:LEU:81     -1
Name: 18, dtype: object

>  <halogenbond:LEU:81>  (20) 
halogenbond:LEU:81    NaN
halogenbond:LEU:81     -1
Name: 18, dtype: object

>  <hydroph_interaction:LEU:81>  (20) 
hydroph_interaction:LEU:81    NaN
hydroph_interaction:LEU:81     -1
Name: 18, dtype: object

>  <hydroph_interaction:ILE:82>  (20) 
hydroph_interaction:ILE:82    NaN
hydroph_interaction:ILE:82     -1
Name: 18, dtype: object

>  <halogenbond:ILE:82>  (20) 
halogenbond:ILE:82    NaN
halogenbond:ILE:82     -1
Name: 18, dtype: object

>  <hbond:ILE:82>  (20) 
hbond:ILE:82    NaN
hbond:ILE:82     -1
Name: 18, dtype: object

>  <hbond:PHE:83>  (20) 
hbond:PHE:83    NaN
hbond:PHE:83     -1
Name: 18, dtype: object

>  <hydroph_interaction:PHE:83>  (20) 
hydroph_interaction:PHE:83    NaN
hydroph_interaction:PHE:83     -1
Name: 18, dtype: object

>  <halogenbond:PHE:83>  (20) 
halogenbond:PHE:83    NaN
halogenbond:PHE:83     -1
Name: 18, dtype: object

>  <pistack:PHE:83>  (20) 
pistack:PHE:83    NaN
pistack:PHE:83     -1
Name: 18, dtype: object

>  <pication:PHE:83>  (20) 
pication:PHE:83    NaN
pication:PHE:83     -1
Name: 18, dtype: object

>  <hydroph_interaction:VAL:84>  (20) 
hydroph_interaction:VAL:84    NaN
hydroph_interaction:VAL:84     -1
Name: 18, dtype: object

>  <halogenbond:VAL:84>  (20) 
halogenbond:VAL:84    NaN
halogenbond:VAL:84     -1
Name: 18, dtype: object

>  <hbond:VAL:84>  (20) 
hbond:VAL:84    NaN
hbond:VAL:84     -1
Name: 18, dtype: object

>  <hydroph_interaction:GLU:85>  (20) 
hydroph_interaction:GLU:85    NaN
hydroph_interaction:GLU:85     -1
Name: 18, dtype: object

>  <hbond:GLU:85>  (20) 
hbond:GLU:85    NaN
hbond:GLU:85     -1
Name: 18, dtype: object

>  <halogenbond:GLU:85>  (20) 
halogenbond:GLU:85    NaN
halogenbond:GLU:85     -1
Name: 18, dtype: object

>  <saltbridge:GLU:85>  (20) 
saltbridge:GLU:85    NaN
saltbridge:GLU:85     -1
Name: 18, dtype: object

>  <halogenbond:ALA:86>  (20) 
halogenbond:ALA:86    NaN
halogenbond:ALA:86     -1
Name: 18, dtype: object

>  <hbond:ALA:86>  (20) 
hbond:ALA:86    0.0
hbond:ALA:86      0
Name: 18, dtype: object

>  <hydroph_interaction:ALA:86>  (20) 
hydroph_interaction:ALA:86    NaN
hydroph_interaction:ALA:86     -1
Name: 18, dtype: object

>  <hbond:SER:87>  (20) 
hbond:SER:87    1
hbond:SER:87    1
Name: 18, dtype: object

>  <halogenbond:SER:87>  (20) 
halogenbond:SER:87    NaN
halogenbond:SER:87     -1
Name: 18, dtype: object

>  <hbond:GLU:88>  (20) 
hbond:GLU:88    0.0
hbond:GLU:88      0
Name: 18, dtype: object

>  <hydroph_interaction:GLU:88>  (20) 
hydroph_interaction:GLU:88    NaN
hydroph_interaction:GLU:88     -1
Name: 18, dtype: object

>  <halogenbond:GLU:88>  (20) 
halogenbond:GLU:88    NaN
halogenbond:GLU:88     -1
Name: 18, dtype: object

>  <saltbridge:GLU:88>  (20) 
saltbridge:GLU:88    NaN
saltbridge:GLU:88     -1
Name: 18, dtype: object

>  <hydroph_interaction:TYR:89>  (20) 
hydroph_interaction:TYR:89    0.0
hydroph_interaction:TYR:89      0
Name: 18, dtype: object

>  <pistack:TYR:89>  (20) 
pistack:TYR:89    NaN
pistack:TYR:89     -1
Name: 18, dtype: object

>  <hbond:TYR:89>  (20) 
hbond:TYR:89    NaN
hbond:TYR:89     -1
Name: 18, dtype: object

>  <halogenbond:TYR:89>  (20) 
halogenbond:TYR:89    NaN
halogenbond:TYR:89     -1
Name: 18, dtype: object

>  <hydroph_interaction:TYR:90>  (20) 
hydroph_interaction:TYR:90    0.0
hydroph_interaction:TYR:90      0
Name: 18, dtype: object

>  <hbond:TYR:90>  (20) 
hbond:TYR:90    NaN
hbond:TYR:90     -1
Name: 18, dtype: object

>  <pistack:TYR:90>  (20) 
pistack:TYR:90    NaN
pistack:TYR:90     -1
Name: 18, dtype: object

>  <halogenbond:TYR:90>  (20) 
halogenbond:TYR:90    NaN
halogenbond:TYR:90     -1
Name: 18, dtype: object

>  <pication:TYR:90>  (20) 
pication:TYR:90    NaN
pication:TYR:90     -1
Name: 18, dtype: object

>  <hbond:PRO:91>  (20) 
hbond:PRO:91    NaN
hbond:PRO:91     -1
Name: 18, dtype: object

>  <hydroph_interaction:PRO:91>  (20) 
hydroph_interaction:PRO:91    NaN
hydroph_interaction:PRO:91     -1
Name: 18, dtype: object

>  <halogenbond:PRO:91>  (20) 
halogenbond:PRO:91    NaN
halogenbond:PRO:91     -1
Name: 18, dtype: object

>  <hbond:ALA:92>  (20) 
hbond:ALA:92    NaN
hbond:ALA:92     -1
Name: 18, dtype: object

>  <hydroph_interaction:ALA:92>  (20) 
hydroph_interaction:ALA:92    NaN
hydroph_interaction:ALA:92     -1
Name: 18, dtype: object

>  <saltbridge:ARG:93>  (20) 
saltbridge:ARG:93    NaN
saltbridge:ARG:93     -1
Name: 18, dtype: object

>  <hbond:ARG:93>  (20) 
hbond:ARG:93    NaN
hbond:ARG:93     -1
Name: 18, dtype: object

>  <hydroph_interaction:ARG:93>  (20) 
hydroph_interaction:ARG:93    NaN
hydroph_interaction:ARG:93     -1
Name: 18, dtype: object

>  <halogenbond:ARG:93>  (20) 
halogenbond:ARG:93    NaN
halogenbond:ARG:93     -1
Name: 18, dtype: object

>  <pication:ARG:93>  (20) 
pication:ARG:93    NaN
pication:ARG:93     -1
Name: 18, dtype: object

>  <hydroph_interaction:TYR:94>  (20) 
hydroph_interaction:TYR:94    NaN
hydroph_interaction:TYR:94     -1
Name: 18, dtype: object

>  <pistack:TYR:94>  (20) 
pistack:TYR:94    NaN
pistack:TYR:94     -1
Name: 18, dtype: object

>  <hbond:TYR:94>  (20) 
hbond:TYR:94    NaN
hbond:TYR:94     -1
Name: 18, dtype: object

>  <hbond:GLN:95>  (20) 
hbond:GLN:95    NaN
hbond:GLN:95     -1
Name: 18, dtype: object

>  <hydroph_interaction:GLN:95>  (20) 
hydroph_interaction:GLN:95    NaN
hydroph_interaction:GLN:95     -1
Name: 18, dtype: object

>  <halogenbond:GLN:95>  (20) 
halogenbond:GLN:95    NaN
halogenbond:GLN:95     -1
Name: 18, dtype: object

>  <hbond:SER:96>  (20) 
hbond:SER:96    NaN
hbond:SER:96     -1
Name: 18, dtype: object

>  <halogenbond:HIS:97>  (20) 
halogenbond:HIS:97    NaN
halogenbond:HIS:97     -1
Name: 18, dtype: object

>  <hydroph_interaction:LEU:98>  (20) 
hydroph_interaction:LEU:98    NaN
hydroph_interaction:LEU:98     -1
Name: 18, dtype: object

>  <hbond:LEU:98>  (20) 
hbond:LEU:98    NaN
hbond:LEU:98     -1
Name: 18, dtype: object

>  <halogenbond:LEU:98>  (20) 
halogenbond:LEU:98    NaN
halogenbond:LEU:98     -1
Name: 18, dtype: object

>  <hbond:MET:99>  (20) 
hbond:MET:99    NaN
hbond:MET:99     -1
Name: 18, dtype: object

>  <hydroph_interaction:MET:99>  (20) 
hydroph_interaction:MET:99    NaN
hydroph_interaction:MET:99     -1
Name: 18, dtype: object

>  <halogenbond:MET:99>  (20) 
halogenbond:MET:99    NaN
halogenbond:MET:99     -1
Name: 18, dtype: object

>  <hydroph_interaction:LEU:100>  (20) 
hydroph_interaction:LEU:100    NaN
hydroph_interaction:LEU:100     -1
Name: 18, dtype: object

>  <hbond:LEU:100>  (20) 
hbond:LEU:100    NaN
hbond:LEU:100     -1
Name: 18, dtype: object

>  <hbond:ALA:101>  (20) 
hbond:ALA:101    NaN
hbond:ALA:101     -1
Name: 18, dtype: object

>  <hydroph_interaction:ALA:101>  (20) 
hydroph_interaction:ALA:101    NaN
hydroph_interaction:ALA:101     -1
Name: 18, dtype: object

>  <hydroph_interaction:VAL:102>  (20) 
hydroph_interaction:VAL:102    NaN
hydroph_interaction:VAL:102     -1
Name: 18, dtype: object

>  <hbond:VAL:102>  (20) 
hbond:VAL:102    NaN
hbond:VAL:102     -1
Name: 18, dtype: object

>  <hbond:GLY:103>  (20) 
hbond:GLY:103    NaN
hbond:GLY:103     -1
Name: 18, dtype: object

>  <halogenbond:GLY:103>  (20) 
halogenbond:GLY:103    NaN
halogenbond:GLY:103     -1
Name: 18, dtype: object

>  <hbond:HIS:104>  (20) 
hbond:HIS:104    NaN
hbond:HIS:104     -1
Name: 18, dtype: object

>  <saltbridge:HIS:104>  (20) 
saltbridge:HIS:104    NaN
saltbridge:HIS:104     -1
Name: 18, dtype: object

>  <pication:HIS:104>  (20) 
pication:HIS:104    NaN
pication:HIS:104     -1
Name: 18, dtype: object

>  <halogenbond:HIS:104>  (20) 
halogenbond:HIS:104    NaN
halogenbond:HIS:104     -1
Name: 18, dtype: object

>  <hydroph_interaction:HIS:104>  (20) 
hydroph_interaction:HIS:104    NaN
hydroph_interaction:HIS:104     -1
Name: 18, dtype: object

>  <pistack:HIS:104>  (20) 
pistack:HIS:104    NaN
pistack:HIS:104     -1
Name: 18, dtype: object

>  <halogenbond:SER:105>  (20) 
halogenbond:SER:105    0.0
halogenbond:SER:105      0
Name: 18, dtype: object

>  <hbond:SER:105>  (20) 
hbond:SER:105    0.0
hbond:SER:105      0
Name: 18, dtype: object

>  <hbond:GLU:106>  (20) 
hbond:GLU:106    0.0
hbond:GLU:106      0
Name: 18, dtype: object

>  <hydroph_interaction:GLU:106>  (20) 
hydroph_interaction:GLU:106    NaN
hydroph_interaction:GLU:106     -1
Name: 18, dtype: object

>  <saltbridge:GLU:106>  (20) 
saltbridge:GLU:106    NaN
saltbridge:GLU:106     -1
Name: 18, dtype: object

>  <halogenbond:GLU:106>  (20) 
halogenbond:GLU:106    NaN
halogenbond:GLU:106     -1
Name: 18, dtype: object

>  <hydroph_interaction:PRO:107>  (20) 
hydroph_interaction:PRO:107    0
hydroph_interaction:PRO:107    0
Name: 18, dtype: object

>  <hbond:PRO:107>  (20) 
hbond:PRO:107    0.0
hbond:PRO:107      0
Name: 18, dtype: object

>  <halogenbond:PRO:107>  (20) 
halogenbond:PRO:107    NaN
halogenbond:PRO:107     -1
Name: 18, dtype: object

>  <hbond:GLY:108>  (20) 
hbond:GLY:108    NaN
hbond:GLY:108     -1
Name: 18, dtype: object

>  <halogenbond:GLY:108>  (20) 
halogenbond:GLY:108    NaN
halogenbond:GLY:108     -1
Name: 18, dtype: object

>  <hbond:ASP:109>  (20) 
hbond:ASP:109    NaN
hbond:ASP:109     -1
Name: 18, dtype: object

>  <hydroph_interaction:ASP:109>  (20) 
hydroph_interaction:ASP:109    NaN
hydroph_interaction:ASP:109     -1
Name: 18, dtype: object

>  <saltbridge:ASP:109>  (20) 
saltbridge:ASP:109    NaN
saltbridge:ASP:109     -1
Name: 18, dtype: object

>  <halogenbond:CYS:110>  (20) 
halogenbond:CYS:110    NaN
halogenbond:CYS:110     -1
Name: 18, dtype: object

>  <hbond:CYS:110>  (20) 
hbond:CYS:110    NaN
hbond:CYS:110     -1
Name: 18, dtype: object

>  <hbond:GLY:111>  (20) 
hbond:GLY:111    NaN
hbond:GLY:111     -1
Name: 18, dtype: object

>  <hbond:GLY:112>  (20) 
hbond:GLY:112    NaN
hbond:GLY:112     -1
Name: 18, dtype: object

>  <hbond:ILE:113>  (20) 
hbond:ILE:113    NaN
hbond:ILE:113     -1
Name: 18, dtype: object

>  <hydroph_interaction:LEU:114>  (20) 
hydroph_interaction:LEU:114    NaN
hydroph_interaction:LEU:114     -1
Name: 18, dtype: object

>  <hbond:LEU:114>  (20) 
hbond:LEU:114    NaN
hbond:LEU:114     -1
Name: 18, dtype: object

>  <hydroph_interaction:ILE:123>  (20) 
hydroph_interaction:ILE:123    NaN
hydroph_interaction:ILE:123     -1
Name: 18, dtype: object

>  <hbond:ILE:123>  (20) 
hbond:ILE:123    NaN
hbond:ILE:123     -1
Name: 18, dtype: object

>  <hydroph_interaction:VAL:124>  (20) 
hydroph_interaction:VAL:124    1.0
hydroph_interaction:VAL:124      1
Name: 18, dtype: object

>  <hbond:VAL:124>  (20) 
hbond:VAL:124    NaN
hbond:VAL:124     -1
Name: 18, dtype: object

>  <halogenbond:VAL:124>  (20) 
halogenbond:VAL:124    NaN
halogenbond:VAL:124     -1
Name: 18, dtype: object

>  <hbond:SER:125>  (20) 
hbond:SER:125    2
hbond:SER:125    2
Name: 18, dtype: object

>  <halogenbond:SER:125>  (20) 
halogenbond:SER:125    NaN
halogenbond:SER:125     -1
Name: 18, dtype: object

>  <hydroph_interaction:THR:126>  (20) 
hydroph_interaction:THR:126    NaN
hydroph_interaction:THR:126     -1
Name: 18, dtype: object

>  <hbond:THR:126>  (20) 
hbond:THR:126    NaN
hbond:THR:126     -1
Name: 18, dtype: object

>  <halogenbond:THR:126>  (20) 
halogenbond:THR:126    NaN
halogenbond:THR:126     -1
Name: 18, dtype: object

>  <hbond:GLY:127>  (20) 
hbond:GLY:127    0
hbond:GLY:127    0
Name: 18, dtype: object

>  <halogenbond:GLY:127>  (20) 
halogenbond:GLY:127    NaN
halogenbond:GLY:127     -1
Name: 18, dtype: object

>  <hydroph_interaction:GLY:127>  (20) 
hydroph_interaction:GLY:127    NaN
hydroph_interaction:GLY:127     -1
Name: 18, dtype: object

>  <hbond:GLY:128>  (20) 
hbond:GLY:128    NaN
hbond:GLY:128     -1
Name: 18, dtype: object

>  <halogenbond:GLY:128>  (20) 
halogenbond:GLY:128    NaN
halogenbond:GLY:128     -1
Name: 18, dtype: object

>  <hydroph_interaction:GLY:128>  (20) 
hydroph_interaction:GLY:128    NaN
hydroph_interaction:GLY:128     -1
Name: 18, dtype: object

>  <hbond:ASN:129>  (20) 
hbond:ASN:129    NaN
hbond:ASN:129     -1
Name: 18, dtype: object

>  <hydroph_interaction:ASN:129>  (20) 
hydroph_interaction:ASN:129    NaN
hydroph_interaction:ASN:129     -1
Name: 18, dtype: object

>  <halogenbond:ASN:129>  (20) 
halogenbond:ASN:129    NaN
halogenbond:ASN:129     -1
Name: 18, dtype: object

>  <hbond:GLY:130>  (20) 
hbond:GLY:130    NaN
hbond:GLY:130     -1
Name: 18, dtype: object

>  <hbond:LEU:131>  (20) 
hbond:LEU:131    NaN
hbond:LEU:131     -1
Name: 18, dtype: object

>  <hydroph_interaction:LEU:131>  (20) 
hydroph_interaction:LEU:131    NaN
hydroph_interaction:LEU:131     -1
Name: 18, dtype: object

>  <halogenbond:LEU:131>  (20) 
halogenbond:LEU:131    NaN
halogenbond:LEU:131     -1
Name: 18, dtype: object

>  <hydroph_interaction:VAL:132>  (20) 
hydroph_interaction:VAL:132    NaN
hydroph_interaction:VAL:132     -1
Name: 18, dtype: object

>  <hbond:VAL:132>  (20) 
hbond:VAL:132    NaN
hbond:VAL:132     -1
Name: 18, dtype: object

>  <hbond:GLY:133>  (20) 
hbond:GLY:133    NaN
hbond:GLY:133     -1
Name: 18, dtype: object

>  <halogenbond:GLY:133>  (20) 
halogenbond:GLY:133    NaN
halogenbond:GLY:133     -1
Name: 18, dtype: object

>  <hydroph_interaction:PHE:134>  (20) 
hydroph_interaction:PHE:134    NaN
hydroph_interaction:PHE:134     -1
Name: 18, dtype: object

>  <hbond:PHE:134>  (20) 
hbond:PHE:134    NaN
hbond:PHE:134     -1
Name: 18, dtype: object

>  <pistack:PHE:134>  (20) 
pistack:PHE:134    NaN
pistack:PHE:134     -1
Name: 18, dtype: object

>  <pication:PHE:134>  (20) 
pication:PHE:134    NaN
pication:PHE:134     -1
Name: 18, dtype: object

>  <halogenbond:PHE:134>  (20) 
halogenbond:PHE:134    NaN
halogenbond:PHE:134     -1
Name: 18, dtype: object

>  <hydroph_interaction:ALA:135>  (20) 
hydroph_interaction:ALA:135    NaN
hydroph_interaction:ALA:135     -1
Name: 18, dtype: object

>  <hbond:ALA:135>  (20) 
hbond:ALA:135    NaN
hbond:ALA:135     -1
Name: 18, dtype: object

$$$$
Z4990862679
     RDKit          3D

 13 14  0  0  0  0  0  0  0  0999 V2000
   28.6474   13.9154    8.4258 N   0  0  0  0  0  0  0  0  0  0  0  0
   29.4850   13.4127    7.4780 C   0  0  0  0  0  0  0  0  0  0  0  0
   29.3131   13.6797    6.2899 O   0  0  0  0  0  0  0  0  0  0  0  0
   30.4515   12.6387    8.0455 N   0  0  0  0  0  0  0  0  0  0  0  0
   31.3968   11.9149    7.3048 C   0  0  0  0  0  0  0  0  0  0  0  0
   32.2683   12.5257    6.4292 N   0  0  0  0  0  0  0  0  0  0  0  0
   33.1662   11.7964    5.7296 C   0  0  0  0  0  0  0  0  0  0  0  0
   33.2199   10.3484    5.8959 C   0  0  0  0  0  0  0  0  0  0  0  0
   32.3315    9.7959    6.7794 C   0  0  0  0  0  0  0  0  0  0  0  0
   31.4135   10.5243    7.4967 C   0  0  0  0  0  0  0  0  0  0  0  0
   30.6522    9.7452    8.2988 C   0  0  0  0  0  0  0  0  0  0  0  0
   31.1187    8.4842    8.0666 C   0  0  0  0  0  0  0  0  0  0  0  0
   32.1477    8.4918    7.1459 O   0  0  0  0  0  0  0  0  0  0  0  0
  1  2  1  0
  2  3  2  0
  2  4  1  0
  4  5  1  0
  5  6  2  0
  6  7  1  0
  7  8  2  0
  8  9  1  0
  9 10  2  0
 10 11  1  0
 11 12  2  0
 12 13  1  0
 10  5  1  0
 13  9  1  0
A    1
 N1 
A    2
 C1 
A    3
 O1 
A    4
 N2 
A    5
 C2 
A    6
 N3 
A    7
 C3 
A    8
 C4 
A    9
 C5 
A   10
 C6 
A   11
 C7 
A   12
 C8 
A   13
 O2 
M  END
>  <ref_pdb>  (21) 
Ax0310a

>  <ref_mols>  (21) 
Ax0554a,Ax0922a

>  <original SMILES>  (21) 
NC(=O)Nc1nccc2occc12

>  <rationale>  (21) 
info halogenbond:G127+D39+A86+S125+E85+Q95+E106+E88+T126+H104+Y64+C65+S87+N129+F83+R93+L131+I82+G128+P91+N19+H21+V84+G133+Y90+Y89+H97+L81+F134+L98+R20+G103+S66+S67+S7+G108+R38+V124+M99+S36; hbond:S87+S125+Q95+T126+D39+A86+C110+D109+G108+G103+G128+G130+L131+N129+H104+R68+V124+P91+F83+S67+S7+S66+G112+G133+V132+R20+Y89+S77+A135+Y63+A92+A101+M99+F134+L100+I82+Y64+S36+L98+V84+L81+Y94+S80+R38+S37+V102+G8+I123+G111+I113+L114+C65+L22+S96; hydroph_interaction:E85+E106+D109+N129+L40+I123+A135+Q95+I82+L100+L98+L131+F83+R93+V132+Y63+F134+H104+R20+A86+V74+P91+A101+F76+M99+L114+A92+Y94+R68+Y72+Y64+V18+V102+W28+G127+G128+L81; pication:H104+R93+Y63+F134+Y90+R68+F83+R20; pistack:H104+F134+Y63+F83+Y94; saltbridge:D39+R93+H104+E106+D109+E85+E88+R68+R20; 

>  <intxn_cluster>  (21) 
-1

>  <intxn_cluster_rank>  (21) 
-1

>  <N_interactions>  (21) 
3

>  <∆∆G>  (21) 
-7.677352

>  <$/mg>  (21) 
163.0

>  <comRMSD>  (21) 
0.822839

>  <N_rotatable_bonds>  (21) 
1

>  <deep_P1_sidechain>  (21) 
nan

>  <farthest_distance_to_substrate>  (21) 
2.464806

>  <hbond:SER:7>  (21) 
hbond:SER:7    NaN
hbond:SER:7     -1
Name: 19, dtype: object

>  <halogenbond:SER:7>  (21) 
halogenbond:SER:7    NaN
halogenbond:SER:7     -1
Name: 19, dtype: object

>  <hbond:GLY:8>  (21) 
hbond:GLY:8    NaN
hbond:GLY:8     -1
Name: 19, dtype: object

>  <hydroph_interaction:VAL:18>  (21) 
hydroph_interaction:VAL:18    NaN
hydroph_interaction:VAL:18     -1
Name: 19, dtype: object

>  <hbond:ASN:19>  (21) 
hbond:ASN:19    0.0
hbond:ASN:19      0
Name: 19, dtype: object

>  <hydroph_interaction:ASN:19>  (21) 
hydroph_interaction:ASN:19    0.0
hydroph_interaction:ASN:19      0
Name: 19, dtype: object

>  <halogenbond:ASN:19>  (21) 
halogenbond:ASN:19    NaN
halogenbond:ASN:19     -1
Name: 19, dtype: object

>  <hbond:ARG:20>  (21) 
hbond:ARG:20    NaN
hbond:ARG:20     -1
Name: 19, dtype: object

>  <hydroph_interaction:ARG:20>  (21) 
hydroph_interaction:ARG:20    NaN
hydroph_interaction:ARG:20     -1
Name: 19, dtype: object

>  <saltbridge:ARG:20>  (21) 
saltbridge:ARG:20    NaN
saltbridge:ARG:20     -1
Name: 19, dtype: object

>  <halogenbond:ARG:20>  (21) 
halogenbond:ARG:20    NaN
halogenbond:ARG:20     -1
Name: 19, dtype: object

>  <pication:ARG:20>  (21) 
pication:ARG:20    NaN
pication:ARG:20     -1
Name: 19, dtype: object

>  <hbond:HIS:21>  (21) 
hbond:HIS:21    0.0
hbond:HIS:21      0
Name: 19, dtype: object

>  <hydroph_interaction:HIS:21>  (21) 
hydroph_interaction:HIS:21    0.0
hydroph_interaction:HIS:21      0
Name: 19, dtype: object

>  <pistack:HIS:21>  (21) 
pistack:HIS:21    0.0
pistack:HIS:21      0
Name: 19, dtype: object

>  <pication:HIS:21>  (21) 
pication:HIS:21    0.0
pication:HIS:21      0
Name: 19, dtype: object

>  <saltbridge:HIS:21>  (21) 
saltbridge:HIS:21    0.0
saltbridge:HIS:21      0
Name: 19, dtype: object

>  <halogenbond:HIS:21>  (21) 
halogenbond:HIS:21    NaN
halogenbond:HIS:21     -1
Name: 19, dtype: object

>  <hydroph_interaction:LEU:22>  (21) 
hydroph_interaction:LEU:22    0.0
hydroph_interaction:LEU:22      0
Name: 19, dtype: object

>  <hbond:LEU:22>  (21) 
hbond:LEU:22    NaN
hbond:LEU:22     -1
Name: 19, dtype: object

>  <hydroph_interaction:TRP:28>  (21) 
hydroph_interaction:TRP:28    NaN
hydroph_interaction:TRP:28     -1
Name: 19, dtype: object

>  <hbond:SER:36>  (21) 
hbond:SER:36    NaN
hbond:SER:36     -1
Name: 19, dtype: object

>  <halogenbond:SER:36>  (21) 
halogenbond:SER:36    NaN
halogenbond:SER:36     -1
Name: 19, dtype: object

>  <hbond:SER:37>  (21) 
hbond:SER:37    NaN
hbond:SER:37     -1
Name: 19, dtype: object

>  <hbond:ARG:38>  (21) 
hbond:ARG:38    NaN
hbond:ARG:38     -1
Name: 19, dtype: object

>  <halogenbond:ARG:38>  (21) 
halogenbond:ARG:38    NaN
halogenbond:ARG:38     -1
Name: 19, dtype: object

>  <saltbridge:ASP:39>  (21) 
saltbridge:ASP:39    NaN
saltbridge:ASP:39     -1
Name: 19, dtype: object

>  <halogenbond:ASP:39>  (21) 
halogenbond:ASP:39    NaN
halogenbond:ASP:39     -1
Name: 19, dtype: object

>  <hbond:ASP:39>  (21) 
hbond:ASP:39    NaN
hbond:ASP:39     -1
Name: 19, dtype: object

>  <hydroph_interaction:ASP:39>  (21) 
hydroph_interaction:ASP:39    0.0
hydroph_interaction:ASP:39      0
Name: 19, dtype: object

>  <hydroph_interaction:LEU:40>  (21) 
hydroph_interaction:LEU:40    NaN
hydroph_interaction:LEU:40     -1
Name: 19, dtype: object

>  <hydroph_interaction:TYR:63>  (21) 
hydroph_interaction:TYR:63    NaN
hydroph_interaction:TYR:63     -1
Name: 19, dtype: object

>  <hbond:TYR:63>  (21) 
hbond:TYR:63    NaN
hbond:TYR:63     -1
Name: 19, dtype: object

>  <pistack:TYR:63>  (21) 
pistack:TYR:63    NaN
pistack:TYR:63     -1
Name: 19, dtype: object

>  <pication:TYR:63>  (21) 
pication:TYR:63    NaN
pication:TYR:63     -1
Name: 19, dtype: object

>  <halogenbond:TYR:64>  (21) 
halogenbond:TYR:64    NaN
halogenbond:TYR:64     -1
Name: 19, dtype: object

>  <hbond:TYR:64>  (21) 
hbond:TYR:64    NaN
hbond:TYR:64     -1
Name: 19, dtype: object

>  <hydroph_interaction:TYR:64>  (21) 
hydroph_interaction:TYR:64    NaN
hydroph_interaction:TYR:64     -1
Name: 19, dtype: object

>  <halogenbond:CYS:65>  (21) 
halogenbond:CYS:65    NaN
halogenbond:CYS:65     -1
Name: 19, dtype: object

>  <hbond:CYS:65>  (21) 
hbond:CYS:65    NaN
hbond:CYS:65     -1
Name: 19, dtype: object

>  <hbond:SER:66>  (21) 
hbond:SER:66    NaN
hbond:SER:66     -1
Name: 19, dtype: object

>  <halogenbond:SER:66>  (21) 
halogenbond:SER:66    NaN
halogenbond:SER:66     -1
Name: 19, dtype: object

>  <hbond:SER:67>  (21) 
hbond:SER:67    NaN
hbond:SER:67     -1
Name: 19, dtype: object

>  <halogenbond:SER:67>  (21) 
halogenbond:SER:67    NaN
halogenbond:SER:67     -1
Name: 19, dtype: object

>  <hbond:ARG:68>  (21) 
hbond:ARG:68    NaN
hbond:ARG:68     -1
Name: 19, dtype: object

>  <saltbridge:ARG:68>  (21) 
saltbridge:ARG:68    NaN
saltbridge:ARG:68     -1
Name: 19, dtype: object

>  <hydroph_interaction:ARG:68>  (21) 
hydroph_interaction:ARG:68    NaN
hydroph_interaction:ARG:68     -1
Name: 19, dtype: object

>  <pication:ARG:68>  (21) 
pication:ARG:68    NaN
pication:ARG:68     -1
Name: 19, dtype: object

>  <hydroph_interaction:TYR:72>  (21) 
hydroph_interaction:TYR:72    NaN
hydroph_interaction:TYR:72     -1
Name: 19, dtype: object

>  <hydroph_interaction:VAL:74>  (21) 
hydroph_interaction:VAL:74    NaN
hydroph_interaction:VAL:74     -1
Name: 19, dtype: object

>  <hydroph_interaction:PHE:76>  (21) 
hydroph_interaction:PHE:76    NaN
hydroph_interaction:PHE:76     -1
Name: 19, dtype: object

>  <hbond:SER:77>  (21) 
hbond:SER:77    NaN
hbond:SER:77     -1
Name: 19, dtype: object

>  <hbond:SER:80>  (21) 
hbond:SER:80    NaN
hbond:SER:80     -1
Name: 19, dtype: object

>  <hbond:LEU:81>  (21) 
hbond:LEU:81    NaN
hbond:LEU:81     -1
Name: 19, dtype: object

>  <halogenbond:LEU:81>  (21) 
halogenbond:LEU:81    NaN
halogenbond:LEU:81     -1
Name: 19, dtype: object

>  <hydroph_interaction:LEU:81>  (21) 
hydroph_interaction:LEU:81    NaN
hydroph_interaction:LEU:81     -1
Name: 19, dtype: object

>  <hydroph_interaction:ILE:82>  (21) 
hydroph_interaction:ILE:82    NaN
hydroph_interaction:ILE:82     -1
Name: 19, dtype: object

>  <halogenbond:ILE:82>  (21) 
halogenbond:ILE:82    NaN
halogenbond:ILE:82     -1
Name: 19, dtype: object

>  <hbond:ILE:82>  (21) 
hbond:ILE:82    NaN
hbond:ILE:82     -1
Name: 19, dtype: object

>  <hbond:PHE:83>  (21) 
hbond:PHE:83    NaN
hbond:PHE:83     -1
Name: 19, dtype: object

>  <hydroph_interaction:PHE:83>  (21) 
hydroph_interaction:PHE:83    NaN
hydroph_interaction:PHE:83     -1
Name: 19, dtype: object

>  <halogenbond:PHE:83>  (21) 
halogenbond:PHE:83    NaN
halogenbond:PHE:83     -1
Name: 19, dtype: object

>  <pistack:PHE:83>  (21) 
pistack:PHE:83    NaN
pistack:PHE:83     -1
Name: 19, dtype: object

>  <pication:PHE:83>  (21) 
pication:PHE:83    NaN
pication:PHE:83     -1
Name: 19, dtype: object

>  <hydroph_interaction:VAL:84>  (21) 
hydroph_interaction:VAL:84    0.0
hydroph_interaction:VAL:84      0
Name: 19, dtype: object

>  <halogenbond:VAL:84>  (21) 
halogenbond:VAL:84    NaN
halogenbond:VAL:84     -1
Name: 19, dtype: object

>  <hbond:VAL:84>  (21) 
hbond:VAL:84    NaN
hbond:VAL:84     -1
Name: 19, dtype: object

>  <hydroph_interaction:GLU:85>  (21) 
hydroph_interaction:GLU:85    NaN
hydroph_interaction:GLU:85     -1
Name: 19, dtype: object

>  <hbond:GLU:85>  (21) 
hbond:GLU:85    0.0
hbond:GLU:85      0
Name: 19, dtype: object

>  <halogenbond:GLU:85>  (21) 
halogenbond:GLU:85    NaN
halogenbond:GLU:85     -1
Name: 19, dtype: object

>  <saltbridge:GLU:85>  (21) 
saltbridge:GLU:85    NaN
saltbridge:GLU:85     -1
Name: 19, dtype: object

>  <halogenbond:ALA:86>  (21) 
halogenbond:ALA:86    NaN
halogenbond:ALA:86     -1
Name: 19, dtype: object

>  <hbond:ALA:86>  (21) 
hbond:ALA:86    NaN
hbond:ALA:86     -1
Name: 19, dtype: object

>  <hydroph_interaction:ALA:86>  (21) 
hydroph_interaction:ALA:86    NaN
hydroph_interaction:ALA:86     -1
Name: 19, dtype: object

>  <hbond:SER:87>  (21) 
hbond:SER:87    1
hbond:SER:87    1
Name: 19, dtype: object

>  <halogenbond:SER:87>  (21) 
halogenbond:SER:87    NaN
halogenbond:SER:87     -1
Name: 19, dtype: object

>  <hbond:GLU:88>  (21) 
hbond:GLU:88    0.0
hbond:GLU:88      0
Name: 19, dtype: object

>  <hydroph_interaction:GLU:88>  (21) 
hydroph_interaction:GLU:88    0.0
hydroph_interaction:GLU:88      0
Name: 19, dtype: object

>  <halogenbond:GLU:88>  (21) 
halogenbond:GLU:88    NaN
halogenbond:GLU:88     -1
Name: 19, dtype: object

>  <saltbridge:GLU:88>  (21) 
saltbridge:GLU:88    NaN
saltbridge:GLU:88     -1
Name: 19, dtype: object

>  <hydroph_interaction:TYR:89>  (21) 
hydroph_interaction:TYR:89    0.0
hydroph_interaction:TYR:89      0
Name: 19, dtype: object

>  <pistack:TYR:89>  (21) 
pistack:TYR:89    0.0
pistack:TYR:89      0
Name: 19, dtype: object

>  <hbond:TYR:89>  (21) 
hbond:TYR:89    NaN
hbond:TYR:89     -1
Name: 19, dtype: object

>  <halogenbond:TYR:89>  (21) 
halogenbond:TYR:89    NaN
halogenbond:TYR:89     -1
Name: 19, dtype: object

>  <hydroph_interaction:TYR:90>  (21) 
hydroph_interaction:TYR:90    0.0
hydroph_interaction:TYR:90      0
Name: 19, dtype: object

>  <hbond:TYR:90>  (21) 
hbond:TYR:90    0.0
hbond:TYR:90      0
Name: 19, dtype: object

>  <pistack:TYR:90>  (21) 
pistack:TYR:90    0.0
pistack:TYR:90      0
Name: 19, dtype: object

>  <halogenbond:TYR:90>  (21) 
halogenbond:TYR:90    NaN
halogenbond:TYR:90     -1
Name: 19, dtype: object

>  <pication:TYR:90>  (21) 
pication:TYR:90    NaN
pication:TYR:90     -1
Name: 19, dtype: object

>  <hbond:PRO:91>  (21) 
hbond:PRO:91    NaN
hbond:PRO:91     -1
Name: 19, dtype: object

>  <hydroph_interaction:PRO:91>  (21) 
hydroph_interaction:PRO:91    NaN
hydroph_interaction:PRO:91     -1
Name: 19, dtype: object

>  <halogenbond:PRO:91>  (21) 
halogenbond:PRO:91    NaN
halogenbond:PRO:91     -1
Name: 19, dtype: object

>  <hbond:ALA:92>  (21) 
hbond:ALA:92    NaN
hbond:ALA:92     -1
Name: 19, dtype: object

>  <hydroph_interaction:ALA:92>  (21) 
hydroph_interaction:ALA:92    NaN
hydroph_interaction:ALA:92     -1
Name: 19, dtype: object

>  <saltbridge:ARG:93>  (21) 
saltbridge:ARG:93    NaN
saltbridge:ARG:93     -1
Name: 19, dtype: object

>  <hbond:ARG:93>  (21) 
hbond:ARG:93    0.0
hbond:ARG:93      0
Name: 19, dtype: object

>  <hydroph_interaction:ARG:93>  (21) 
hydroph_interaction:ARG:93    NaN
hydroph_interaction:ARG:93     -1
Name: 19, dtype: object

>  <halogenbond:ARG:93>  (21) 
halogenbond:ARG:93    NaN
halogenbond:ARG:93     -1
Name: 19, dtype: object

>  <pication:ARG:93>  (21) 
pication:ARG:93    NaN
pication:ARG:93     -1
Name: 19, dtype: object

>  <hydroph_interaction:TYR:94>  (21) 
hydroph_interaction:TYR:94    NaN
hydroph_interaction:TYR:94     -1
Name: 19, dtype: object

>  <pistack:TYR:94>  (21) 
pistack:TYR:94    NaN
pistack:TYR:94     -1
Name: 19, dtype: object

>  <hbond:TYR:94>  (21) 
hbond:TYR:94    NaN
hbond:TYR:94     -1
Name: 19, dtype: object

>  <hbond:GLN:95>  (21) 
hbond:GLN:95    NaN
hbond:GLN:95     -1
Name: 19, dtype: object

>  <hydroph_interaction:GLN:95>  (21) 
hydroph_interaction:GLN:95    NaN
hydroph_interaction:GLN:95     -1
Name: 19, dtype: object

>  <halogenbond:GLN:95>  (21) 
halogenbond:GLN:95    NaN
halogenbond:GLN:95     -1
Name: 19, dtype: object

>  <hbond:SER:96>  (21) 
hbond:SER:96    NaN
hbond:SER:96     -1
Name: 19, dtype: object

>  <halogenbond:HIS:97>  (21) 
halogenbond:HIS:97    NaN
halogenbond:HIS:97     -1
Name: 19, dtype: object

>  <hydroph_interaction:LEU:98>  (21) 
hydroph_interaction:LEU:98    NaN
hydroph_interaction:LEU:98     -1
Name: 19, dtype: object

>  <hbond:LEU:98>  (21) 
hbond:LEU:98    NaN
hbond:LEU:98     -1
Name: 19, dtype: object

>  <halogenbond:LEU:98>  (21) 
halogenbond:LEU:98    NaN
halogenbond:LEU:98     -1
Name: 19, dtype: object

>  <hbond:MET:99>  (21) 
hbond:MET:99    NaN
hbond:MET:99     -1
Name: 19, dtype: object

>  <hydroph_interaction:MET:99>  (21) 
hydroph_interaction:MET:99    NaN
hydroph_interaction:MET:99     -1
Name: 19, dtype: object

>  <halogenbond:MET:99>  (21) 
halogenbond:MET:99    NaN
halogenbond:MET:99     -1
Name: 19, dtype: object

>  <hydroph_interaction:LEU:100>  (21) 
hydroph_interaction:LEU:100    NaN
hydroph_interaction:LEU:100     -1
Name: 19, dtype: object

>  <hbond:LEU:100>  (21) 
hbond:LEU:100    NaN
hbond:LEU:100     -1
Name: 19, dtype: object

>  <hbond:ALA:101>  (21) 
hbond:ALA:101    NaN
hbond:ALA:101     -1
Name: 19, dtype: object

>  <hydroph_interaction:ALA:101>  (21) 
hydroph_interaction:ALA:101    NaN
hydroph_interaction:ALA:101     -1
Name: 19, dtype: object

>  <hydroph_interaction:VAL:102>  (21) 
hydroph_interaction:VAL:102    NaN
hydroph_interaction:VAL:102     -1
Name: 19, dtype: object

>  <hbond:VAL:102>  (21) 
hbond:VAL:102    NaN
hbond:VAL:102     -1
Name: 19, dtype: object

>  <hbond:GLY:103>  (21) 
hbond:GLY:103    NaN
hbond:GLY:103     -1
Name: 19, dtype: object

>  <halogenbond:GLY:103>  (21) 
halogenbond:GLY:103    NaN
halogenbond:GLY:103     -1
Name: 19, dtype: object

>  <hbond:HIS:104>  (21) 
hbond:HIS:104    NaN
hbond:HIS:104     -1
Name: 19, dtype: object

>  <saltbridge:HIS:104>  (21) 
saltbridge:HIS:104    NaN
saltbridge:HIS:104     -1
Name: 19, dtype: object

>  <pication:HIS:104>  (21) 
pication:HIS:104    NaN
pication:HIS:104     -1
Name: 19, dtype: object

>  <halogenbond:HIS:104>  (21) 
halogenbond:HIS:104    NaN
halogenbond:HIS:104     -1
Name: 19, dtype: object

>  <hydroph_interaction:HIS:104>  (21) 
hydroph_interaction:HIS:104    NaN
hydroph_interaction:HIS:104     -1
Name: 19, dtype: object

>  <pistack:HIS:104>  (21) 
pistack:HIS:104    NaN
pistack:HIS:104     -1
Name: 19, dtype: object

>  <halogenbond:SER:105>  (21) 
halogenbond:SER:105    0.0
halogenbond:SER:105      0
Name: 19, dtype: object

>  <hbond:SER:105>  (21) 
hbond:SER:105    0.0
hbond:SER:105      0
Name: 19, dtype: object

>  <hbond:GLU:106>  (21) 
hbond:GLU:106    0.0
hbond:GLU:106      0
Name: 19, dtype: object

>  <hydroph_interaction:GLU:106>  (21) 
hydroph_interaction:GLU:106    NaN
hydroph_interaction:GLU:106     -1
Name: 19, dtype: object

>  <saltbridge:GLU:106>  (21) 
saltbridge:GLU:106    NaN
saltbridge:GLU:106     -1
Name: 19, dtype: object

>  <halogenbond:GLU:106>  (21) 
halogenbond:GLU:106    NaN
halogenbond:GLU:106     -1
Name: 19, dtype: object

>  <hydroph_interaction:PRO:107>  (21) 
hydroph_interaction:PRO:107    0
hydroph_interaction:PRO:107    0
Name: 19, dtype: object

>  <hbond:PRO:107>  (21) 
hbond:PRO:107    0.0
hbond:PRO:107      0
Name: 19, dtype: object

>  <halogenbond:PRO:107>  (21) 
halogenbond:PRO:107    0.0
halogenbond:PRO:107      0
Name: 19, dtype: object

>  <hbond:GLY:108>  (21) 
hbond:GLY:108    NaN
hbond:GLY:108     -1
Name: 19, dtype: object

>  <halogenbond:GLY:108>  (21) 
halogenbond:GLY:108    NaN
halogenbond:GLY:108     -1
Name: 19, dtype: object

>  <hbond:ASP:109>  (21) 
hbond:ASP:109    NaN
hbond:ASP:109     -1
Name: 19, dtype: object

>  <hydroph_interaction:ASP:109>  (21) 
hydroph_interaction:ASP:109    NaN
hydroph_interaction:ASP:109     -1
Name: 19, dtype: object

>  <saltbridge:ASP:109>  (21) 
saltbridge:ASP:109    NaN
saltbridge:ASP:109     -1
Name: 19, dtype: object

>  <halogenbond:CYS:110>  (21) 
halogenbond:CYS:110    0.0
halogenbond:CYS:110      0
Name: 19, dtype: object

>  <hbond:CYS:110>  (21) 
hbond:CYS:110    NaN
hbond:CYS:110     -1
Name: 19, dtype: object

>  <hbond:GLY:111>  (21) 
hbond:GLY:111    NaN
hbond:GLY:111     -1
Name: 19, dtype: object

>  <hbond:GLY:112>  (21) 
hbond:GLY:112    NaN
hbond:GLY:112     -1
Name: 19, dtype: object

>  <hbond:ILE:113>  (21) 
hbond:ILE:113    NaN
hbond:ILE:113     -1
Name: 19, dtype: object

>  <hydroph_interaction:LEU:114>  (21) 
hydroph_interaction:LEU:114    NaN
hydroph_interaction:LEU:114     -1
Name: 19, dtype: object

>  <hbond:LEU:114>  (21) 
hbond:LEU:114    NaN
hbond:LEU:114     -1
Name: 19, dtype: object

>  <hydroph_interaction:ILE:123>  (21) 
hydroph_interaction:ILE:123    NaN
hydroph_interaction:ILE:123     -1
Name: 19, dtype: object

>  <hbond:ILE:123>  (21) 
hbond:ILE:123    NaN
hbond:ILE:123     -1
Name: 19, dtype: object

>  <hydroph_interaction:VAL:124>  (21) 
hydroph_interaction:VAL:124    0.0
hydroph_interaction:VAL:124      0
Name: 19, dtype: object

>  <hbond:VAL:124>  (21) 
hbond:VAL:124    NaN
hbond:VAL:124     -1
Name: 19, dtype: object

>  <halogenbond:VAL:124>  (21) 
halogenbond:VAL:124    NaN
halogenbond:VAL:124     -1
Name: 19, dtype: object

>  <hbond:SER:125>  (21) 
hbond:SER:125    2
hbond:SER:125    2
Name: 19, dtype: object

>  <halogenbond:SER:125>  (21) 
halogenbond:SER:125    NaN
halogenbond:SER:125     -1
Name: 19, dtype: object

>  <hydroph_interaction:THR:126>  (21) 
hydroph_interaction:THR:126    0.0
hydroph_interaction:THR:126      0
Name: 19, dtype: object

>  <hbond:THR:126>  (21) 
hbond:THR:126    NaN
hbond:THR:126     -1
Name: 19, dtype: object

>  <halogenbond:THR:126>  (21) 
halogenbond:THR:126    NaN
halogenbond:THR:126     -1
Name: 19, dtype: object

>  <hbond:GLY:127>  (21) 
hbond:GLY:127    0
hbond:GLY:127    0
Name: 19, dtype: object

>  <halogenbond:GLY:127>  (21) 
halogenbond:GLY:127    NaN
halogenbond:GLY:127     -1
Name: 19, dtype: object

>  <hydroph_interaction:GLY:127>  (21) 
hydroph_interaction:GLY:127    NaN
hydroph_interaction:GLY:127     -1
Name: 19, dtype: object

>  <hbond:GLY:128>  (21) 
hbond:GLY:128    NaN
hbond:GLY:128     -1
Name: 19, dtype: object

>  <halogenbond:GLY:128>  (21) 
halogenbond:GLY:128    NaN
halogenbond:GLY:128     -1
Name: 19, dtype: object

>  <hydroph_interaction:GLY:128>  (21) 
hydroph_interaction:GLY:128    NaN
hydroph_interaction:GLY:128     -1
Name: 19, dtype: object

>  <hbond:ASN:129>  (21) 
hbond:ASN:129    NaN
hbond:ASN:129     -1
Name: 19, dtype: object

>  <hydroph_interaction:ASN:129>  (21) 
hydroph_interaction:ASN:129    NaN
hydroph_interaction:ASN:129     -1
Name: 19, dtype: object

>  <halogenbond:ASN:129>  (21) 
halogenbond:ASN:129    NaN
halogenbond:ASN:129     -1
Name: 19, dtype: object

>  <hbond:GLY:130>  (21) 
hbond:GLY:130    NaN
hbond:GLY:130     -1
Name: 19, dtype: object

>  <hbond:LEU:131>  (21) 
hbond:LEU:131    NaN
hbond:LEU:131     -1
Name: 19, dtype: object

>  <hydroph_interaction:LEU:131>  (21) 
hydroph_interaction:LEU:131    NaN
hydroph_interaction:LEU:131     -1
Name: 19, dtype: object

>  <halogenbond:LEU:131>  (21) 
halogenbond:LEU:131    NaN
halogenbond:LEU:131     -1
Name: 19, dtype: object

>  <hydroph_interaction:VAL:132>  (21) 
hydroph_interaction:VAL:132    NaN
hydroph_interaction:VAL:132     -1
Name: 19, dtype: object

>  <hbond:VAL:132>  (21) 
hbond:VAL:132    NaN
hbond:VAL:132     -1
Name: 19, dtype: object

>  <hbond:GLY:133>  (21) 
hbond:GLY:133    NaN
hbond:GLY:133     -1
Name: 19, dtype: object

>  <halogenbond:GLY:133>  (21) 
halogenbond:GLY:133    NaN
halogenbond:GLY:133     -1
Name: 19, dtype: object

>  <hydroph_interaction:PHE:134>  (21) 
hydroph_interaction:PHE:134    NaN
hydroph_interaction:PHE:134     -1
Name: 19, dtype: object

>  <hbond:PHE:134>  (21) 
hbond:PHE:134    NaN
hbond:PHE:134     -1
Name: 19, dtype: object

>  <pistack:PHE:134>  (21) 
pistack:PHE:134    NaN
pistack:PHE:134     -1
Name: 19, dtype: object

>  <pication:PHE:134>  (21) 
pication:PHE:134    NaN
pication:PHE:134     -1
Name: 19, dtype: object

>  <halogenbond:PHE:134>  (21) 
halogenbond:PHE:134    NaN
halogenbond:PHE:134     -1
Name: 19, dtype: object

>  <hydroph_interaction:ALA:135>  (21) 
hydroph_interaction:ALA:135    NaN
hydroph_interaction:ALA:135     -1
Name: 19, dtype: object

>  <hbond:ALA:135>  (21) 
hbond:ALA:135    NaN
hbond:ALA:135     -1
Name: 19, dtype: object

$$$$
Z2763288475
     RDKit          3D

 13 13  0  0  0  0  0  0  0  0999 V2000
   29.0292   13.7910    8.8540 C   0  0  0  0  0  0  0  0  0  0  0  0
   29.8396   13.6541    7.5939 C   0  0  0  0  0  0  0  0  0  0  0  0
   29.3677   13.9024    6.4935 O   0  0  0  0  0  0  0  0  0  0  0  0
   31.1171   13.2140    7.8272 N   0  0  0  0  0  0  0  0  0  0  0  0
   31.3309   11.8835    7.6303 C   0  0  0  0  0  0  0  0  0  0  0  0
   30.5766   10.8957    8.2237 C   0  0  0  0  0  0  0  0  0  0  0  0
   30.9908    9.5334    7.8659 C   0  0  0  0  0  0  0  0  0  0  0  0
   30.3001    8.3645    8.4315 C   0  0  0  0  0  0  0  0  0  0  0  0
   32.0460    9.2982    6.9857 C   0  0  0  0  0  0  0  0  0  0  0  0
   32.7618   10.3321    6.4120 C   0  0  0  0  0  0  0  0  0  0  0  0
   33.9063   10.0149    5.4476 C   0  0  0  0  0  0  0  0  0  0  0  0
   32.3930   11.6181    6.7529 C   0  0  0  0  0  0  0  0  0  0  0  0
   33.0511   12.7191    6.2508 O   0  0  0  0  0  0  0  0  0  0  0  0
  1  2  1  0
  2  3  2  0
  2  4  1  0
  4  5  1  0
  5  6  2  0
  6  7  1  0
  7  8  1  0
  7  9  2  0
  9 10  1  0
 10 11  1  0
 10 12  2  0
 12 13  1  0
 12  5  1  0
A    1
 C1 
A    2
 C2 
A    3
 O1 
A    4
 N1 
A    5
 C3 
A    6
 C4 
A    7
 C5 
A    8
 C6 
A    9
 C7 
A   10
 C8 
A   11
 C9 
A   12
 C10
A   13
 O2 
M  END
>  <ref_pdb>  (22) 
Ax0310a

>  <ref_mols>  (22) 
Ax0451a,Ax0732a

>  <original SMILES>  (22) 
CC(=O)Nc1cc(C)cc(C)c1O

>  <rationale>  (22) 
info halogenbond:G127+D39+A86+E85+Q95+E106+T126+H104+Y64+C65+S87+N129+F83+R93+L131+I82+G128+P91+N19+H21+V84+G133+Y90+Y89+H97+L81+F134+L98+R20+G103+S66+S67+S7+G108+R38+V124+M99+S36; hbond:S87+Y90+Q95+T126+A86+C110+E85+G108+G103+G128+G130+L131+N129+N19+H104+R68+V124+R93+P91+F83+S67+S7+S66+G112+G133+V132+R20+Y89+S77+A135+Y63+A92+A101+M99+F134+L100+I82+Y64+S36+L98+V84+L81+Y94+S80+R38+S37+V102+G8+I123+G111+I113+L114+C65+L22+S96; hydroph_interaction:V124+H21+L22+E85+E106+N129+D39+N19+L40+I123+A135+Q95+I82+L100+L98+L131+F83+R93+V132+Y63+F134+H104+R20+A86+V74+P91+A101+F76+M99+L114+A92+Y94+R68+Y72+Y64+V18+V102+W28+G127+G128+L81; pication:H104+R93+Y63+F134+Y90+R68+F83+R20; pistack:H21+Y89+Y90+H104+F134+Y63+F83+Y94; saltbridge:R93+H104+E106+D109+E85+E88+R68+R20; 

>  <intxn_cluster>  (22) 
-1

>  <intxn_cluster_rank>  (22) 
-1

>  <N_interactions>  (22) 
3

>  <∆∆G>  (22) 
-11.102343

>  <$/mg>  (22) 
0.0

>  <comRMSD>  (22) 
0.46723

>  <N_rotatable_bonds>  (22) 
5

>  <deep_P1_sidechain>  (22) 
nan

>  <farthest_distance_to_substrate>  (22) 
2.23773

>  <hbond:SER:7>  (22) 
hbond:SER:7    NaN
hbond:SER:7     -1
Name: 20, dtype: object

>  <halogenbond:SER:7>  (22) 
halogenbond:SER:7    NaN
halogenbond:SER:7     -1
Name: 20, dtype: object

>  <hbond:GLY:8>  (22) 
hbond:GLY:8    NaN
hbond:GLY:8     -1
Name: 20, dtype: object

>  <hydroph_interaction:VAL:18>  (22) 
hydroph_interaction:VAL:18    NaN
hydroph_interaction:VAL:18     -1
Name: 20, dtype: object

>  <hbond:ASN:19>  (22) 
hbond:ASN:19    NaN
hbond:ASN:19     -1
Name: 20, dtype: object

>  <hydroph_interaction:ASN:19>  (22) 
hydroph_interaction:ASN:19    NaN
hydroph_interaction:ASN:19     -1
Name: 20, dtype: object

>  <halogenbond:ASN:19>  (22) 
halogenbond:ASN:19    NaN
halogenbond:ASN:19     -1
Name: 20, dtype: object

>  <hbond:ARG:20>  (22) 
hbond:ARG:20    NaN
hbond:ARG:20     -1
Name: 20, dtype: object

>  <hydroph_interaction:ARG:20>  (22) 
hydroph_interaction:ARG:20    NaN
hydroph_interaction:ARG:20     -1
Name: 20, dtype: object

>  <saltbridge:ARG:20>  (22) 
saltbridge:ARG:20    NaN
saltbridge:ARG:20     -1
Name: 20, dtype: object

>  <halogenbond:ARG:20>  (22) 
halogenbond:ARG:20    NaN
halogenbond:ARG:20     -1
Name: 20, dtype: object

>  <pication:ARG:20>  (22) 
pication:ARG:20    NaN
pication:ARG:20     -1
Name: 20, dtype: object

>  <hbond:HIS:21>  (22) 
hbond:HIS:21    0.0
hbond:HIS:21      0
Name: 20, dtype: object

>  <hydroph_interaction:HIS:21>  (22) 
hydroph_interaction:HIS:21    NaN
hydroph_interaction:HIS:21     -1
Name: 20, dtype: object

>  <pistack:HIS:21>  (22) 
pistack:HIS:21    NaN
pistack:HIS:21     -1
Name: 20, dtype: object

>  <pication:HIS:21>  (22) 
pication:HIS:21    0.0
pication:HIS:21      0
Name: 20, dtype: object

>  <saltbridge:HIS:21>  (22) 
saltbridge:HIS:21    0.0
saltbridge:HIS:21      0
Name: 20, dtype: object

>  <halogenbond:HIS:21>  (22) 
halogenbond:HIS:21    NaN
halogenbond:HIS:21     -1
Name: 20, dtype: object

>  <hydroph_interaction:LEU:22>  (22) 
hydroph_interaction:LEU:22    NaN
hydroph_interaction:LEU:22     -1
Name: 20, dtype: object

>  <hbond:LEU:22>  (22) 
hbond:LEU:22    NaN
hbond:LEU:22     -1
Name: 20, dtype: object

>  <hydroph_interaction:TRP:28>  (22) 
hydroph_interaction:TRP:28    NaN
hydroph_interaction:TRP:28     -1
Name: 20, dtype: object

>  <hbond:SER:36>  (22) 
hbond:SER:36    NaN
hbond:SER:36     -1
Name: 20, dtype: object

>  <halogenbond:SER:36>  (22) 
halogenbond:SER:36    NaN
halogenbond:SER:36     -1
Name: 20, dtype: object

>  <hbond:SER:37>  (22) 
hbond:SER:37    NaN
hbond:SER:37     -1
Name: 20, dtype: object

>  <hbond:ARG:38>  (22) 
hbond:ARG:38    NaN
hbond:ARG:38     -1
Name: 20, dtype: object

>  <halogenbond:ARG:38>  (22) 
halogenbond:ARG:38    NaN
halogenbond:ARG:38     -1
Name: 20, dtype: object

>  <saltbridge:ASP:39>  (22) 
saltbridge:ASP:39    0.0
saltbridge:ASP:39      0
Name: 20, dtype: object

>  <halogenbond:ASP:39>  (22) 
halogenbond:ASP:39    NaN
halogenbond:ASP:39     -1
Name: 20, dtype: object

>  <hbond:ASP:39>  (22) 
hbond:ASP:39    0.0
hbond:ASP:39      0
Name: 20, dtype: object

>  <hydroph_interaction:ASP:39>  (22) 
hydroph_interaction:ASP:39    NaN
hydroph_interaction:ASP:39     -1
Name: 20, dtype: object

>  <hydroph_interaction:LEU:40>  (22) 
hydroph_interaction:LEU:40    NaN
hydroph_interaction:LEU:40     -1
Name: 20, dtype: object

>  <hydroph_interaction:TYR:63>  (22) 
hydroph_interaction:TYR:63    NaN
hydroph_interaction:TYR:63     -1
Name: 20, dtype: object

>  <hbond:TYR:63>  (22) 
hbond:TYR:63    NaN
hbond:TYR:63     -1
Name: 20, dtype: object

>  <pistack:TYR:63>  (22) 
pistack:TYR:63    NaN
pistack:TYR:63     -1
Name: 20, dtype: object

>  <pication:TYR:63>  (22) 
pication:TYR:63    NaN
pication:TYR:63     -1
Name: 20, dtype: object

>  <halogenbond:TYR:64>  (22) 
halogenbond:TYR:64    NaN
halogenbond:TYR:64     -1
Name: 20, dtype: object

>  <hbond:TYR:64>  (22) 
hbond:TYR:64    NaN
hbond:TYR:64     -1
Name: 20, dtype: object

>  <hydroph_interaction:TYR:64>  (22) 
hydroph_interaction:TYR:64    NaN
hydroph_interaction:TYR:64     -1
Name: 20, dtype: object

>  <halogenbond:CYS:65>  (22) 
halogenbond:CYS:65    NaN
halogenbond:CYS:65     -1
Name: 20, dtype: object

>  <hbond:CYS:65>  (22) 
hbond:CYS:65    NaN
hbond:CYS:65     -1
Name: 20, dtype: object

>  <hbond:SER:66>  (22) 
hbond:SER:66    NaN
hbond:SER:66     -1
Name: 20, dtype: object

>  <halogenbond:SER:66>  (22) 
halogenbond:SER:66    NaN
halogenbond:SER:66     -1
Name: 20, dtype: object

>  <hbond:SER:67>  (22) 
hbond:SER:67    NaN
hbond:SER:67     -1
Name: 20, dtype: object

>  <halogenbond:SER:67>  (22) 
halogenbond:SER:67    NaN
halogenbond:SER:67     -1
Name: 20, dtype: object

>  <hbond:ARG:68>  (22) 
hbond:ARG:68    NaN
hbond:ARG:68     -1
Name: 20, dtype: object

>  <saltbridge:ARG:68>  (22) 
saltbridge:ARG:68    NaN
saltbridge:ARG:68     -1
Name: 20, dtype: object

>  <hydroph_interaction:ARG:68>  (22) 
hydroph_interaction:ARG:68    NaN
hydroph_interaction:ARG:68     -1
Name: 20, dtype: object

>  <pication:ARG:68>  (22) 
pication:ARG:68    NaN
pication:ARG:68     -1
Name: 20, dtype: object

>  <hydroph_interaction:TYR:72>  (22) 
hydroph_interaction:TYR:72    NaN
hydroph_interaction:TYR:72     -1
Name: 20, dtype: object

>  <hydroph_interaction:VAL:74>  (22) 
hydroph_interaction:VAL:74    NaN
hydroph_interaction:VAL:74     -1
Name: 20, dtype: object

>  <hydroph_interaction:PHE:76>  (22) 
hydroph_interaction:PHE:76    NaN
hydroph_interaction:PHE:76     -1
Name: 20, dtype: object

>  <hbond:SER:77>  (22) 
hbond:SER:77    NaN
hbond:SER:77     -1
Name: 20, dtype: object

>  <hbond:SER:80>  (22) 
hbond:SER:80    NaN
hbond:SER:80     -1
Name: 20, dtype: object

>  <hbond:LEU:81>  (22) 
hbond:LEU:81    NaN
hbond:LEU:81     -1
Name: 20, dtype: object

>  <halogenbond:LEU:81>  (22) 
halogenbond:LEU:81    NaN
halogenbond:LEU:81     -1
Name: 20, dtype: object

>  <hydroph_interaction:LEU:81>  (22) 
hydroph_interaction:LEU:81    NaN
hydroph_interaction:LEU:81     -1
Name: 20, dtype: object

>  <hydroph_interaction:ILE:82>  (22) 
hydroph_interaction:ILE:82    NaN
hydroph_interaction:ILE:82     -1
Name: 20, dtype: object

>  <halogenbond:ILE:82>  (22) 
halogenbond:ILE:82    NaN
halogenbond:ILE:82     -1
Name: 20, dtype: object

>  <hbond:ILE:82>  (22) 
hbond:ILE:82    NaN
hbond:ILE:82     -1
Name: 20, dtype: object

>  <hbond:PHE:83>  (22) 
hbond:PHE:83    NaN
hbond:PHE:83     -1
Name: 20, dtype: object

>  <hydroph_interaction:PHE:83>  (22) 
hydroph_interaction:PHE:83    NaN
hydroph_interaction:PHE:83     -1
Name: 20, dtype: object

>  <halogenbond:PHE:83>  (22) 
halogenbond:PHE:83    NaN
halogenbond:PHE:83     -1
Name: 20, dtype: object

>  <pistack:PHE:83>  (22) 
pistack:PHE:83    NaN
pistack:PHE:83     -1
Name: 20, dtype: object

>  <pication:PHE:83>  (22) 
pication:PHE:83    NaN
pication:PHE:83     -1
Name: 20, dtype: object

>  <hydroph_interaction:VAL:84>  (22) 
hydroph_interaction:VAL:84    0.0
hydroph_interaction:VAL:84      0
Name: 20, dtype: object

>  <halogenbond:VAL:84>  (22) 
halogenbond:VAL:84    NaN
halogenbond:VAL:84     -1
Name: 20, dtype: object

>  <hbond:VAL:84>  (22) 
hbond:VAL:84    NaN
hbond:VAL:84     -1
Name: 20, dtype: object

>  <hydroph_interaction:GLU:85>  (22) 
hydroph_interaction:GLU:85    NaN
hydroph_interaction:GLU:85     -1
Name: 20, dtype: object

>  <hbond:GLU:85>  (22) 
hbond:GLU:85    NaN
hbond:GLU:85     -1
Name: 20, dtype: object

>  <halogenbond:GLU:85>  (22) 
halogenbond:GLU:85    NaN
halogenbond:GLU:85     -1
Name: 20, dtype: object

>  <saltbridge:GLU:85>  (22) 
saltbridge:GLU:85    NaN
saltbridge:GLU:85     -1
Name: 20, dtype: object

>  <halogenbond:ALA:86>  (22) 
halogenbond:ALA:86    NaN
halogenbond:ALA:86     -1
Name: 20, dtype: object

>  <hbond:ALA:86>  (22) 
hbond:ALA:86    NaN
hbond:ALA:86     -1
Name: 20, dtype: object

>  <hydroph_interaction:ALA:86>  (22) 
hydroph_interaction:ALA:86    NaN
hydroph_interaction:ALA:86     -1
Name: 20, dtype: object

>  <hbond:SER:87>  (22) 
hbond:SER:87    2
hbond:SER:87    2
Name: 20, dtype: object

>  <halogenbond:SER:87>  (22) 
halogenbond:SER:87    NaN
halogenbond:SER:87     -1
Name: 20, dtype: object

>  <hbond:GLU:88>  (22) 
hbond:GLU:88    0.0
hbond:GLU:88      0
Name: 20, dtype: object

>  <hydroph_interaction:GLU:88>  (22) 
hydroph_interaction:GLU:88    0.0
hydroph_interaction:GLU:88      0
Name: 20, dtype: object

>  <halogenbond:GLU:88>  (22) 
halogenbond:GLU:88    0.0
halogenbond:GLU:88      0
Name: 20, dtype: object

>  <saltbridge:GLU:88>  (22) 
saltbridge:GLU:88    NaN
saltbridge:GLU:88     -1
Name: 20, dtype: object

>  <hydroph_interaction:TYR:89>  (22) 
hydroph_interaction:TYR:89    0.0
hydroph_interaction:TYR:89      0
Name: 20, dtype: object

>  <pistack:TYR:89>  (22) 
pistack:TYR:89    NaN
pistack:TYR:89     -1
Name: 20, dtype: object

>  <hbond:TYR:89>  (22) 
hbond:TYR:89    NaN
hbond:TYR:89     -1
Name: 20, dtype: object

>  <halogenbond:TYR:89>  (22) 
halogenbond:TYR:89    NaN
halogenbond:TYR:89     -1
Name: 20, dtype: object

>  <hydroph_interaction:TYR:90>  (22) 
hydroph_interaction:TYR:90    0.0
hydroph_interaction:TYR:90      0
Name: 20, dtype: object

>  <hbond:TYR:90>  (22) 
hbond:TYR:90    NaN
hbond:TYR:90     -1
Name: 20, dtype: object

>  <pistack:TYR:90>  (22) 
pistack:TYR:90    NaN
pistack:TYR:90     -1
Name: 20, dtype: object

>  <halogenbond:TYR:90>  (22) 
halogenbond:TYR:90    NaN
halogenbond:TYR:90     -1
Name: 20, dtype: object

>  <pication:TYR:90>  (22) 
pication:TYR:90    NaN
pication:TYR:90     -1
Name: 20, dtype: object

>  <hbond:PRO:91>  (22) 
hbond:PRO:91    NaN
hbond:PRO:91     -1
Name: 20, dtype: object

>  <hydroph_interaction:PRO:91>  (22) 
hydroph_interaction:PRO:91    NaN
hydroph_interaction:PRO:91     -1
Name: 20, dtype: object

>  <halogenbond:PRO:91>  (22) 
halogenbond:PRO:91    NaN
halogenbond:PRO:91     -1
Name: 20, dtype: object

>  <hbond:ALA:92>  (22) 
hbond:ALA:92    NaN
hbond:ALA:92     -1
Name: 20, dtype: object

>  <hydroph_interaction:ALA:92>  (22) 
hydroph_interaction:ALA:92    NaN
hydroph_interaction:ALA:92     -1
Name: 20, dtype: object

>  <saltbridge:ARG:93>  (22) 
saltbridge:ARG:93    NaN
saltbridge:ARG:93     -1
Name: 20, dtype: object

>  <hbond:ARG:93>  (22) 
hbond:ARG:93    NaN
hbond:ARG:93     -1
Name: 20, dtype: object

>  <hydroph_interaction:ARG:93>  (22) 
hydroph_interaction:ARG:93    NaN
hydroph_interaction:ARG:93     -1
Name: 20, dtype: object

>  <halogenbond:ARG:93>  (22) 
halogenbond:ARG:93    NaN
halogenbond:ARG:93     -1
Name: 20, dtype: object

>  <pication:ARG:93>  (22) 
pication:ARG:93    NaN
pication:ARG:93     -1
Name: 20, dtype: object

>  <hydroph_interaction:TYR:94>  (22) 
hydroph_interaction:TYR:94    NaN
hydroph_interaction:TYR:94     -1
Name: 20, dtype: object

>  <pistack:TYR:94>  (22) 
pistack:TYR:94    NaN
pistack:TYR:94     -1
Name: 20, dtype: object

>  <hbond:TYR:94>  (22) 
hbond:TYR:94    NaN
hbond:TYR:94     -1
Name: 20, dtype: object

>  <hbond:GLN:95>  (22) 
hbond:GLN:95    NaN
hbond:GLN:95     -1
Name: 20, dtype: object

>  <hydroph_interaction:GLN:95>  (22) 
hydroph_interaction:GLN:95    NaN
hydroph_interaction:GLN:95     -1
Name: 20, dtype: object

>  <halogenbond:GLN:95>  (22) 
halogenbond:GLN:95    NaN
halogenbond:GLN:95     -1
Name: 20, dtype: object

>  <hbond:SER:96>  (22) 
hbond:SER:96    NaN
hbond:SER:96     -1
Name: 20, dtype: object

>  <halogenbond:HIS:97>  (22) 
halogenbond:HIS:97    NaN
halogenbond:HIS:97     -1
Name: 20, dtype: object

>  <hydroph_interaction:LEU:98>  (22) 
hydroph_interaction:LEU:98    NaN
hydroph_interaction:LEU:98     -1
Name: 20, dtype: object

>  <hbond:LEU:98>  (22) 
hbond:LEU:98    NaN
hbond:LEU:98     -1
Name: 20, dtype: object

>  <halogenbond:LEU:98>  (22) 
halogenbond:LEU:98    NaN
halogenbond:LEU:98     -1
Name: 20, dtype: object

>  <hbond:MET:99>  (22) 
hbond:MET:99    NaN
hbond:MET:99     -1
Name: 20, dtype: object

>  <hydroph_interaction:MET:99>  (22) 
hydroph_interaction:MET:99    NaN
hydroph_interaction:MET:99     -1
Name: 20, dtype: object

>  <halogenbond:MET:99>  (22) 
halogenbond:MET:99    NaN
halogenbond:MET:99     -1
Name: 20, dtype: object

>  <hydroph_interaction:LEU:100>  (22) 
hydroph_interaction:LEU:100    NaN
hydroph_interaction:LEU:100     -1
Name: 20, dtype: object

>  <hbond:LEU:100>  (22) 
hbond:LEU:100    NaN
hbond:LEU:100     -1
Name: 20, dtype: object

>  <hbond:ALA:101>  (22) 
hbond:ALA:101    NaN
hbond:ALA:101     -1
Name: 20, dtype: object

>  <hydroph_interaction:ALA:101>  (22) 
hydroph_interaction:ALA:101    NaN
hydroph_interaction:ALA:101     -1
Name: 20, dtype: object

>  <hydroph_interaction:VAL:102>  (22) 
hydroph_interaction:VAL:102    NaN
hydroph_interaction:VAL:102     -1
Name: 20, dtype: object

>  <hbond:VAL:102>  (22) 
hbond:VAL:102    NaN
hbond:VAL:102     -1
Name: 20, dtype: object

>  <hbond:GLY:103>  (22) 
hbond:GLY:103    NaN
hbond:GLY:103     -1
Name: 20, dtype: object

>  <halogenbond:GLY:103>  (22) 
halogenbond:GLY:103    NaN
halogenbond:GLY:103     -1
Name: 20, dtype: object

>  <hbond:HIS:104>  (22) 
hbond:HIS:104    NaN
hbond:HIS:104     -1
Name: 20, dtype: object

>  <saltbridge:HIS:104>  (22) 
saltbridge:HIS:104    NaN
saltbridge:HIS:104     -1
Name: 20, dtype: object

>  <pication:HIS:104>  (22) 
pication:HIS:104    NaN
pication:HIS:104     -1
Name: 20, dtype: object

>  <halogenbond:HIS:104>  (22) 
halogenbond:HIS:104    NaN
halogenbond:HIS:104     -1
Name: 20, dtype: object

>  <hydroph_interaction:HIS:104>  (22) 
hydroph_interaction:HIS:104    NaN
hydroph_interaction:HIS:104     -1
Name: 20, dtype: object

>  <pistack:HIS:104>  (22) 
pistack:HIS:104    NaN
pistack:HIS:104     -1
Name: 20, dtype: object

>  <halogenbond:SER:105>  (22) 
halogenbond:SER:105    0.0
halogenbond:SER:105      0
Name: 20, dtype: object

>  <hbond:SER:105>  (22) 
hbond:SER:105    0.0
hbond:SER:105      0
Name: 20, dtype: object

>  <hbond:GLU:106>  (22) 
hbond:GLU:106    0.0
hbond:GLU:106      0
Name: 20, dtype: object

>  <hydroph_interaction:GLU:106>  (22) 
hydroph_interaction:GLU:106    NaN
hydroph_interaction:GLU:106     -1
Name: 20, dtype: object

>  <saltbridge:GLU:106>  (22) 
saltbridge:GLU:106    NaN
saltbridge:GLU:106     -1
Name: 20, dtype: object

>  <halogenbond:GLU:106>  (22) 
halogenbond:GLU:106    NaN
halogenbond:GLU:106     -1
Name: 20, dtype: object

>  <hydroph_interaction:PRO:107>  (22) 
hydroph_interaction:PRO:107    0
hydroph_interaction:PRO:107    0
Name: 20, dtype: object

>  <hbond:PRO:107>  (22) 
hbond:PRO:107    0.0
hbond:PRO:107      0
Name: 20, dtype: object

>  <halogenbond:PRO:107>  (22) 
halogenbond:PRO:107    0.0
halogenbond:PRO:107      0
Name: 20, dtype: object

>  <hbond:GLY:108>  (22) 
hbond:GLY:108    NaN
hbond:GLY:108     -1
Name: 20, dtype: object

>  <halogenbond:GLY:108>  (22) 
halogenbond:GLY:108    NaN
halogenbond:GLY:108     -1
Name: 20, dtype: object

>  <hbond:ASP:109>  (22) 
hbond:ASP:109    0.0
hbond:ASP:109      0
Name: 20, dtype: object

>  <hydroph_interaction:ASP:109>  (22) 
hydroph_interaction:ASP:109    0.0
hydroph_interaction:ASP:109      0
Name: 20, dtype: object

>  <saltbridge:ASP:109>  (22) 
saltbridge:ASP:109    NaN
saltbridge:ASP:109     -1
Name: 20, dtype: object

>  <halogenbond:CYS:110>  (22) 
halogenbond:CYS:110    0.0
halogenbond:CYS:110      0
Name: 20, dtype: object

>  <hbond:CYS:110>  (22) 
hbond:CYS:110    NaN
hbond:CYS:110     -1
Name: 20, dtype: object

>  <hbond:GLY:111>  (22) 
hbond:GLY:111    NaN
hbond:GLY:111     -1
Name: 20, dtype: object

>  <hbond:GLY:112>  (22) 
hbond:GLY:112    NaN
hbond:GLY:112     -1
Name: 20, dtype: object

>  <hbond:ILE:113>  (22) 
hbond:ILE:113    NaN
hbond:ILE:113     -1
Name: 20, dtype: object

>  <hydroph_interaction:LEU:114>  (22) 
hydroph_interaction:LEU:114    NaN
hydroph_interaction:LEU:114     -1
Name: 20, dtype: object

>  <hbond:LEU:114>  (22) 
hbond:LEU:114    NaN
hbond:LEU:114     -1
Name: 20, dtype: object

>  <hydroph_interaction:ILE:123>  (22) 
hydroph_interaction:ILE:123    NaN
hydroph_interaction:ILE:123     -1
Name: 20, dtype: object

>  <hbond:ILE:123>  (22) 
hbond:ILE:123    NaN
hbond:ILE:123     -1
Name: 20, dtype: object

>  <hydroph_interaction:VAL:124>  (22) 
hydroph_interaction:VAL:124    1.0
hydroph_interaction:VAL:124      1
Name: 20, dtype: object

>  <hbond:VAL:124>  (22) 
hbond:VAL:124    NaN
hbond:VAL:124     -1
Name: 20, dtype: object

>  <halogenbond:VAL:124>  (22) 
halogenbond:VAL:124    NaN
halogenbond:VAL:124     -1
Name: 20, dtype: object

>  <hbond:SER:125>  (22) 
hbond:SER:125    0
hbond:SER:125    0
Name: 20, dtype: object

>  <halogenbond:SER:125>  (22) 
halogenbond:SER:125    0.0
halogenbond:SER:125      0
Name: 20, dtype: object

>  <hydroph_interaction:THR:126>  (22) 
hydroph_interaction:THR:126    0.0
hydroph_interaction:THR:126      0
Name: 20, dtype: object

>  <hbond:THR:126>  (22) 
hbond:THR:126    NaN
hbond:THR:126     -1
Name: 20, dtype: object

>  <halogenbond:THR:126>  (22) 
halogenbond:THR:126    NaN
halogenbond:THR:126     -1
Name: 20, dtype: object

>  <hbond:GLY:127>  (22) 
hbond:GLY:127    0
hbond:GLY:127    0
Name: 20, dtype: object

>  <halogenbond:GLY:127>  (22) 
halogenbond:GLY:127    NaN
halogenbond:GLY:127     -1
Name: 20, dtype: object

>  <hydroph_interaction:GLY:127>  (22) 
hydroph_interaction:GLY:127    NaN
hydroph_interaction:GLY:127     -1
Name: 20, dtype: object

>  <hbond:GLY:128>  (22) 
hbond:GLY:128    NaN
hbond:GLY:128     -1
Name: 20, dtype: object

>  <halogenbond:GLY:128>  (22) 
halogenbond:GLY:128    NaN
halogenbond:GLY:128     -1
Name: 20, dtype: object

>  <hydroph_interaction:GLY:128>  (22) 
hydroph_interaction:GLY:128    NaN
hydroph_interaction:GLY:128     -1
Name: 20, dtype: object

>  <hbond:ASN:129>  (22) 
hbond:ASN:129    NaN
hbond:ASN:129     -1
Name: 20, dtype: object

>  <hydroph_interaction:ASN:129>  (22) 
hydroph_interaction:ASN:129    NaN
hydroph_interaction:ASN:129     -1
Name: 20, dtype: object

>  <halogenbond:ASN:129>  (22) 
halogenbond:ASN:129    NaN
halogenbond:ASN:129     -1
Name: 20, dtype: object

>  <hbond:GLY:130>  (22) 
hbond:GLY:130    NaN
hbond:GLY:130     -1
Name: 20, dtype: object

>  <hbond:LEU:131>  (22) 
hbond:LEU:131    NaN
hbond:LEU:131     -1
Name: 20, dtype: object

>  <hydroph_interaction:LEU:131>  (22) 
hydroph_interaction:LEU:131    NaN
hydroph_interaction:LEU:131     -1
Name: 20, dtype: object

>  <halogenbond:LEU:131>  (22) 
halogenbond:LEU:131    NaN
halogenbond:LEU:131     -1
Name: 20, dtype: object

>  <hydroph_interaction:VAL:132>  (22) 
hydroph_interaction:VAL:132    NaN
hydroph_interaction:VAL:132     -1
Name: 20, dtype: object

>  <hbond:VAL:132>  (22) 
hbond:VAL:132    NaN
hbond:VAL:132     -1
Name: 20, dtype: object

>  <hbond:GLY:133>  (22) 
hbond:GLY:133    NaN
hbond:GLY:133     -1
Name: 20, dtype: object

>  <halogenbond:GLY:133>  (22) 
halogenbond:GLY:133    NaN
halogenbond:GLY:133     -1
Name: 20, dtype: object

>  <hydroph_interaction:PHE:134>  (22) 
hydroph_interaction:PHE:134    NaN
hydroph_interaction:PHE:134     -1
Name: 20, dtype: object

>  <hbond:PHE:134>  (22) 
hbond:PHE:134    NaN
hbond:PHE:134     -1
Name: 20, dtype: object

>  <pistack:PHE:134>  (22) 
pistack:PHE:134    NaN
pistack:PHE:134     -1
Name: 20, dtype: object

>  <pication:PHE:134>  (22) 
pication:PHE:134    NaN
pication:PHE:134     -1
Name: 20, dtype: object

>  <halogenbond:PHE:134>  (22) 
halogenbond:PHE:134    NaN
halogenbond:PHE:134     -1
Name: 20, dtype: object

>  <hydroph_interaction:ALA:135>  (22) 
hydroph_interaction:ALA:135    NaN
hydroph_interaction:ALA:135     -1
Name: 20, dtype: object

>  <hbond:ALA:135>  (22) 
hbond:ALA:135    NaN
hbond:ALA:135     -1
Name: 20, dtype: object

$$$$
PV_003102737893
     RDKit          3D

 10 10  0  0  0  0  0  0  0  0999 V2000
   30.5073    8.5549    8.7742 C   0  0  0  0  0  0  0  0  0  0  0  0
   31.0701    9.6578    7.9634 C   0  0  0  0  0  0  0  0  0  0  0  0
   30.6642   10.9323    8.1304 N   0  0  0  0  0  0  0  0  0  0  0  0
   31.3796   11.6835    7.2607 N   0  0  0  0  0  0  0  0  0  0  0  0
   32.2890   11.0175    6.4649 C   0  0  0  0  0  0  0  0  0  0  0  0
   33.1207   11.6040    5.5261 N   0  0  0  0  0  0  0  0  0  0  0  0
   34.2262   11.0325    4.9310 C   0  0  0  0  0  0  0  0  0  0  0  0
   34.0350    9.7053    4.6916 N   0  0  0  0  0  0  0  0  0  0  0  0
   35.2951   11.5468    4.6065 O   0  0  0  0  0  0  0  0  0  0  0  0
   32.2759    9.3621    6.7774 S   0  0  0  0  0  0  0  0  0  0  0  0
  1  2  1  0
  2  3  2  0
  3  4  1  0
  4  5  2  0
  5  6  1  0
  6  7  1  0
  7  8  1  0
  7  9  2  0
  5 10  1  0
 10  2  1  0
A    1
 C1 
A    2
 C2 
A    3
 N1 
A    4
 N2 
A    5
 C3 
A    6
 N3 
A    7
 C4 
A    8
 N4 
A    9
 O1 
A   10
 S1 
M  END
>  <ref_pdb>  (23) 
Ax0310a

>  <ref_mols>  (23) 
Ax0451a,Ax0884a

>  <original SMILES>  (23) 
Cc1nnc(NC(N)=O)s1

>  <rationale>  (23) 
info halogenbond:G127+D39+S125+Q95+E106+T126+P107+H104+Y64+C65+S87+N129+F83+R93+L131+I82+G128+P91+N19+H21+V84+G133+Y90+Y89+H97+L81+F134+L98+R20+G103+S66+S67+S7+G108+R38+V124+M99+S36; hbond:G127+S105+P107+D39+A86+D109+E85+G108+G103+G128+G130+L131+N129+H104+R68+V124+R93+P91+F83+S67+S7+S66+G112+G133+V132+R20+Y89+S77+A135+Y63+A92+A101+M99+F134+L100+I82+Y64+S36+L98+V84+L81+Y94+S80+R38+S37+V102+G8+I123+G111+I113+L114+C65+L22+S96; hydroph_interaction:V124+L22+E85+E106+E88+N129+D39+N19+L40+I123+A135+Q95+I82+L100+L98+L131+F83+R93+V132+Y63+F134+H104+R20+A86+V74+P91+A101+F76+M99+L114+A92+Y94+R68+Y72+Y64+V18+V102+W28+G127+G128+L81; pication:H104+R93+Y63+F134+Y90+R68+F83+R20; pistack:H21+Y89+Y90+H104+F134+Y63+F83+Y94; saltbridge:R93+H104+E106+D109+E85+E88+R68+R20; 

>  <intxn_cluster>  (23) 
-1

>  <intxn_cluster_rank>  (23) 
-1

>  <N_interactions>  (23) 
3

>  <∆∆G>  (23) 
-7.0511

>  <$/mg>  (23) 
163.0

>  <comRMSD>  (23) 
0.619748

>  <N_rotatable_bonds>  (23) 
2

>  <deep_P1_sidechain>  (23) 
nan

>  <farthest_distance_to_substrate>  (23) 
2.928351

>  <hbond:SER:7>  (23) 
hbond:SER:7    NaN
hbond:SER:7     -1
Name: 21, dtype: object

>  <halogenbond:SER:7>  (23) 
halogenbond:SER:7    NaN
halogenbond:SER:7     -1
Name: 21, dtype: object

>  <hbond:GLY:8>  (23) 
hbond:GLY:8    NaN
hbond:GLY:8     -1
Name: 21, dtype: object

>  <hydroph_interaction:VAL:18>  (23) 
hydroph_interaction:VAL:18    NaN
hydroph_interaction:VAL:18     -1
Name: 21, dtype: object

>  <hbond:ASN:19>  (23) 
hbond:ASN:19    0.0
hbond:ASN:19      0
Name: 21, dtype: object

>  <hydroph_interaction:ASN:19>  (23) 
hydroph_interaction:ASN:19    NaN
hydroph_interaction:ASN:19     -1
Name: 21, dtype: object

>  <halogenbond:ASN:19>  (23) 
halogenbond:ASN:19    NaN
halogenbond:ASN:19     -1
Name: 21, dtype: object

>  <hbond:ARG:20>  (23) 
hbond:ARG:20    NaN
hbond:ARG:20     -1
Name: 21, dtype: object

>  <hydroph_interaction:ARG:20>  (23) 
hydroph_interaction:ARG:20    NaN
hydroph_interaction:ARG:20     -1
Name: 21, dtype: object

>  <saltbridge:ARG:20>  (23) 
saltbridge:ARG:20    NaN
saltbridge:ARG:20     -1
Name: 21, dtype: object

>  <halogenbond:ARG:20>  (23) 
halogenbond:ARG:20    NaN
halogenbond:ARG:20     -1
Name: 21, dtype: object

>  <pication:ARG:20>  (23) 
pication:ARG:20    NaN
pication:ARG:20     -1
Name: 21, dtype: object

>  <hbond:HIS:21>  (23) 
hbond:HIS:21    0.0
hbond:HIS:21      0
Name: 21, dtype: object

>  <hydroph_interaction:HIS:21>  (23) 
hydroph_interaction:HIS:21    0.0
hydroph_interaction:HIS:21      0
Name: 21, dtype: object

>  <pistack:HIS:21>  (23) 
pistack:HIS:21    NaN
pistack:HIS:21     -1
Name: 21, dtype: object

>  <pication:HIS:21>  (23) 
pication:HIS:21    0.0
pication:HIS:21      0
Name: 21, dtype: object

>  <saltbridge:HIS:21>  (23) 
saltbridge:HIS:21    0.0
saltbridge:HIS:21      0
Name: 21, dtype: object

>  <halogenbond:HIS:21>  (23) 
halogenbond:HIS:21    NaN
halogenbond:HIS:21     -1
Name: 21, dtype: object

>  <hydroph_interaction:LEU:22>  (23) 
hydroph_interaction:LEU:22    NaN
hydroph_interaction:LEU:22     -1
Name: 21, dtype: object

>  <hbond:LEU:22>  (23) 
hbond:LEU:22    NaN
hbond:LEU:22     -1
Name: 21, dtype: object

>  <hydroph_interaction:TRP:28>  (23) 
hydroph_interaction:TRP:28    NaN
hydroph_interaction:TRP:28     -1
Name: 21, dtype: object

>  <hbond:SER:36>  (23) 
hbond:SER:36    NaN
hbond:SER:36     -1
Name: 21, dtype: object

>  <halogenbond:SER:36>  (23) 
halogenbond:SER:36    NaN
halogenbond:SER:36     -1
Name: 21, dtype: object

>  <hbond:SER:37>  (23) 
hbond:SER:37    NaN
hbond:SER:37     -1
Name: 21, dtype: object

>  <hbond:ARG:38>  (23) 
hbond:ARG:38    NaN
hbond:ARG:38     -1
Name: 21, dtype: object

>  <halogenbond:ARG:38>  (23) 
halogenbond:ARG:38    NaN
halogenbond:ARG:38     -1
Name: 21, dtype: object

>  <saltbridge:ASP:39>  (23) 
saltbridge:ASP:39    0.0
saltbridge:ASP:39      0
Name: 21, dtype: object

>  <halogenbond:ASP:39>  (23) 
halogenbond:ASP:39    NaN
halogenbond:ASP:39     -1
Name: 21, dtype: object

>  <hbond:ASP:39>  (23) 
hbond:ASP:39    NaN
hbond:ASP:39     -1
Name: 21, dtype: object

>  <hydroph_interaction:ASP:39>  (23) 
hydroph_interaction:ASP:39    NaN
hydroph_interaction:ASP:39     -1
Name: 21, dtype: object

>  <hydroph_interaction:LEU:40>  (23) 
hydroph_interaction:LEU:40    NaN
hydroph_interaction:LEU:40     -1
Name: 21, dtype: object

>  <hydroph_interaction:TYR:63>  (23) 
hydroph_interaction:TYR:63    NaN
hydroph_interaction:TYR:63     -1
Name: 21, dtype: object

>  <hbond:TYR:63>  (23) 
hbond:TYR:63    NaN
hbond:TYR:63     -1
Name: 21, dtype: object

>  <pistack:TYR:63>  (23) 
pistack:TYR:63    NaN
pistack:TYR:63     -1
Name: 21, dtype: object

>  <pication:TYR:63>  (23) 
pication:TYR:63    NaN
pication:TYR:63     -1
Name: 21, dtype: object

>  <halogenbond:TYR:64>  (23) 
halogenbond:TYR:64    NaN
halogenbond:TYR:64     -1
Name: 21, dtype: object

>  <hbond:TYR:64>  (23) 
hbond:TYR:64    NaN
hbond:TYR:64     -1
Name: 21, dtype: object

>  <hydroph_interaction:TYR:64>  (23) 
hydroph_interaction:TYR:64    NaN
hydroph_interaction:TYR:64     -1
Name: 21, dtype: object

>  <halogenbond:CYS:65>  (23) 
halogenbond:CYS:65    NaN
halogenbond:CYS:65     -1
Name: 21, dtype: object

>  <hbond:CYS:65>  (23) 
hbond:CYS:65    NaN
hbond:CYS:65     -1
Name: 21, dtype: object

>  <hbond:SER:66>  (23) 
hbond:SER:66    NaN
hbond:SER:66     -1
Name: 21, dtype: object

>  <halogenbond:SER:66>  (23) 
halogenbond:SER:66    NaN
halogenbond:SER:66     -1
Name: 21, dtype: object

>  <hbond:SER:67>  (23) 
hbond:SER:67    NaN
hbond:SER:67     -1
Name: 21, dtype: object

>  <halogenbond:SER:67>  (23) 
halogenbond:SER:67    NaN
halogenbond:SER:67     -1
Name: 21, dtype: object

>  <hbond:ARG:68>  (23) 
hbond:ARG:68    NaN
hbond:ARG:68     -1
Name: 21, dtype: object

>  <saltbridge:ARG:68>  (23) 
saltbridge:ARG:68    NaN
saltbridge:ARG:68     -1
Name: 21, dtype: object

>  <hydroph_interaction:ARG:68>  (23) 
hydroph_interaction:ARG:68    NaN
hydroph_interaction:ARG:68     -1
Name: 21, dtype: object

>  <pication:ARG:68>  (23) 
pication:ARG:68    NaN
pication:ARG:68     -1
Name: 21, dtype: object

>  <hydroph_interaction:TYR:72>  (23) 
hydroph_interaction:TYR:72    NaN
hydroph_interaction:TYR:72     -1
Name: 21, dtype: object

>  <hydroph_interaction:VAL:74>  (23) 
hydroph_interaction:VAL:74    NaN
hydroph_interaction:VAL:74     -1
Name: 21, dtype: object

>  <hydroph_interaction:PHE:76>  (23) 
hydroph_interaction:PHE:76    NaN
hydroph_interaction:PHE:76     -1
Name: 21, dtype: object

>  <hbond:SER:77>  (23) 
hbond:SER:77    NaN
hbond:SER:77     -1
Name: 21, dtype: object

>  <hbond:SER:80>  (23) 
hbond:SER:80    NaN
hbond:SER:80     -1
Name: 21, dtype: object

>  <hbond:LEU:81>  (23) 
hbond:LEU:81    NaN
hbond:LEU:81     -1
Name: 21, dtype: object

>  <halogenbond:LEU:81>  (23) 
halogenbond:LEU:81    NaN
halogenbond:LEU:81     -1
Name: 21, dtype: object

>  <hydroph_interaction:LEU:81>  (23) 
hydroph_interaction:LEU:81    NaN
hydroph_interaction:LEU:81     -1
Name: 21, dtype: object

>  <hydroph_interaction:ILE:82>  (23) 
hydroph_interaction:ILE:82    NaN
hydroph_interaction:ILE:82     -1
Name: 21, dtype: object

>  <halogenbond:ILE:82>  (23) 
halogenbond:ILE:82    NaN
halogenbond:ILE:82     -1
Name: 21, dtype: object

>  <hbond:ILE:82>  (23) 
hbond:ILE:82    NaN
hbond:ILE:82     -1
Name: 21, dtype: object

>  <hbond:PHE:83>  (23) 
hbond:PHE:83    NaN
hbond:PHE:83     -1
Name: 21, dtype: object

>  <hydroph_interaction:PHE:83>  (23) 
hydroph_interaction:PHE:83    NaN
hydroph_interaction:PHE:83     -1
Name: 21, dtype: object

>  <halogenbond:PHE:83>  (23) 
halogenbond:PHE:83    NaN
halogenbond:PHE:83     -1
Name: 21, dtype: object

>  <pistack:PHE:83>  (23) 
pistack:PHE:83    NaN
pistack:PHE:83     -1
Name: 21, dtype: object

>  <pication:PHE:83>  (23) 
pication:PHE:83    NaN
pication:PHE:83     -1
Name: 21, dtype: object

>  <hydroph_interaction:VAL:84>  (23) 
hydroph_interaction:VAL:84    0.0
hydroph_interaction:VAL:84      0
Name: 21, dtype: object

>  <halogenbond:VAL:84>  (23) 
halogenbond:VAL:84    NaN
halogenbond:VAL:84     -1
Name: 21, dtype: object

>  <hbond:VAL:84>  (23) 
hbond:VAL:84    NaN
hbond:VAL:84     -1
Name: 21, dtype: object

>  <hydroph_interaction:GLU:85>  (23) 
hydroph_interaction:GLU:85    NaN
hydroph_interaction:GLU:85     -1
Name: 21, dtype: object

>  <hbond:GLU:85>  (23) 
hbond:GLU:85    NaN
hbond:GLU:85     -1
Name: 21, dtype: object

>  <halogenbond:GLU:85>  (23) 
halogenbond:GLU:85    0.0
halogenbond:GLU:85      0
Name: 21, dtype: object

>  <saltbridge:GLU:85>  (23) 
saltbridge:GLU:85    NaN
saltbridge:GLU:85     -1
Name: 21, dtype: object

>  <halogenbond:ALA:86>  (23) 
halogenbond:ALA:86    0.0
halogenbond:ALA:86      0
Name: 21, dtype: object

>  <hbond:ALA:86>  (23) 
hbond:ALA:86    NaN
hbond:ALA:86     -1
Name: 21, dtype: object

>  <hydroph_interaction:ALA:86>  (23) 
hydroph_interaction:ALA:86    NaN
hydroph_interaction:ALA:86     -1
Name: 21, dtype: object

>  <hbond:SER:87>  (23) 
hbond:SER:87    0
hbond:SER:87    0
Name: 21, dtype: object

>  <halogenbond:SER:87>  (23) 
halogenbond:SER:87    NaN
halogenbond:SER:87     -1
Name: 21, dtype: object

>  <hbond:GLU:88>  (23) 
hbond:GLU:88    0.0
hbond:GLU:88      0
Name: 21, dtype: object

>  <hydroph_interaction:GLU:88>  (23) 
hydroph_interaction:GLU:88    NaN
hydroph_interaction:GLU:88     -1
Name: 21, dtype: object

>  <halogenbond:GLU:88>  (23) 
halogenbond:GLU:88    0.0
halogenbond:GLU:88      0
Name: 21, dtype: object

>  <saltbridge:GLU:88>  (23) 
saltbridge:GLU:88    NaN
saltbridge:GLU:88     -1
Name: 21, dtype: object

>  <hydroph_interaction:TYR:89>  (23) 
hydroph_interaction:TYR:89    0.0
hydroph_interaction:TYR:89      0
Name: 21, dtype: object

>  <pistack:TYR:89>  (23) 
pistack:TYR:89    NaN
pistack:TYR:89     -1
Name: 21, dtype: object

>  <hbond:TYR:89>  (23) 
hbond:TYR:89    NaN
hbond:TYR:89     -1
Name: 21, dtype: object

>  <halogenbond:TYR:89>  (23) 
halogenbond:TYR:89    NaN
halogenbond:TYR:89     -1
Name: 21, dtype: object

>  <hydroph_interaction:TYR:90>  (23) 
hydroph_interaction:TYR:90    0.0
hydroph_interaction:TYR:90      0
Name: 21, dtype: object

>  <hbond:TYR:90>  (23) 
hbond:TYR:90    0.0
hbond:TYR:90      0
Name: 21, dtype: object

>  <pistack:TYR:90>  (23) 
pistack:TYR:90    NaN
pistack:TYR:90     -1
Name: 21, dtype: object

>  <halogenbond:TYR:90>  (23) 
halogenbond:TYR:90    NaN
halogenbond:TYR:90     -1
Name: 21, dtype: object

>  <pication:TYR:90>  (23) 
pication:TYR:90    NaN
pication:TYR:90     -1
Name: 21, dtype: object

>  <hbond:PRO:91>  (23) 
hbond:PRO:91    NaN
hbond:PRO:91     -1
Name: 21, dtype: object

>  <hydroph_interaction:PRO:91>  (23) 
hydroph_interaction:PRO:91    NaN
hydroph_interaction:PRO:91     -1
Name: 21, dtype: object

>  <halogenbond:PRO:91>  (23) 
halogenbond:PRO:91    NaN
halogenbond:PRO:91     -1
Name: 21, dtype: object

>  <hbond:ALA:92>  (23) 
hbond:ALA:92    NaN
hbond:ALA:92     -1
Name: 21, dtype: object

>  <hydroph_interaction:ALA:92>  (23) 
hydroph_interaction:ALA:92    NaN
hydroph_interaction:ALA:92     -1
Name: 21, dtype: object

>  <saltbridge:ARG:93>  (23) 
saltbridge:ARG:93    NaN
saltbridge:ARG:93     -1
Name: 21, dtype: object

>  <hbond:ARG:93>  (23) 
hbond:ARG:93    NaN
hbond:ARG:93     -1
Name: 21, dtype: object

>  <hydroph_interaction:ARG:93>  (23) 
hydroph_interaction:ARG:93    NaN
hydroph_interaction:ARG:93     -1
Name: 21, dtype: object

>  <halogenbond:ARG:93>  (23) 
halogenbond:ARG:93    NaN
halogenbond:ARG:93     -1
Name: 21, dtype: object

>  <pication:ARG:93>  (23) 
pication:ARG:93    NaN
pication:ARG:93     -1
Name: 21, dtype: object

>  <hydroph_interaction:TYR:94>  (23) 
hydroph_interaction:TYR:94    NaN
hydroph_interaction:TYR:94     -1
Name: 21, dtype: object

>  <pistack:TYR:94>  (23) 
pistack:TYR:94    NaN
pistack:TYR:94     -1
Name: 21, dtype: object

>  <hbond:TYR:94>  (23) 
hbond:TYR:94    NaN
hbond:TYR:94     -1
Name: 21, dtype: object

>  <hbond:GLN:95>  (23) 
hbond:GLN:95    0.0
hbond:GLN:95      0
Name: 21, dtype: object

>  <hydroph_interaction:GLN:95>  (23) 
hydroph_interaction:GLN:95    NaN
hydroph_interaction:GLN:95     -1
Name: 21, dtype: object

>  <halogenbond:GLN:95>  (23) 
halogenbond:GLN:95    NaN
halogenbond:GLN:95     -1
Name: 21, dtype: object

>  <hbond:SER:96>  (23) 
hbond:SER:96    NaN
hbond:SER:96     -1
Name: 21, dtype: object

>  <halogenbond:HIS:97>  (23) 
halogenbond:HIS:97    NaN
halogenbond:HIS:97     -1
Name: 21, dtype: object

>  <hydroph_interaction:LEU:98>  (23) 
hydroph_interaction:LEU:98    NaN
hydroph_interaction:LEU:98     -1
Name: 21, dtype: object

>  <hbond:LEU:98>  (23) 
hbond:LEU:98    NaN
hbond:LEU:98     -1
Name: 21, dtype: object

>  <halogenbond:LEU:98>  (23) 
halogenbond:LEU:98    NaN
halogenbond:LEU:98     -1
Name: 21, dtype: object

>  <hbond:MET:99>  (23) 
hbond:MET:99    NaN
hbond:MET:99     -1
Name: 21, dtype: object

>  <hydroph_interaction:MET:99>  (23) 
hydroph_interaction:MET:99    NaN
hydroph_interaction:MET:99     -1
Name: 21, dtype: object

>  <halogenbond:MET:99>  (23) 
halogenbond:MET:99    NaN
halogenbond:MET:99     -1
Name: 21, dtype: object

>  <hydroph_interaction:LEU:100>  (23) 
hydroph_interaction:LEU:100    NaN
hydroph_interaction:LEU:100     -1
Name: 21, dtype: object

>  <hbond:LEU:100>  (23) 
hbond:LEU:100    NaN
hbond:LEU:100     -1
Name: 21, dtype: object

>  <hbond:ALA:101>  (23) 
hbond:ALA:101    NaN
hbond:ALA:101     -1
Name: 21, dtype: object

>  <hydroph_interaction:ALA:101>  (23) 
hydroph_interaction:ALA:101    NaN
hydroph_interaction:ALA:101     -1
Name: 21, dtype: object

>  <hydroph_interaction:VAL:102>  (23) 
hydroph_interaction:VAL:102    NaN
hydroph_interaction:VAL:102     -1
Name: 21, dtype: object

>  <hbond:VAL:102>  (23) 
hbond:VAL:102    NaN
hbond:VAL:102     -1
Name: 21, dtype: object

>  <hbond:GLY:103>  (23) 
hbond:GLY:103    NaN
hbond:GLY:103     -1
Name: 21, dtype: object

>  <halogenbond:GLY:103>  (23) 
halogenbond:GLY:103    NaN
halogenbond:GLY:103     -1
Name: 21, dtype: object

>  <hbond:HIS:104>  (23) 
hbond:HIS:104    NaN
hbond:HIS:104     -1
Name: 21, dtype: object

>  <saltbridge:HIS:104>  (23) 
saltbridge:HIS:104    NaN
saltbridge:HIS:104     -1
Name: 21, dtype: object

>  <pication:HIS:104>  (23) 
pication:HIS:104    NaN
pication:HIS:104     -1
Name: 21, dtype: object

>  <halogenbond:HIS:104>  (23) 
halogenbond:HIS:104    NaN
halogenbond:HIS:104     -1
Name: 21, dtype: object

>  <hydroph_interaction:HIS:104>  (23) 
hydroph_interaction:HIS:104    NaN
hydroph_interaction:HIS:104     -1
Name: 21, dtype: object

>  <pistack:HIS:104>  (23) 
pistack:HIS:104    NaN
pistack:HIS:104     -1
Name: 21, dtype: object

>  <halogenbond:SER:105>  (23) 
halogenbond:SER:105    0.0
halogenbond:SER:105      0
Name: 21, dtype: object

>  <hbond:SER:105>  (23) 
hbond:SER:105    1.0
hbond:SER:105      1
Name: 21, dtype: object

>  <hbond:GLU:106>  (23) 
hbond:GLU:106    0.0
hbond:GLU:106      0
Name: 21, dtype: object

>  <hydroph_interaction:GLU:106>  (23) 
hydroph_interaction:GLU:106    NaN
hydroph_interaction:GLU:106     -1
Name: 21, dtype: object

>  <saltbridge:GLU:106>  (23) 
saltbridge:GLU:106    NaN
saltbridge:GLU:106     -1
Name: 21, dtype: object

>  <halogenbond:GLU:106>  (23) 
halogenbond:GLU:106    NaN
halogenbond:GLU:106     -1
Name: 21, dtype: object

>  <hydroph_interaction:PRO:107>  (23) 
hydroph_interaction:PRO:107    0
hydroph_interaction:PRO:107    0
Name: 21, dtype: object

>  <hbond:PRO:107>  (23) 
hbond:PRO:107    NaN
hbond:PRO:107     -1
Name: 21, dtype: object

>  <halogenbond:PRO:107>  (23) 
halogenbond:PRO:107    NaN
halogenbond:PRO:107     -1
Name: 21, dtype: object

>  <hbond:GLY:108>  (23) 
hbond:GLY:108    NaN
hbond:GLY:108     -1
Name: 21, dtype: object

>  <halogenbond:GLY:108>  (23) 
halogenbond:GLY:108    NaN
halogenbond:GLY:108     -1
Name: 21, dtype: object

>  <hbond:ASP:109>  (23) 
hbond:ASP:109    NaN
hbond:ASP:109     -1
Name: 21, dtype: object

>  <hydroph_interaction:ASP:109>  (23) 
hydroph_interaction:ASP:109    0.0
hydroph_interaction:ASP:109      0
Name: 21, dtype: object

>  <saltbridge:ASP:109>  (23) 
saltbridge:ASP:109    NaN
saltbridge:ASP:109     -1
Name: 21, dtype: object

>  <halogenbond:CYS:110>  (23) 
halogenbond:CYS:110    0.0
halogenbond:CYS:110      0
Name: 21, dtype: object

>  <hbond:CYS:110>  (23) 
hbond:CYS:110    0.0
hbond:CYS:110      0
Name: 21, dtype: object

>  <hbond:GLY:111>  (23) 
hbond:GLY:111    NaN
hbond:GLY:111     -1
Name: 21, dtype: object

>  <hbond:GLY:112>  (23) 
hbond:GLY:112    NaN
hbond:GLY:112     -1
Name: 21, dtype: object

>  <hbond:ILE:113>  (23) 
hbond:ILE:113    NaN
hbond:ILE:113     -1
Name: 21, dtype: object

>  <hydroph_interaction:LEU:114>  (23) 
hydroph_interaction:LEU:114    NaN
hydroph_interaction:LEU:114     -1
Name: 21, dtype: object

>  <hbond:LEU:114>  (23) 
hbond:LEU:114    NaN
hbond:LEU:114     -1
Name: 21, dtype: object

>  <hydroph_interaction:ILE:123>  (23) 
hydroph_interaction:ILE:123    NaN
hydroph_interaction:ILE:123     -1
Name: 21, dtype: object

>  <hbond:ILE:123>  (23) 
hbond:ILE:123    NaN
hbond:ILE:123     -1
Name: 21, dtype: object

>  <hydroph_interaction:VAL:124>  (23) 
hydroph_interaction:VAL:124    1.0
hydroph_interaction:VAL:124      1
Name: 21, dtype: object

>  <hbond:VAL:124>  (23) 
hbond:VAL:124    NaN
hbond:VAL:124     -1
Name: 21, dtype: object

>  <halogenbond:VAL:124>  (23) 
halogenbond:VAL:124    NaN
halogenbond:VAL:124     -1
Name: 21, dtype: object

>  <hbond:SER:125>  (23) 
hbond:SER:125    0
hbond:SER:125    0
Name: 21, dtype: object

>  <halogenbond:SER:125>  (23) 
halogenbond:SER:125    NaN
halogenbond:SER:125     -1
Name: 21, dtype: object

>  <hydroph_interaction:THR:126>  (23) 
hydroph_interaction:THR:126    0.0
hydroph_interaction:THR:126      0
Name: 21, dtype: object

>  <hbond:THR:126>  (23) 
hbond:THR:126    0.0
hbond:THR:126      0
Name: 21, dtype: object

>  <halogenbond:THR:126>  (23) 
halogenbond:THR:126    NaN
halogenbond:THR:126     -1
Name: 21, dtype: object

>  <hbond:GLY:127>  (23) 
hbond:GLY:127    1
hbond:GLY:127    1
Name: 21, dtype: object

>  <halogenbond:GLY:127>  (23) 
halogenbond:GLY:127    NaN
halogenbond:GLY:127     -1
Name: 21, dtype: object

>  <hydroph_interaction:GLY:127>  (23) 
hydroph_interaction:GLY:127    NaN
hydroph_interaction:GLY:127     -1
Name: 21, dtype: object

>  <hbond:GLY:128>  (23) 
hbond:GLY:128    NaN
hbond:GLY:128     -1
Name: 21, dtype: object

>  <halogenbond:GLY:128>  (23) 
halogenbond:GLY:128    NaN
halogenbond:GLY:128     -1
Name: 21, dtype: object

>  <hydroph_interaction:GLY:128>  (23) 
hydroph_interaction:GLY:128    NaN
hydroph_interaction:GLY:128     -1
Name: 21, dtype: object

>  <hbond:ASN:129>  (23) 
hbond:ASN:129    NaN
hbond:ASN:129     -1
Name: 21, dtype: object

>  <hydroph_interaction:ASN:129>  (23) 
hydroph_interaction:ASN:129    NaN
hydroph_interaction:ASN:129     -1
Name: 21, dtype: object

>  <halogenbond:ASN:129>  (23) 
halogenbond:ASN:129    NaN
halogenbond:ASN:129     -1
Name: 21, dtype: object

>  <hbond:GLY:130>  (23) 
hbond:GLY:130    NaN
hbond:GLY:130     -1
Name: 21, dtype: object

>  <hbond:LEU:131>  (23) 
hbond:LEU:131    NaN
hbond:LEU:131     -1
Name: 21, dtype: object

>  <hydroph_interaction:LEU:131>  (23) 
hydroph_interaction:LEU:131    NaN
hydroph_interaction:LEU:131     -1
Name: 21, dtype: object

>  <halogenbond:LEU:131>  (23) 
halogenbond:LEU:131    NaN
halogenbond:LEU:131     -1
Name: 21, dtype: object

>  <hydroph_interaction:VAL:132>  (23) 
hydroph_interaction:VAL:132    NaN
hydroph_interaction:VAL:132     -1
Name: 21, dtype: object

>  <hbond:VAL:132>  (23) 
hbond:VAL:132    NaN
hbond:VAL:132     -1
Name: 21, dtype: object

>  <hbond:GLY:133>  (23) 
hbond:GLY:133    NaN
hbond:GLY:133     -1
Name: 21, dtype: object

>  <halogenbond:GLY:133>  (23) 
halogenbond:GLY:133    NaN
halogenbond:GLY:133     -1
Name: 21, dtype: object

>  <hydroph_interaction:PHE:134>  (23) 
hydroph_interaction:PHE:134    NaN
hydroph_interaction:PHE:134     -1
Name: 21, dtype: object

>  <hbond:PHE:134>  (23) 
hbond:PHE:134    NaN
hbond:PHE:134     -1
Name: 21, dtype: object

>  <pistack:PHE:134>  (23) 
pistack:PHE:134    NaN
pistack:PHE:134     -1
Name: 21, dtype: object

>  <pication:PHE:134>  (23) 
pication:PHE:134    NaN
pication:PHE:134     -1
Name: 21, dtype: object

>  <halogenbond:PHE:134>  (23) 
halogenbond:PHE:134    NaN
halogenbond:PHE:134     -1
Name: 21, dtype: object

>  <hydroph_interaction:ALA:135>  (23) 
hydroph_interaction:ALA:135    NaN
hydroph_interaction:ALA:135     -1
Name: 21, dtype: object

>  <hbond:ALA:135>  (23) 
hbond:ALA:135    NaN
hbond:ALA:135     -1
Name: 21, dtype: object

$$$$
Z4284904547
     RDKit          3D

 15 15  0  0  0  0  0  0  0  0999 V2000
   30.3039   15.0435   10.2454 C   0  0  0  0  0  0  0  0  0  0  0  0
   28.9962   14.5100    9.6769 C   0  0  0  0  0  0  0  0  0  0  0  0
   28.6868   14.7458    8.1756 C   0  0  0  0  0  0  0  0  0  0  0  0
   29.2769   13.6286    7.3448 C   0  0  0  0  0  0  0  0  0  0  0  0
   28.5211   13.1401    6.3194 O   0  0  0  0  0  0  0  0  0  0  0  0
   30.6380   13.1860    7.7361 N   0  0  0  0  0  0  0  0  0  0  0  0
   31.1186   11.8733    7.5548 C   0  0  0  0  0  0  0  0  0  0  0  0
   30.6039   10.6827    8.2501 C   0  0  0  0  0  0  0  0  0  0  0  0
   31.0322    9.3932    8.0992 C   0  0  0  0  0  0  0  0  0  0  0  0
   30.3596    8.4617    8.9002 C   0  0  0  0  0  0  0  0  0  0  0  0
   32.0534    9.1845    7.1915 C   0  0  0  0  0  0  0  0  0  0  0  0
   32.6485   10.3543    6.4316 C   0  0  0  0  0  0  0  0  0  0  0  0
   33.7191    9.9878    5.5140 C   0  0  0  0  0  0  0  0  0  0  0  0
   32.1628   11.6632    6.6392 C   0  0  0  0  0  0  0  0  0  0  0  0
   32.6723   12.7699    5.9675 O   0  0  0  0  0  0  0  0  0  0  0  0
  1  2  2  0
  2  3  1  0
  3  4  1  0
  4  5  2  0
  4  6  1  0
  6  7  1  0
  7  8  2  0
  8  9  1  0
  9 10  1  0
  9 11  2  0
 11 12  1  0
 12 13  1  0
 12 14  2  0
 14 15  1  0
 14  7  1  0
A    1
 C1 
A    2
 C2 
A    3
 C3 
A    4
 C4 
A    5
 O1 
A    6
 N1 
A    7
 C5 
A    8
 C6 
A    9
 C7 
A   10
 C8 
A   11
 C9 
A   12
 C10
A   13
 C11
A   14
 C12
A   15
 O2 
M  END
>  <ref_pdb>  (24) 
Ax0310a

>  <ref_mols>  (24) 
Ax0451a,Ax0739a

>  <original SMILES>  (24) 
C=CCC(=O)Nc1cc(C)cc(C)c1O

>  <rationale>  (24) 
info halogenbond:G127+A86+S125+E85+Q95+E106+T126+H104+Y64+C65+S87+N129+F83+R93+L131+I82+G128+P91+N19+H21+V84+G133+Y90+Y89+H97+L81+F134+L98+R20+G103+S66+S67+S7+G108+R38+V124+M99+S36; hbond:S87+G108+G103+G128+G130+L131+N129+N19+R68+V124+P91+F83+S67+S7+S66+G112+G133+V132+R20+Y89+S77+A135+Y63+A92+A101+M99+F134+L100+I82+Y64+S36+L98+V84+L81+Y94+S80+R38+S37+V102+G8+I123+G111+I113+L114+C65+L22+S96; hydroph_interaction:V124+Y90+N129+D39+N19+L40+I123+A135+Q95+I82+L100+L98+L131+F83+R93+F134+H104+R20+A86+V74+P91+A101+F76+M99+L114+A92+Y94+R68+Y72+Y64+V18+V102+W28+G127+G128+L81; pication:H21+H104+R93+Y63+F134+Y90+R68+F83+R20; pistack:H21+Y89+Y90+H104+F134+Y63+F83+Y94; saltbridge:R93+H104+E106+D109+E85+E88+R68+R20; 

>  <intxn_cluster>  (24) 
-1

>  <intxn_cluster_rank>  (24) 
-1

>  <N_interactions>  (24) 
5

>  <∆∆G>  (24) 
-12.367698

>  <$/mg>  (24) 
163.0

>  <comRMSD>  (24) 
0.962016

>  <N_rotatable_bonds>  (24) 
6

>  <deep_P1_sidechain>  (24) 
nan

>  <farthest_distance_to_substrate>  (24) 
2.255063

>  <hbond:SER:7>  (24) 
hbond:SER:7    NaN
hbond:SER:7     -1
Name: 22, dtype: object

>  <halogenbond:SER:7>  (24) 
halogenbond:SER:7    NaN
halogenbond:SER:7     -1
Name: 22, dtype: object

>  <hbond:GLY:8>  (24) 
hbond:GLY:8    NaN
hbond:GLY:8     -1
Name: 22, dtype: object

>  <hydroph_interaction:VAL:18>  (24) 
hydroph_interaction:VAL:18    NaN
hydroph_interaction:VAL:18     -1
Name: 22, dtype: object

>  <hbond:ASN:19>  (24) 
hbond:ASN:19    NaN
hbond:ASN:19     -1
Name: 22, dtype: object

>  <hydroph_interaction:ASN:19>  (24) 
hydroph_interaction:ASN:19    NaN
hydroph_interaction:ASN:19     -1
Name: 22, dtype: object

>  <halogenbond:ASN:19>  (24) 
halogenbond:ASN:19    NaN
halogenbond:ASN:19     -1
Name: 22, dtype: object

>  <hbond:ARG:20>  (24) 
hbond:ARG:20    NaN
hbond:ARG:20     -1
Name: 22, dtype: object

>  <hydroph_interaction:ARG:20>  (24) 
hydroph_interaction:ARG:20    NaN
hydroph_interaction:ARG:20     -1
Name: 22, dtype: object

>  <saltbridge:ARG:20>  (24) 
saltbridge:ARG:20    NaN
saltbridge:ARG:20     -1
Name: 22, dtype: object

>  <halogenbond:ARG:20>  (24) 
halogenbond:ARG:20    NaN
halogenbond:ARG:20     -1
Name: 22, dtype: object

>  <pication:ARG:20>  (24) 
pication:ARG:20    NaN
pication:ARG:20     -1
Name: 22, dtype: object

>  <hbond:HIS:21>  (24) 
hbond:HIS:21    0.0
hbond:HIS:21      0
Name: 22, dtype: object

>  <hydroph_interaction:HIS:21>  (24) 
hydroph_interaction:HIS:21    0.0
hydroph_interaction:HIS:21      0
Name: 22, dtype: object

>  <pistack:HIS:21>  (24) 
pistack:HIS:21    NaN
pistack:HIS:21     -1
Name: 22, dtype: object

>  <pication:HIS:21>  (24) 
pication:HIS:21    NaN
pication:HIS:21     -1
Name: 22, dtype: object

>  <saltbridge:HIS:21>  (24) 
saltbridge:HIS:21    0.0
saltbridge:HIS:21      0
Name: 22, dtype: object

>  <halogenbond:HIS:21>  (24) 
halogenbond:HIS:21    NaN
halogenbond:HIS:21     -1
Name: 22, dtype: object

>  <hydroph_interaction:LEU:22>  (24) 
hydroph_interaction:LEU:22    0.0
hydroph_interaction:LEU:22      0
Name: 22, dtype: object

>  <hbond:LEU:22>  (24) 
hbond:LEU:22    NaN
hbond:LEU:22     -1
Name: 22, dtype: object

>  <hydroph_interaction:TRP:28>  (24) 
hydroph_interaction:TRP:28    NaN
hydroph_interaction:TRP:28     -1
Name: 22, dtype: object

>  <hbond:SER:36>  (24) 
hbond:SER:36    NaN
hbond:SER:36     -1
Name: 22, dtype: object

>  <halogenbond:SER:36>  (24) 
halogenbond:SER:36    NaN
halogenbond:SER:36     -1
Name: 22, dtype: object

>  <hbond:SER:37>  (24) 
hbond:SER:37    NaN
hbond:SER:37     -1
Name: 22, dtype: object

>  <hbond:ARG:38>  (24) 
hbond:ARG:38    NaN
hbond:ARG:38     -1
Name: 22, dtype: object

>  <halogenbond:ARG:38>  (24) 
halogenbond:ARG:38    NaN
halogenbond:ARG:38     -1
Name: 22, dtype: object

>  <saltbridge:ASP:39>  (24) 
saltbridge:ASP:39    0.0
saltbridge:ASP:39      0
Name: 22, dtype: object

>  <halogenbond:ASP:39>  (24) 
halogenbond:ASP:39    0.0
halogenbond:ASP:39      0
Name: 22, dtype: object

>  <hbond:ASP:39>  (24) 
hbond:ASP:39    0.0
hbond:ASP:39      0
Name: 22, dtype: object

>  <hydroph_interaction:ASP:39>  (24) 
hydroph_interaction:ASP:39    NaN
hydroph_interaction:ASP:39     -1
Name: 22, dtype: object

>  <hydroph_interaction:LEU:40>  (24) 
hydroph_interaction:LEU:40    NaN
hydroph_interaction:LEU:40     -1
Name: 22, dtype: object

>  <hydroph_interaction:TYR:63>  (24) 
hydroph_interaction:TYR:63    0.0
hydroph_interaction:TYR:63      0
Name: 22, dtype: object

>  <hbond:TYR:63>  (24) 
hbond:TYR:63    NaN
hbond:TYR:63     -1
Name: 22, dtype: object

>  <pistack:TYR:63>  (24) 
pistack:TYR:63    NaN
pistack:TYR:63     -1
Name: 22, dtype: object

>  <pication:TYR:63>  (24) 
pication:TYR:63    NaN
pication:TYR:63     -1
Name: 22, dtype: object

>  <halogenbond:TYR:64>  (24) 
halogenbond:TYR:64    NaN
halogenbond:TYR:64     -1
Name: 22, dtype: object

>  <hbond:TYR:64>  (24) 
hbond:TYR:64    NaN
hbond:TYR:64     -1
Name: 22, dtype: object

>  <hydroph_interaction:TYR:64>  (24) 
hydroph_interaction:TYR:64    NaN
hydroph_interaction:TYR:64     -1
Name: 22, dtype: object

>  <halogenbond:CYS:65>  (24) 
halogenbond:CYS:65    NaN
halogenbond:CYS:65     -1
Name: 22, dtype: object

>  <hbond:CYS:65>  (24) 
hbond:CYS:65    NaN
hbond:CYS:65     -1
Name: 22, dtype: object

>  <hbond:SER:66>  (24) 
hbond:SER:66    NaN
hbond:SER:66     -1
Name: 22, dtype: object

>  <halogenbond:SER:66>  (24) 
halogenbond:SER:66    NaN
halogenbond:SER:66     -1
Name: 22, dtype: object

>  <hbond:SER:67>  (24) 
hbond:SER:67    NaN
hbond:SER:67     -1
Name: 22, dtype: object

>  <halogenbond:SER:67>  (24) 
halogenbond:SER:67    NaN
halogenbond:SER:67     -1
Name: 22, dtype: object

>  <hbond:ARG:68>  (24) 
hbond:ARG:68    NaN
hbond:ARG:68     -1
Name: 22, dtype: object

>  <saltbridge:ARG:68>  (24) 
saltbridge:ARG:68    NaN
saltbridge:ARG:68     -1
Name: 22, dtype: object

>  <hydroph_interaction:ARG:68>  (24) 
hydroph_interaction:ARG:68    NaN
hydroph_interaction:ARG:68     -1
Name: 22, dtype: object

>  <pication:ARG:68>  (24) 
pication:ARG:68    NaN
pication:ARG:68     -1
Name: 22, dtype: object

>  <hydroph_interaction:TYR:72>  (24) 
hydroph_interaction:TYR:72    NaN
hydroph_interaction:TYR:72     -1
Name: 22, dtype: object

>  <hydroph_interaction:VAL:74>  (24) 
hydroph_interaction:VAL:74    NaN
hydroph_interaction:VAL:74     -1
Name: 22, dtype: object

>  <hydroph_interaction:PHE:76>  (24) 
hydroph_interaction:PHE:76    NaN
hydroph_interaction:PHE:76     -1
Name: 22, dtype: object

>  <hbond:SER:77>  (24) 
hbond:SER:77    NaN
hbond:SER:77     -1
Name: 22, dtype: object

>  <hbond:SER:80>  (24) 
hbond:SER:80    NaN
hbond:SER:80     -1
Name: 22, dtype: object

>  <hbond:LEU:81>  (24) 
hbond:LEU:81    NaN
hbond:LEU:81     -1
Name: 22, dtype: object

>  <halogenbond:LEU:81>  (24) 
halogenbond:LEU:81    NaN
halogenbond:LEU:81     -1
Name: 22, dtype: object

>  <hydroph_interaction:LEU:81>  (24) 
hydroph_interaction:LEU:81    NaN
hydroph_interaction:LEU:81     -1
Name: 22, dtype: object

>  <hydroph_interaction:ILE:82>  (24) 
hydroph_interaction:ILE:82    NaN
hydroph_interaction:ILE:82     -1
Name: 22, dtype: object

>  <halogenbond:ILE:82>  (24) 
halogenbond:ILE:82    NaN
halogenbond:ILE:82     -1
Name: 22, dtype: object

>  <hbond:ILE:82>  (24) 
hbond:ILE:82    NaN
hbond:ILE:82     -1
Name: 22, dtype: object

>  <hbond:PHE:83>  (24) 
hbond:PHE:83    NaN
hbond:PHE:83     -1
Name: 22, dtype: object

>  <hydroph_interaction:PHE:83>  (24) 
hydroph_interaction:PHE:83    NaN
hydroph_interaction:PHE:83     -1
Name: 22, dtype: object

>  <halogenbond:PHE:83>  (24) 
halogenbond:PHE:83    NaN
halogenbond:PHE:83     -1
Name: 22, dtype: object

>  <pistack:PHE:83>  (24) 
pistack:PHE:83    NaN
pistack:PHE:83     -1
Name: 22, dtype: object

>  <pication:PHE:83>  (24) 
pication:PHE:83    NaN
pication:PHE:83     -1
Name: 22, dtype: object

>  <hydroph_interaction:VAL:84>  (24) 
hydroph_interaction:VAL:84    0.0
hydroph_interaction:VAL:84      0
Name: 22, dtype: object

>  <halogenbond:VAL:84>  (24) 
halogenbond:VAL:84    NaN
halogenbond:VAL:84     -1
Name: 22, dtype: object

>  <hbond:VAL:84>  (24) 
hbond:VAL:84    NaN
hbond:VAL:84     -1
Name: 22, dtype: object

>  <hydroph_interaction:GLU:85>  (24) 
hydroph_interaction:GLU:85    0.0
hydroph_interaction:GLU:85      0
Name: 22, dtype: object

>  <hbond:GLU:85>  (24) 
hbond:GLU:85    0.0
hbond:GLU:85      0
Name: 22, dtype: object

>  <halogenbond:GLU:85>  (24) 
halogenbond:GLU:85    NaN
halogenbond:GLU:85     -1
Name: 22, dtype: object

>  <saltbridge:GLU:85>  (24) 
saltbridge:GLU:85    NaN
saltbridge:GLU:85     -1
Name: 22, dtype: object

>  <halogenbond:ALA:86>  (24) 
halogenbond:ALA:86    NaN
halogenbond:ALA:86     -1
Name: 22, dtype: object

>  <hbond:ALA:86>  (24) 
hbond:ALA:86    0.0
hbond:ALA:86      0
Name: 22, dtype: object

>  <hydroph_interaction:ALA:86>  (24) 
hydroph_interaction:ALA:86    NaN
hydroph_interaction:ALA:86     -1
Name: 22, dtype: object

>  <hbond:SER:87>  (24) 
hbond:SER:87    3
hbond:SER:87    3
Name: 22, dtype: object

>  <halogenbond:SER:87>  (24) 
halogenbond:SER:87    NaN
halogenbond:SER:87     -1
Name: 22, dtype: object

>  <hbond:GLU:88>  (24) 
hbond:GLU:88    0.0
hbond:GLU:88      0
Name: 22, dtype: object

>  <hydroph_interaction:GLU:88>  (24) 
hydroph_interaction:GLU:88    0.0
hydroph_interaction:GLU:88      0
Name: 22, dtype: object

>  <halogenbond:GLU:88>  (24) 
halogenbond:GLU:88    0.0
halogenbond:GLU:88      0
Name: 22, dtype: object

>  <saltbridge:GLU:88>  (24) 
saltbridge:GLU:88    NaN
saltbridge:GLU:88     -1
Name: 22, dtype: object

>  <hydroph_interaction:TYR:89>  (24) 
hydroph_interaction:TYR:89    0.0
hydroph_interaction:TYR:89      0
Name: 22, dtype: object

>  <pistack:TYR:89>  (24) 
pistack:TYR:89    NaN
pistack:TYR:89     -1
Name: 22, dtype: object

>  <hbond:TYR:89>  (24) 
hbond:TYR:89    NaN
hbond:TYR:89     -1
Name: 22, dtype: object

>  <halogenbond:TYR:89>  (24) 
halogenbond:TYR:89    NaN
halogenbond:TYR:89     -1
Name: 22, dtype: object

>  <hydroph_interaction:TYR:90>  (24) 
hydroph_interaction:TYR:90    1.0
hydroph_interaction:TYR:90      1
Name: 22, dtype: object

>  <hbond:TYR:90>  (24) 
hbond:TYR:90    0.0
hbond:TYR:90      0
Name: 22, dtype: object

>  <pistack:TYR:90>  (24) 
pistack:TYR:90    NaN
pistack:TYR:90     -1
Name: 22, dtype: object

>  <halogenbond:TYR:90>  (24) 
halogenbond:TYR:90    NaN
halogenbond:TYR:90     -1
Name: 22, dtype: object

>  <pication:TYR:90>  (24) 
pication:TYR:90    NaN
pication:TYR:90     -1
Name: 22, dtype: object

>  <hbond:PRO:91>  (24) 
hbond:PRO:91    NaN
hbond:PRO:91     -1
Name: 22, dtype: object

>  <hydroph_interaction:PRO:91>  (24) 
hydroph_interaction:PRO:91    NaN
hydroph_interaction:PRO:91     -1
Name: 22, dtype: object

>  <halogenbond:PRO:91>  (24) 
halogenbond:PRO:91    NaN
halogenbond:PRO:91     -1
Name: 22, dtype: object

>  <hbond:ALA:92>  (24) 
hbond:ALA:92    NaN
hbond:ALA:92     -1
Name: 22, dtype: object

>  <hydroph_interaction:ALA:92>  (24) 
hydroph_interaction:ALA:92    NaN
hydroph_interaction:ALA:92     -1
Name: 22, dtype: object

>  <saltbridge:ARG:93>  (24) 
saltbridge:ARG:93    NaN
saltbridge:ARG:93     -1
Name: 22, dtype: object

>  <hbond:ARG:93>  (24) 
hbond:ARG:93    0.0
hbond:ARG:93      0
Name: 22, dtype: object

>  <hydroph_interaction:ARG:93>  (24) 
hydroph_interaction:ARG:93    NaN
hydroph_interaction:ARG:93     -1
Name: 22, dtype: object

>  <halogenbond:ARG:93>  (24) 
halogenbond:ARG:93    NaN
halogenbond:ARG:93     -1
Name: 22, dtype: object

>  <pication:ARG:93>  (24) 
pication:ARG:93    NaN
pication:ARG:93     -1
Name: 22, dtype: object

>  <hydroph_interaction:TYR:94>  (24) 
hydroph_interaction:TYR:94    NaN
hydroph_interaction:TYR:94     -1
Name: 22, dtype: object

>  <pistack:TYR:94>  (24) 
pistack:TYR:94    NaN
pistack:TYR:94     -1
Name: 22, dtype: object

>  <hbond:TYR:94>  (24) 
hbond:TYR:94    NaN
hbond:TYR:94     -1
Name: 22, dtype: object

>  <hbond:GLN:95>  (24) 
hbond:GLN:95    0.0
hbond:GLN:95      0
Name: 22, dtype: object

>  <hydroph_interaction:GLN:95>  (24) 
hydroph_interaction:GLN:95    NaN
hydroph_interaction:GLN:95     -1
Name: 22, dtype: object

>  <halogenbond:GLN:95>  (24) 
halogenbond:GLN:95    NaN
halogenbond:GLN:95     -1
Name: 22, dtype: object

>  <hbond:SER:96>  (24) 
hbond:SER:96    NaN
hbond:SER:96     -1
Name: 22, dtype: object

>  <halogenbond:HIS:97>  (24) 
halogenbond:HIS:97    NaN
halogenbond:HIS:97     -1
Name: 22, dtype: object

>  <hydroph_interaction:LEU:98>  (24) 
hydroph_interaction:LEU:98    NaN
hydroph_interaction:LEU:98     -1
Name: 22, dtype: object

>  <hbond:LEU:98>  (24) 
hbond:LEU:98    NaN
hbond:LEU:98     -1
Name: 22, dtype: object

>  <halogenbond:LEU:98>  (24) 
halogenbond:LEU:98    NaN
halogenbond:LEU:98     -1
Name: 22, dtype: object

>  <hbond:MET:99>  (24) 
hbond:MET:99    NaN
hbond:MET:99     -1
Name: 22, dtype: object

>  <hydroph_interaction:MET:99>  (24) 
hydroph_interaction:MET:99    NaN
hydroph_interaction:MET:99     -1
Name: 22, dtype: object

>  <halogenbond:MET:99>  (24) 
halogenbond:MET:99    NaN
halogenbond:MET:99     -1
Name: 22, dtype: object

>  <hydroph_interaction:LEU:100>  (24) 
hydroph_interaction:LEU:100    NaN
hydroph_interaction:LEU:100     -1
Name: 22, dtype: object

>  <hbond:LEU:100>  (24) 
hbond:LEU:100    NaN
hbond:LEU:100     -1
Name: 22, dtype: object

>  <hbond:ALA:101>  (24) 
hbond:ALA:101    NaN
hbond:ALA:101     -1
Name: 22, dtype: object

>  <hydroph_interaction:ALA:101>  (24) 
hydroph_interaction:ALA:101    NaN
hydroph_interaction:ALA:101     -1
Name: 22, dtype: object

>  <hydroph_interaction:VAL:102>  (24) 
hydroph_interaction:VAL:102    NaN
hydroph_interaction:VAL:102     -1
Name: 22, dtype: object

>  <hbond:VAL:102>  (24) 
hbond:VAL:102    NaN
hbond:VAL:102     -1
Name: 22, dtype: object

>  <hbond:GLY:103>  (24) 
hbond:GLY:103    NaN
hbond:GLY:103     -1
Name: 22, dtype: object

>  <halogenbond:GLY:103>  (24) 
halogenbond:GLY:103    NaN
halogenbond:GLY:103     -1
Name: 22, dtype: object

>  <hbond:HIS:104>  (24) 
hbond:HIS:104    0.0
hbond:HIS:104      0
Name: 22, dtype: object

>  <saltbridge:HIS:104>  (24) 
saltbridge:HIS:104    NaN
saltbridge:HIS:104     -1
Name: 22, dtype: object

>  <pication:HIS:104>  (24) 
pication:HIS:104    NaN
pication:HIS:104     -1
Name: 22, dtype: object

>  <halogenbond:HIS:104>  (24) 
halogenbond:HIS:104    NaN
halogenbond:HIS:104     -1
Name: 22, dtype: object

>  <hydroph_interaction:HIS:104>  (24) 
hydroph_interaction:HIS:104    NaN
hydroph_interaction:HIS:104     -1
Name: 22, dtype: object

>  <pistack:HIS:104>  (24) 
pistack:HIS:104    NaN
pistack:HIS:104     -1
Name: 22, dtype: object

>  <halogenbond:SER:105>  (24) 
halogenbond:SER:105    0.0
halogenbond:SER:105      0
Name: 22, dtype: object

>  <hbond:SER:105>  (24) 
hbond:SER:105    0.0
hbond:SER:105      0
Name: 22, dtype: object

>  <hbond:GLU:106>  (24) 
hbond:GLU:106    0.0
hbond:GLU:106      0
Name: 22, dtype: object

>  <hydroph_interaction:GLU:106>  (24) 
hydroph_interaction:GLU:106    0.0
hydroph_interaction:GLU:106      0
Name: 22, dtype: object

>  <saltbridge:GLU:106>  (24) 
saltbridge:GLU:106    NaN
saltbridge:GLU:106     -1
Name: 22, dtype: object

>  <halogenbond:GLU:106>  (24) 
halogenbond:GLU:106    NaN
halogenbond:GLU:106     -1
Name: 22, dtype: object

>  <hydroph_interaction:PRO:107>  (24) 
hydroph_interaction:PRO:107    0
hydroph_interaction:PRO:107    0
Name: 22, dtype: object

>  <hbond:PRO:107>  (24) 
hbond:PRO:107    0.0
hbond:PRO:107      0
Name: 22, dtype: object

>  <halogenbond:PRO:107>  (24) 
halogenbond:PRO:107    0.0
halogenbond:PRO:107      0
Name: 22, dtype: object

>  <hbond:GLY:108>  (24) 
hbond:GLY:108    NaN
hbond:GLY:108     -1
Name: 22, dtype: object

>  <halogenbond:GLY:108>  (24) 
halogenbond:GLY:108    NaN
halogenbond:GLY:108     -1
Name: 22, dtype: object

>  <hbond:ASP:109>  (24) 
hbond:ASP:109    0.0
hbond:ASP:109      0
Name: 22, dtype: object

>  <hydroph_interaction:ASP:109>  (24) 
hydroph_interaction:ASP:109    0.0
hydroph_interaction:ASP:109      0
Name: 22, dtype: object

>  <saltbridge:ASP:109>  (24) 
saltbridge:ASP:109    NaN
saltbridge:ASP:109     -1
Name: 22, dtype: object

>  <halogenbond:CYS:110>  (24) 
halogenbond:CYS:110    0.0
halogenbond:CYS:110      0
Name: 22, dtype: object

>  <hbond:CYS:110>  (24) 
hbond:CYS:110    0.0
hbond:CYS:110      0
Name: 22, dtype: object

>  <hbond:GLY:111>  (24) 
hbond:GLY:111    NaN
hbond:GLY:111     -1
Name: 22, dtype: object

>  <hbond:GLY:112>  (24) 
hbond:GLY:112    NaN
hbond:GLY:112     -1
Name: 22, dtype: object

>  <hbond:ILE:113>  (24) 
hbond:ILE:113    NaN
hbond:ILE:113     -1
Name: 22, dtype: object

>  <hydroph_interaction:LEU:114>  (24) 
hydroph_interaction:LEU:114    NaN
hydroph_interaction:LEU:114     -1
Name: 22, dtype: object

>  <hbond:LEU:114>  (24) 
hbond:LEU:114    NaN
hbond:LEU:114     -1
Name: 22, dtype: object

>  <hydroph_interaction:ILE:123>  (24) 
hydroph_interaction:ILE:123    NaN
hydroph_interaction:ILE:123     -1
Name: 22, dtype: object

>  <hbond:ILE:123>  (24) 
hbond:ILE:123    NaN
hbond:ILE:123     -1
Name: 22, dtype: object

>  <hydroph_interaction:VAL:124>  (24) 
hydroph_interaction:VAL:124    1.0
hydroph_interaction:VAL:124      1
Name: 22, dtype: object

>  <hbond:VAL:124>  (24) 
hbond:VAL:124    NaN
hbond:VAL:124     -1
Name: 22, dtype: object

>  <halogenbond:VAL:124>  (24) 
halogenbond:VAL:124    NaN
halogenbond:VAL:124     -1
Name: 22, dtype: object

>  <hbond:SER:125>  (24) 
hbond:SER:125    0
hbond:SER:125    0
Name: 22, dtype: object

>  <halogenbond:SER:125>  (24) 
halogenbond:SER:125    NaN
halogenbond:SER:125     -1
Name: 22, dtype: object

>  <hydroph_interaction:THR:126>  (24) 
hydroph_interaction:THR:126    0.0
hydroph_interaction:THR:126      0
Name: 22, dtype: object

>  <hbond:THR:126>  (24) 
hbond:THR:126    0.0
hbond:THR:126      0
Name: 22, dtype: object

>  <halogenbond:THR:126>  (24) 
halogenbond:THR:126    NaN
halogenbond:THR:126     -1
Name: 22, dtype: object

>  <hbond:GLY:127>  (24) 
hbond:GLY:127    0
hbond:GLY:127    0
Name: 22, dtype: object

>  <halogenbond:GLY:127>  (24) 
halogenbond:GLY:127    NaN
halogenbond:GLY:127     -1
Name: 22, dtype: object

>  <hydroph_interaction:GLY:127>  (24) 
hydroph_interaction:GLY:127    NaN
hydroph_interaction:GLY:127     -1
Name: 22, dtype: object

>  <hbond:GLY:128>  (24) 
hbond:GLY:128    NaN
hbond:GLY:128     -1
Name: 22, dtype: object

>  <halogenbond:GLY:128>  (24) 
halogenbond:GLY:128    NaN
halogenbond:GLY:128     -1
Name: 22, dtype: object

>  <hydroph_interaction:GLY:128>  (24) 
hydroph_interaction:GLY:128    NaN
hydroph_interaction:GLY:128     -1
Name: 22, dtype: object

>  <hbond:ASN:129>  (24) 
hbond:ASN:129    NaN
hbond:ASN:129     -1
Name: 22, dtype: object

>  <hydroph_interaction:ASN:129>  (24) 
hydroph_interaction:ASN:129    NaN
hydroph_interaction:ASN:129     -1
Name: 22, dtype: object

>  <halogenbond:ASN:129>  (24) 
halogenbond:ASN:129    NaN
halogenbond:ASN:129     -1
Name: 22, dtype: object

>  <hbond:GLY:130>  (24) 
hbond:GLY:130    NaN
hbond:GLY:130     -1
Name: 22, dtype: object

>  <hbond:LEU:131>  (24) 
hbond:LEU:131    NaN
hbond:LEU:131     -1
Name: 22, dtype: object

>  <hydroph_interaction:LEU:131>  (24) 
hydroph_interaction:LEU:131    NaN
hydroph_interaction:LEU:131     -1
Name: 22, dtype: object

>  <halogenbond:LEU:131>  (24) 
halogenbond:LEU:131    NaN
halogenbond:LEU:131     -1
Name: 22, dtype: object

>  <hydroph_interaction:VAL:132>  (24) 
hydroph_interaction:VAL:132    0.0
hydroph_interaction:VAL:132      0
Name: 22, dtype: object

>  <hbond:VAL:132>  (24) 
hbond:VAL:132    NaN
hbond:VAL:132     -1
Name: 22, dtype: object

>  <hbond:GLY:133>  (24) 
hbond:GLY:133    NaN
hbond:GLY:133     -1
Name: 22, dtype: object

>  <halogenbond:GLY:133>  (24) 
halogenbond:GLY:133    NaN
halogenbond:GLY:133     -1
Name: 22, dtype: object

>  <hydroph_interaction:PHE:134>  (24) 
hydroph_interaction:PHE:134    NaN
hydroph_interaction:PHE:134     -1
Name: 22, dtype: object

>  <hbond:PHE:134>  (24) 
hbond:PHE:134    NaN
hbond:PHE:134     -1
Name: 22, dtype: object

>  <pistack:PHE:134>  (24) 
pistack:PHE:134    NaN
pistack:PHE:134     -1
Name: 22, dtype: object

>  <pication:PHE:134>  (24) 
pication:PHE:134    NaN
pication:PHE:134     -1
Name: 22, dtype: object

>  <halogenbond:PHE:134>  (24) 
halogenbond:PHE:134    NaN
halogenbond:PHE:134     -1
Name: 22, dtype: object

>  <hydroph_interaction:ALA:135>  (24) 
hydroph_interaction:ALA:135    NaN
hydroph_interaction:ALA:135     -1
Name: 22, dtype: object

>  <hbond:ALA:135>  (24) 
hbond:ALA:135    NaN
hbond:ALA:135     -1
Name: 22, dtype: object

$$$$
PV_004538515263
     RDKit          3D

 13 13  0  0  0  0  0  0  0  0999 V2000
   30.5486    8.7209    8.6353 C   0  0  0  0  0  0  0  0  0  0  0  0
   31.3514    9.5309    7.6455 C   0  0  0  0  0  0  0  0  0  0  0  0
   32.3565    8.9927    6.8588 C   0  0  0  0  0  0  0  0  0  0  0  0
   33.1420    9.6059    5.9537 N   0  0  0  0  0  0  0  0  0  0  0  0
   32.9068   10.9049    5.8104 C   0  0  0  0  0  0  0  0  0  0  0  0
   33.9347   11.8909    4.5750 Br  0  0  0  0  0  0  0  0  0  0  0  0
   31.8528   11.6103    6.5930 C   0  0  0  0  0  0  0  0  0  0  0  0
   31.1131   10.8817    7.4798 C   0  0  0  0  0  0  0  0  0  0  0  0
   30.1150   11.5247    8.1939 N   0  0  0  0  0  0  0  0  0  0  0  0
   29.5086   12.6320    7.6559 C   0  0  0  0  0  0  0  0  0  0  0  0
   29.6628   13.0653    6.5181 O   0  0  0  0  0  0  0  0  0  0  0  0
   28.6773   13.2529    8.5784 N   0  0  0  0  0  0  0  0  0  0  0  0
   28.3244   14.6135    8.3481 N   0  0  0  0  0  0  0  0  0  0  0  0
  1  2  1  0
  2  3  2  0
  3  4  1  0
  4  5  2  0
  5  6  1  0
  5  7  1  0
  7  8  2  0
  8  9  1  0
  9 10  1  0
 10 11  2  0
 10 12  1  0
 12 13  1  0
  8  2  1  0
A    1
 C1 
A    2
 C2 
A    3
 C3 
A    4
 N1 
A    5
 C4 
A    6
BR1 
A    7
 C5 
A    8
 C6 
A    9
 N2 
A   10
 C7 
A   11
 O1 
A   12
 N3 
A   13
 N4 
M  END
>  <ref_pdb>  (25) 
Ax0310a

>  <ref_mols>  (25) 
Ax0416a,Ax0310a

>  <original SMILES>  (25) 
Cc1cnc(Br)cc1NC(=O)NN

>  <rationale>  (25) 
info halogenbond:C110+G127+D39+E85+Q95+E106+E88+T126+P107+H104+Y64+C65+S87+N129+F83+R93+L131+I82+G128+P91+N19+H21+V84+G133+Y90+Y89+H97+L81+F134+L98+R20+G103+S66+S67+S7+G108+R38+V124+M99+S36; hbond:S125+E88+Q95+G108+G103+G130+L131+N129+H104+R68+V124+R93+P91+F83+S67+S66+G112+V132+R20+Y89+S77+A135+Y63+A92+A101+M99+F134+L100+I82+Y64+S36+L98+V84+L81+Y94+S80+R38+S37+V102+G8+I123+G111+I113+L114+C65+L22+S96; hydroph_interaction:V124+P107+N129+N19+L40+I123+A135+Q95+L98+F83+R93+H104+R20+A86+V74+P91+A101+F76+M99+L114+A92+Y94+R68+Y72+Y64+V18+V102+W28+G127+G128+L81; pication:H21+H104+R93+Y63+F134+Y90+R68+F83+R20; pistack:Y89+Y90+H104+F134+Y63+F83+Y94; saltbridge:R93+H104+E106+D109+E85+E88+R68+R20; 

>  <intxn_cluster>  (25) 
-1

>  <intxn_cluster_rank>  (25) 
-1

>  <N_interactions>  (25) 
5

>  <∆∆G>  (25) 
-7.688393

>  <$/mg>  (25) 
163.0

>  <comRMSD>  (25) 
0.612614

>  <N_rotatable_bonds>  (25) 
3

>  <deep_P1_sidechain>  (25) 
nan

>  <farthest_distance_to_substrate>  (25) 
2.500242

>  <hbond:SER:7>  (25) 
hbond:SER:7    0.0
hbond:SER:7      0
Name: 23, dtype: object

>  <halogenbond:SER:7>  (25) 
halogenbond:SER:7    NaN
halogenbond:SER:7     -1
Name: 23, dtype: object

>  <hbond:GLY:8>  (25) 
hbond:GLY:8    NaN
hbond:GLY:8     -1
Name: 23, dtype: object

>  <hydroph_interaction:VAL:18>  (25) 
hydroph_interaction:VAL:18    NaN
hydroph_interaction:VAL:18     -1
Name: 23, dtype: object

>  <hbond:ASN:19>  (25) 
hbond:ASN:19    0.0
hbond:ASN:19      0
Name: 23, dtype: object

>  <hydroph_interaction:ASN:19>  (25) 
hydroph_interaction:ASN:19    NaN
hydroph_interaction:ASN:19     -1
Name: 23, dtype: object

>  <halogenbond:ASN:19>  (25) 
halogenbond:ASN:19    NaN
halogenbond:ASN:19     -1
Name: 23, dtype: object

>  <hbond:ARG:20>  (25) 
hbond:ARG:20    NaN
hbond:ARG:20     -1
Name: 23, dtype: object

>  <hydroph_interaction:ARG:20>  (25) 
hydroph_interaction:ARG:20    NaN
hydroph_interaction:ARG:20     -1
Name: 23, dtype: object

>  <saltbridge:ARG:20>  (25) 
saltbridge:ARG:20    NaN
saltbridge:ARG:20     -1
Name: 23, dtype: object

>  <halogenbond:ARG:20>  (25) 
halogenbond:ARG:20    NaN
halogenbond:ARG:20     -1
Name: 23, dtype: object

>  <pication:ARG:20>  (25) 
pication:ARG:20    NaN
pication:ARG:20     -1
Name: 23, dtype: object

>  <hbond:HIS:21>  (25) 
hbond:HIS:21    0.0
hbond:HIS:21      0
Name: 23, dtype: object

>  <hydroph_interaction:HIS:21>  (25) 
hydroph_interaction:HIS:21    0.0
hydroph_interaction:HIS:21      0
Name: 23, dtype: object

>  <pistack:HIS:21>  (25) 
pistack:HIS:21    0.0
pistack:HIS:21      0
Name: 23, dtype: object

>  <pication:HIS:21>  (25) 
pication:HIS:21    NaN
pication:HIS:21     -1
Name: 23, dtype: object

>  <saltbridge:HIS:21>  (25) 
saltbridge:HIS:21    0.0
saltbridge:HIS:21      0
Name: 23, dtype: object

>  <halogenbond:HIS:21>  (25) 
halogenbond:HIS:21    NaN
halogenbond:HIS:21     -1
Name: 23, dtype: object

>  <hydroph_interaction:LEU:22>  (25) 
hydroph_interaction:LEU:22    0.0
hydroph_interaction:LEU:22      0
Name: 23, dtype: object

>  <hbond:LEU:22>  (25) 
hbond:LEU:22    NaN
hbond:LEU:22     -1
Name: 23, dtype: object

>  <hydroph_interaction:TRP:28>  (25) 
hydroph_interaction:TRP:28    NaN
hydroph_interaction:TRP:28     -1
Name: 23, dtype: object

>  <hbond:SER:36>  (25) 
hbond:SER:36    NaN
hbond:SER:36     -1
Name: 23, dtype: object

>  <halogenbond:SER:36>  (25) 
halogenbond:SER:36    NaN
halogenbond:SER:36     -1
Name: 23, dtype: object

>  <hbond:SER:37>  (25) 
hbond:SER:37    NaN
hbond:SER:37     -1
Name: 23, dtype: object

>  <hbond:ARG:38>  (25) 
hbond:ARG:38    NaN
hbond:ARG:38     -1
Name: 23, dtype: object

>  <halogenbond:ARG:38>  (25) 
halogenbond:ARG:38    NaN
halogenbond:ARG:38     -1
Name: 23, dtype: object

>  <saltbridge:ASP:39>  (25) 
saltbridge:ASP:39    0.0
saltbridge:ASP:39      0
Name: 23, dtype: object

>  <halogenbond:ASP:39>  (25) 
halogenbond:ASP:39    NaN
halogenbond:ASP:39     -1
Name: 23, dtype: object

>  <hbond:ASP:39>  (25) 
hbond:ASP:39    0.0
hbond:ASP:39      0
Name: 23, dtype: object

>  <hydroph_interaction:ASP:39>  (25) 
hydroph_interaction:ASP:39    0.0
hydroph_interaction:ASP:39      0
Name: 23, dtype: object

>  <hydroph_interaction:LEU:40>  (25) 
hydroph_interaction:LEU:40    NaN
hydroph_interaction:LEU:40     -1
Name: 23, dtype: object

>  <hydroph_interaction:TYR:63>  (25) 
hydroph_interaction:TYR:63    0.0
hydroph_interaction:TYR:63      0
Name: 23, dtype: object

>  <hbond:TYR:63>  (25) 
hbond:TYR:63    NaN
hbond:TYR:63     -1
Name: 23, dtype: object

>  <pistack:TYR:63>  (25) 
pistack:TYR:63    NaN
pistack:TYR:63     -1
Name: 23, dtype: object

>  <pication:TYR:63>  (25) 
pication:TYR:63    NaN
pication:TYR:63     -1
Name: 23, dtype: object

>  <halogenbond:TYR:64>  (25) 
halogenbond:TYR:64    NaN
halogenbond:TYR:64     -1
Name: 23, dtype: object

>  <hbond:TYR:64>  (25) 
hbond:TYR:64    NaN
hbond:TYR:64     -1
Name: 23, dtype: object

>  <hydroph_interaction:TYR:64>  (25) 
hydroph_interaction:TYR:64    NaN
hydroph_interaction:TYR:64     -1
Name: 23, dtype: object

>  <halogenbond:CYS:65>  (25) 
halogenbond:CYS:65    NaN
halogenbond:CYS:65     -1
Name: 23, dtype: object

>  <hbond:CYS:65>  (25) 
hbond:CYS:65    NaN
hbond:CYS:65     -1
Name: 23, dtype: object

>  <hbond:SER:66>  (25) 
hbond:SER:66    NaN
hbond:SER:66     -1
Name: 23, dtype: object

>  <halogenbond:SER:66>  (25) 
halogenbond:SER:66    NaN
halogenbond:SER:66     -1
Name: 23, dtype: object

>  <hbond:SER:67>  (25) 
hbond:SER:67    NaN
hbond:SER:67     -1
Name: 23, dtype: object

>  <halogenbond:SER:67>  (25) 
halogenbond:SER:67    NaN
halogenbond:SER:67     -1
Name: 23, dtype: object

>  <hbond:ARG:68>  (25) 
hbond:ARG:68    NaN
hbond:ARG:68     -1
Name: 23, dtype: object

>  <saltbridge:ARG:68>  (25) 
saltbridge:ARG:68    NaN
saltbridge:ARG:68     -1
Name: 23, dtype: object

>  <hydroph_interaction:ARG:68>  (25) 
hydroph_interaction:ARG:68    NaN
hydroph_interaction:ARG:68     -1
Name: 23, dtype: object

>  <pication:ARG:68>  (25) 
pication:ARG:68    NaN
pication:ARG:68     -1
Name: 23, dtype: object

>  <hydroph_interaction:TYR:72>  (25) 
hydroph_interaction:TYR:72    NaN
hydroph_interaction:TYR:72     -1
Name: 23, dtype: object

>  <hydroph_interaction:VAL:74>  (25) 
hydroph_interaction:VAL:74    NaN
hydroph_interaction:VAL:74     -1
Name: 23, dtype: object

>  <hydroph_interaction:PHE:76>  (25) 
hydroph_interaction:PHE:76    NaN
hydroph_interaction:PHE:76     -1
Name: 23, dtype: object

>  <hbond:SER:77>  (25) 
hbond:SER:77    NaN
hbond:SER:77     -1
Name: 23, dtype: object

>  <hbond:SER:80>  (25) 
hbond:SER:80    NaN
hbond:SER:80     -1
Name: 23, dtype: object

>  <hbond:LEU:81>  (25) 
hbond:LEU:81    NaN
hbond:LEU:81     -1
Name: 23, dtype: object

>  <halogenbond:LEU:81>  (25) 
halogenbond:LEU:81    NaN
halogenbond:LEU:81     -1
Name: 23, dtype: object

>  <hydroph_interaction:LEU:81>  (25) 
hydroph_interaction:LEU:81    NaN
hydroph_interaction:LEU:81     -1
Name: 23, dtype: object

>  <hydroph_interaction:ILE:82>  (25) 
hydroph_interaction:ILE:82    0.0
hydroph_interaction:ILE:82      0
Name: 23, dtype: object

>  <halogenbond:ILE:82>  (25) 
halogenbond:ILE:82    NaN
halogenbond:ILE:82     -1
Name: 23, dtype: object

>  <hbond:ILE:82>  (25) 
hbond:ILE:82    NaN
hbond:ILE:82     -1
Name: 23, dtype: object

>  <hbond:PHE:83>  (25) 
hbond:PHE:83    NaN
hbond:PHE:83     -1
Name: 23, dtype: object

>  <hydroph_interaction:PHE:83>  (25) 
hydroph_interaction:PHE:83    NaN
hydroph_interaction:PHE:83     -1
Name: 23, dtype: object

>  <halogenbond:PHE:83>  (25) 
halogenbond:PHE:83    NaN
halogenbond:PHE:83     -1
Name: 23, dtype: object

>  <pistack:PHE:83>  (25) 
pistack:PHE:83    NaN
pistack:PHE:83     -1
Name: 23, dtype: object

>  <pication:PHE:83>  (25) 
pication:PHE:83    NaN
pication:PHE:83     -1
Name: 23, dtype: object

>  <hydroph_interaction:VAL:84>  (25) 
hydroph_interaction:VAL:84    0.0
hydroph_interaction:VAL:84      0
Name: 23, dtype: object

>  <halogenbond:VAL:84>  (25) 
halogenbond:VAL:84    NaN
halogenbond:VAL:84     -1
Name: 23, dtype: object

>  <hbond:VAL:84>  (25) 
hbond:VAL:84    NaN
hbond:VAL:84     -1
Name: 23, dtype: object

>  <hydroph_interaction:GLU:85>  (25) 
hydroph_interaction:GLU:85    0.0
hydroph_interaction:GLU:85      0
Name: 23, dtype: object

>  <hbond:GLU:85>  (25) 
hbond:GLU:85    0.0
hbond:GLU:85      0
Name: 23, dtype: object

>  <halogenbond:GLU:85>  (25) 
halogenbond:GLU:85    NaN
halogenbond:GLU:85     -1
Name: 23, dtype: object

>  <saltbridge:GLU:85>  (25) 
saltbridge:GLU:85    NaN
saltbridge:GLU:85     -1
Name: 23, dtype: object

>  <halogenbond:ALA:86>  (25) 
halogenbond:ALA:86    0.0
halogenbond:ALA:86      0
Name: 23, dtype: object

>  <hbond:ALA:86>  (25) 
hbond:ALA:86    0.0
hbond:ALA:86      0
Name: 23, dtype: object

>  <hydroph_interaction:ALA:86>  (25) 
hydroph_interaction:ALA:86    NaN
hydroph_interaction:ALA:86     -1
Name: 23, dtype: object

>  <hbond:SER:87>  (25) 
hbond:SER:87    0
hbond:SER:87    0
Name: 23, dtype: object

>  <halogenbond:SER:87>  (25) 
halogenbond:SER:87    NaN
halogenbond:SER:87     -1
Name: 23, dtype: object

>  <hbond:GLU:88>  (25) 
hbond:GLU:88    1.0
hbond:GLU:88      1
Name: 23, dtype: object

>  <hydroph_interaction:GLU:88>  (25) 
hydroph_interaction:GLU:88    0.0
hydroph_interaction:GLU:88      0
Name: 23, dtype: object

>  <halogenbond:GLU:88>  (25) 
halogenbond:GLU:88    NaN
halogenbond:GLU:88     -1
Name: 23, dtype: object

>  <saltbridge:GLU:88>  (25) 
saltbridge:GLU:88    NaN
saltbridge:GLU:88     -1
Name: 23, dtype: object

>  <hydroph_interaction:TYR:89>  (25) 
hydroph_interaction:TYR:89    0.0
hydroph_interaction:TYR:89      0
Name: 23, dtype: object

>  <pistack:TYR:89>  (25) 
pistack:TYR:89    NaN
pistack:TYR:89     -1
Name: 23, dtype: object

>  <hbond:TYR:89>  (25) 
hbond:TYR:89    NaN
hbond:TYR:89     -1
Name: 23, dtype: object

>  <halogenbond:TYR:89>  (25) 
halogenbond:TYR:89    NaN
halogenbond:TYR:89     -1
Name: 23, dtype: object

>  <hydroph_interaction:TYR:90>  (25) 
hydroph_interaction:TYR:90    0.0
hydroph_interaction:TYR:90      0
Name: 23, dtype: object

>  <hbond:TYR:90>  (25) 
hbond:TYR:90    0.0
hbond:TYR:90      0
Name: 23, dtype: object

>  <pistack:TYR:90>  (25) 
pistack:TYR:90    NaN
pistack:TYR:90     -1
Name: 23, dtype: object

>  <halogenbond:TYR:90>  (25) 
halogenbond:TYR:90    NaN
halogenbond:TYR:90     -1
Name: 23, dtype: object

>  <pication:TYR:90>  (25) 
pication:TYR:90    NaN
pication:TYR:90     -1
Name: 23, dtype: object

>  <hbond:PRO:91>  (25) 
hbond:PRO:91    NaN
hbond:PRO:91     -1
Name: 23, dtype: object

>  <hydroph_interaction:PRO:91>  (25) 
hydroph_interaction:PRO:91    NaN
hydroph_interaction:PRO:91     -1
Name: 23, dtype: object

>  <halogenbond:PRO:91>  (25) 
halogenbond:PRO:91    NaN
halogenbond:PRO:91     -1
Name: 23, dtype: object

>  <hbond:ALA:92>  (25) 
hbond:ALA:92    NaN
hbond:ALA:92     -1
Name: 23, dtype: object

>  <hydroph_interaction:ALA:92>  (25) 
hydroph_interaction:ALA:92    NaN
hydroph_interaction:ALA:92     -1
Name: 23, dtype: object

>  <saltbridge:ARG:93>  (25) 
saltbridge:ARG:93    NaN
saltbridge:ARG:93     -1
Name: 23, dtype: object

>  <hbond:ARG:93>  (25) 
hbond:ARG:93    NaN
hbond:ARG:93     -1
Name: 23, dtype: object

>  <hydroph_interaction:ARG:93>  (25) 
hydroph_interaction:ARG:93    NaN
hydroph_interaction:ARG:93     -1
Name: 23, dtype: object

>  <halogenbond:ARG:93>  (25) 
halogenbond:ARG:93    NaN
halogenbond:ARG:93     -1
Name: 23, dtype: object

>  <pication:ARG:93>  (25) 
pication:ARG:93    NaN
pication:ARG:93     -1
Name: 23, dtype: object

>  <hydroph_interaction:TYR:94>  (25) 
hydroph_interaction:TYR:94    NaN
hydroph_interaction:TYR:94     -1
Name: 23, dtype: object

>  <pistack:TYR:94>  (25) 
pistack:TYR:94    NaN
pistack:TYR:94     -1
Name: 23, dtype: object

>  <hbond:TYR:94>  (25) 
hbond:TYR:94    NaN
hbond:TYR:94     -1
Name: 23, dtype: object

>  <hbond:GLN:95>  (25) 
hbond:GLN:95    NaN
hbond:GLN:95     -1
Name: 23, dtype: object

>  <hydroph_interaction:GLN:95>  (25) 
hydroph_interaction:GLN:95    NaN
hydroph_interaction:GLN:95     -1
Name: 23, dtype: object

>  <halogenbond:GLN:95>  (25) 
halogenbond:GLN:95    NaN
halogenbond:GLN:95     -1
Name: 23, dtype: object

>  <hbond:SER:96>  (25) 
hbond:SER:96    NaN
hbond:SER:96     -1
Name: 23, dtype: object

>  <halogenbond:HIS:97>  (25) 
halogenbond:HIS:97    NaN
halogenbond:HIS:97     -1
Name: 23, dtype: object

>  <hydroph_interaction:LEU:98>  (25) 
hydroph_interaction:LEU:98    NaN
hydroph_interaction:LEU:98     -1
Name: 23, dtype: object

>  <hbond:LEU:98>  (25) 
hbond:LEU:98    NaN
hbond:LEU:98     -1
Name: 23, dtype: object

>  <halogenbond:LEU:98>  (25) 
halogenbond:LEU:98    NaN
halogenbond:LEU:98     -1
Name: 23, dtype: object

>  <hbond:MET:99>  (25) 
hbond:MET:99    NaN
hbond:MET:99     -1
Name: 23, dtype: object

>  <hydroph_interaction:MET:99>  (25) 
hydroph_interaction:MET:99    NaN
hydroph_interaction:MET:99     -1
Name: 23, dtype: object

>  <halogenbond:MET:99>  (25) 
halogenbond:MET:99    NaN
halogenbond:MET:99     -1
Name: 23, dtype: object

>  <hydroph_interaction:LEU:100>  (25) 
hydroph_interaction:LEU:100    0.0
hydroph_interaction:LEU:100      0
Name: 23, dtype: object

>  <hbond:LEU:100>  (25) 
hbond:LEU:100    NaN
hbond:LEU:100     -1
Name: 23, dtype: object

>  <hbond:ALA:101>  (25) 
hbond:ALA:101    NaN
hbond:ALA:101     -1
Name: 23, dtype: object

>  <hydroph_interaction:ALA:101>  (25) 
hydroph_interaction:ALA:101    NaN
hydroph_interaction:ALA:101     -1
Name: 23, dtype: object

>  <hydroph_interaction:VAL:102>  (25) 
hydroph_interaction:VAL:102    NaN
hydroph_interaction:VAL:102     -1
Name: 23, dtype: object

>  <hbond:VAL:102>  (25) 
hbond:VAL:102    NaN
hbond:VAL:102     -1
Name: 23, dtype: object

>  <hbond:GLY:103>  (25) 
hbond:GLY:103    NaN
hbond:GLY:103     -1
Name: 23, dtype: object

>  <halogenbond:GLY:103>  (25) 
halogenbond:GLY:103    NaN
halogenbond:GLY:103     -1
Name: 23, dtype: object

>  <hbond:HIS:104>  (25) 
hbond:HIS:104    NaN
hbond:HIS:104     -1
Name: 23, dtype: object

>  <saltbridge:HIS:104>  (25) 
saltbridge:HIS:104    NaN
saltbridge:HIS:104     -1
Name: 23, dtype: object

>  <pication:HIS:104>  (25) 
pication:HIS:104    NaN
pication:HIS:104     -1
Name: 23, dtype: object

>  <halogenbond:HIS:104>  (25) 
halogenbond:HIS:104    NaN
halogenbond:HIS:104     -1
Name: 23, dtype: object

>  <hydroph_interaction:HIS:104>  (25) 
hydroph_interaction:HIS:104    NaN
hydroph_interaction:HIS:104     -1
Name: 23, dtype: object

>  <pistack:HIS:104>  (25) 
pistack:HIS:104    NaN
pistack:HIS:104     -1
Name: 23, dtype: object

>  <halogenbond:SER:105>  (25) 
halogenbond:SER:105    0.0
halogenbond:SER:105      0
Name: 23, dtype: object

>  <hbond:SER:105>  (25) 
hbond:SER:105    0.0
hbond:SER:105      0
Name: 23, dtype: object

>  <hbond:GLU:106>  (25) 
hbond:GLU:106    0.0
hbond:GLU:106      0
Name: 23, dtype: object

>  <hydroph_interaction:GLU:106>  (25) 
hydroph_interaction:GLU:106    0.0
hydroph_interaction:GLU:106      0
Name: 23, dtype: object

>  <saltbridge:GLU:106>  (25) 
saltbridge:GLU:106    NaN
saltbridge:GLU:106     -1
Name: 23, dtype: object

>  <halogenbond:GLU:106>  (25) 
halogenbond:GLU:106    NaN
halogenbond:GLU:106     -1
Name: 23, dtype: object

>  <hydroph_interaction:PRO:107>  (25) 
hydroph_interaction:PRO:107    1
hydroph_interaction:PRO:107    1
Name: 23, dtype: object

>  <hbond:PRO:107>  (25) 
hbond:PRO:107    0.0
hbond:PRO:107      0
Name: 23, dtype: object

>  <halogenbond:PRO:107>  (25) 
halogenbond:PRO:107    NaN
halogenbond:PRO:107     -1
Name: 23, dtype: object

>  <hbond:GLY:108>  (25) 
hbond:GLY:108    NaN
hbond:GLY:108     -1
Name: 23, dtype: object

>  <halogenbond:GLY:108>  (25) 
halogenbond:GLY:108    NaN
halogenbond:GLY:108     -1
Name: 23, dtype: object

>  <hbond:ASP:109>  (25) 
hbond:ASP:109    0.0
hbond:ASP:109      0
Name: 23, dtype: object

>  <hydroph_interaction:ASP:109>  (25) 
hydroph_interaction:ASP:109    0.0
hydroph_interaction:ASP:109      0
Name: 23, dtype: object

>  <saltbridge:ASP:109>  (25) 
saltbridge:ASP:109    NaN
saltbridge:ASP:109     -1
Name: 23, dtype: object

>  <halogenbond:CYS:110>  (25) 
halogenbond:CYS:110    NaN
halogenbond:CYS:110     -1
Name: 23, dtype: object

>  <hbond:CYS:110>  (25) 
hbond:CYS:110    0.0
hbond:CYS:110      0
Name: 23, dtype: object

>  <hbond:GLY:111>  (25) 
hbond:GLY:111    NaN
hbond:GLY:111     -1
Name: 23, dtype: object

>  <hbond:GLY:112>  (25) 
hbond:GLY:112    NaN
hbond:GLY:112     -1
Name: 23, dtype: object

>  <hbond:ILE:113>  (25) 
hbond:ILE:113    NaN
hbond:ILE:113     -1
Name: 23, dtype: object

>  <hydroph_interaction:LEU:114>  (25) 
hydroph_interaction:LEU:114    NaN
hydroph_interaction:LEU:114     -1
Name: 23, dtype: object

>  <hbond:LEU:114>  (25) 
hbond:LEU:114    NaN
hbond:LEU:114     -1
Name: 23, dtype: object

>  <hydroph_interaction:ILE:123>  (25) 
hydroph_interaction:ILE:123    NaN
hydroph_interaction:ILE:123     -1
Name: 23, dtype: object

>  <hbond:ILE:123>  (25) 
hbond:ILE:123    NaN
hbond:ILE:123     -1
Name: 23, dtype: object

>  <hydroph_interaction:VAL:124>  (25) 
hydroph_interaction:VAL:124    1.0
hydroph_interaction:VAL:124      1
Name: 23, dtype: object

>  <hbond:VAL:124>  (25) 
hbond:VAL:124    NaN
hbond:VAL:124     -1
Name: 23, dtype: object

>  <halogenbond:VAL:124>  (25) 
halogenbond:VAL:124    NaN
halogenbond:VAL:124     -1
Name: 23, dtype: object

>  <hbond:SER:125>  (25) 
hbond:SER:125    2
hbond:SER:125    2
Name: 23, dtype: object

>  <halogenbond:SER:125>  (25) 
halogenbond:SER:125    0.0
halogenbond:SER:125      0
Name: 23, dtype: object

>  <hydroph_interaction:THR:126>  (25) 
hydroph_interaction:THR:126    0.0
hydroph_interaction:THR:126      0
Name: 23, dtype: object

>  <hbond:THR:126>  (25) 
hbond:THR:126    0.0
hbond:THR:126      0
Name: 23, dtype: object

>  <halogenbond:THR:126>  (25) 
halogenbond:THR:126    NaN
halogenbond:THR:126     -1
Name: 23, dtype: object

>  <hbond:GLY:127>  (25) 
hbond:GLY:127    0
hbond:GLY:127    0
Name: 23, dtype: object

>  <halogenbond:GLY:127>  (25) 
halogenbond:GLY:127    NaN
halogenbond:GLY:127     -1
Name: 23, dtype: object

>  <hydroph_interaction:GLY:127>  (25) 
hydroph_interaction:GLY:127    NaN
hydroph_interaction:GLY:127     -1
Name: 23, dtype: object

>  <hbond:GLY:128>  (25) 
hbond:GLY:128    0.0
hbond:GLY:128      0
Name: 23, dtype: object

>  <halogenbond:GLY:128>  (25) 
halogenbond:GLY:128    NaN
halogenbond:GLY:128     -1
Name: 23, dtype: object

>  <hydroph_interaction:GLY:128>  (25) 
hydroph_interaction:GLY:128    NaN
hydroph_interaction:GLY:128     -1
Name: 23, dtype: object

>  <hbond:ASN:129>  (25) 
hbond:ASN:129    NaN
hbond:ASN:129     -1
Name: 23, dtype: object

>  <hydroph_interaction:ASN:129>  (25) 
hydroph_interaction:ASN:129    NaN
hydroph_interaction:ASN:129     -1
Name: 23, dtype: object

>  <halogenbond:ASN:129>  (25) 
halogenbond:ASN:129    NaN
halogenbond:ASN:129     -1
Name: 23, dtype: object

>  <hbond:GLY:130>  (25) 
hbond:GLY:130    NaN
hbond:GLY:130     -1
Name: 23, dtype: object

>  <hbond:LEU:131>  (25) 
hbond:LEU:131    NaN
hbond:LEU:131     -1
Name: 23, dtype: object

>  <hydroph_interaction:LEU:131>  (25) 
hydroph_interaction:LEU:131    0.0
hydroph_interaction:LEU:131      0
Name: 23, dtype: object

>  <halogenbond:LEU:131>  (25) 
halogenbond:LEU:131    NaN
halogenbond:LEU:131     -1
Name: 23, dtype: object

>  <hydroph_interaction:VAL:132>  (25) 
hydroph_interaction:VAL:132    0.0
hydroph_interaction:VAL:132      0
Name: 23, dtype: object

>  <hbond:VAL:132>  (25) 
hbond:VAL:132    NaN
hbond:VAL:132     -1
Name: 23, dtype: object

>  <hbond:GLY:133>  (25) 
hbond:GLY:133    0.0
hbond:GLY:133      0
Name: 23, dtype: object

>  <halogenbond:GLY:133>  (25) 
halogenbond:GLY:133    NaN
halogenbond:GLY:133     -1
Name: 23, dtype: object

>  <hydroph_interaction:PHE:134>  (25) 
hydroph_interaction:PHE:134    0.0
hydroph_interaction:PHE:134      0
Name: 23, dtype: object

>  <hbond:PHE:134>  (25) 
hbond:PHE:134    NaN
hbond:PHE:134     -1
Name: 23, dtype: object

>  <pistack:PHE:134>  (25) 
pistack:PHE:134    NaN
pistack:PHE:134     -1
Name: 23, dtype: object

>  <pication:PHE:134>  (25) 
pication:PHE:134    NaN
pication:PHE:134     -1
Name: 23, dtype: object

>  <halogenbond:PHE:134>  (25) 
halogenbond:PHE:134    NaN
halogenbond:PHE:134     -1
Name: 23, dtype: object

>  <hydroph_interaction:ALA:135>  (25) 
hydroph_interaction:ALA:135    NaN
hydroph_interaction:ALA:135     -1
Name: 23, dtype: object

>  <hbond:ALA:135>  (25) 
hbond:ALA:135    NaN
hbond:ALA:135     -1
Name: 23, dtype: object

$$$$
Z5088932893
     RDKit          3D

 15 16  0  0  0  0  0  0  0  0999 V2000
   30.4283    8.0776    8.6921 C   0  0  0  0  0  0  0  0  0  0  0  0
   31.0227    9.2604    7.9979 C   0  0  0  0  0  0  0  0  0  0  0  0
   32.0048    9.0768    7.0499 C   0  0  0  0  0  0  0  0  0  0  0  0
   32.5096   10.2223    6.4501 C   0  0  0  0  0  0  0  0  0  0  0  0
   32.0169   11.5413    6.8218 C   0  0  0  0  0  0  0  0  0  0  0  0
   32.6917   12.4539    6.0805 N   0  0  0  0  0  0  0  0  0  0  0  0
   33.5508   11.7227    5.2968 C   0  0  0  0  0  0  0  0  0  0  0  0
   33.4549   10.4050    5.5015 N   0  0  0  0  0  0  0  0  0  0  0  0
   31.0279   11.6743    7.7860 C   0  0  0  0  0  0  0  0  0  0  0  0
   30.4971   12.9977    8.2090 C   0  0  0  0  0  0  0  0  0  0  0  0
   31.2021   13.6708    8.9507 O   0  0  0  0  0  0  0  0  0  0  0  0
   29.2779   13.4045    7.7660 N   0  0  0  0  0  0  0  0  0  0  0  0
   28.5580   14.2208    8.5414 C   0  0  0  0  0  0  0  0  0  0  0  0
   28.8939   13.3803    6.3702 C   0  0  0  0  0  0  0  0  0  0  0  0
   30.5572   10.5012    8.3452 C   0  0  0  0  0  0  0  0  0  0  0  0
  1  2  1  0
  2  3  2  0
  3  4  1  0
  4  5  2  0
  5  6  1  0
  6  7  1  0
  7  8  2  0
  5  9  1  0
  9 10  1  0
 10 11  2  0
 10 12  1  0
 12 13  1  0
 12 14  1  0
  9 15  2  0
 15  2  1  0
  8  4  1  0
A    1
 C1 
A    2
 C2 
A    3
 C3 
A    4
 C4 
A    5
 C5 
A    6
 N1 
A    7
 C6 
A    8
 N2 
A    9
 C7 
A   10
 C8 
A   11
 O1 
A   12
 N3 
A   13
 C9 
A   14
 C10
A   15
 C11
M  END
>  <ref_pdb>  (26) 
Ax0310a

>  <ref_mols>  (26) 
Ax0554a,Ax0739a

>  <original SMILES>  (26) 
Cc1cc(C(=O)N(C)C)c2[nH]cnc2c1

>  <rationale>  (26) 
info halogenbond:C110+G127+D39+A86+S125+E85+Q95+E106+E88+T126+P107+H104+Y64+C65+S87+N129+F83+R93+L131+I82+G128+P91+N19+H21+V84+G133+Y90+Y89+H97+L81+F134+L98+R20+G103+S66+S67+S7+G108+R38+V124+M99+S36; hbond:S87+Y90+Q95+D39+A86+E85+G108+G103+G128+G130+L131+N129+N19+H104+R68+V124+R93+P91+F83+S67+S7+S66+G112+G133+V132+R20+Y89+S77+A135+Y63+A92+A101+M99+F134+L100+I82+Y64+S36+L98+V84+L81+Y94+S80+R38+S37+V102+G8+I123+G111+I113+L114+C65+L22+S96; hydroph_interaction:V84+V124+T126+H21+L22+E85+E106+N129+D39+N19+L40+I123+A135+Q95+I82+L100+L98+L131+F83+R93+V132+Y63+F134+H104+R20+A86+V74+P91+A101+F76+M99+L114+A92+Y94+R68+Y72+Y64+V18+V102+W28+G127+G128+L81; pication:H21+H104+R93+Y63+F134+Y90+R68+F83+R20; pistack:H21+Y89+Y90+H104+F134+Y63+F83+Y94; saltbridge:D39+R93+H104+E106+D109+E85+E88+R68+R20; 

>  <intxn_cluster>  (26) 
-1

>  <intxn_cluster_rank>  (26) 
-1

>  <N_interactions>  (26) 
2

>  <∆∆G>  (26) 
-11.432849

>  <$/mg>  (26) 
163.0

>  <comRMSD>  (26) 
0.766929

>  <N_rotatable_bonds>  (26) 
4

>  <deep_P1_sidechain>  (26) 
nan

>  <farthest_distance_to_substrate>  (26) 
2.311455

>  <hbond:SER:7>  (26) 
hbond:SER:7    NaN
hbond:SER:7     -1
Name: 24, dtype: object

>  <halogenbond:SER:7>  (26) 
halogenbond:SER:7    NaN
halogenbond:SER:7     -1
Name: 24, dtype: object

>  <hbond:GLY:8>  (26) 
hbond:GLY:8    NaN
hbond:GLY:8     -1
Name: 24, dtype: object

>  <hydroph_interaction:VAL:18>  (26) 
hydroph_interaction:VAL:18    NaN
hydroph_interaction:VAL:18     -1
Name: 24, dtype: object

>  <hbond:ASN:19>  (26) 
hbond:ASN:19    NaN
hbond:ASN:19     -1
Name: 24, dtype: object

>  <hydroph_interaction:ASN:19>  (26) 
hydroph_interaction:ASN:19    NaN
hydroph_interaction:ASN:19     -1
Name: 24, dtype: object

>  <halogenbond:ASN:19>  (26) 
halogenbond:ASN:19    NaN
halogenbond:ASN:19     -1
Name: 24, dtype: object

>  <hbond:ARG:20>  (26) 
hbond:ARG:20    NaN
hbond:ARG:20     -1
Name: 24, dtype: object

>  <hydroph_interaction:ARG:20>  (26) 
hydroph_interaction:ARG:20    NaN
hydroph_interaction:ARG:20     -1
Name: 24, dtype: object

>  <saltbridge:ARG:20>  (26) 
saltbridge:ARG:20    NaN
saltbridge:ARG:20     -1
Name: 24, dtype: object

>  <halogenbond:ARG:20>  (26) 
halogenbond:ARG:20    NaN
halogenbond:ARG:20     -1
Name: 24, dtype: object

>  <pication:ARG:20>  (26) 
pication:ARG:20    NaN
pication:ARG:20     -1
Name: 24, dtype: object

>  <hbond:HIS:21>  (26) 
hbond:HIS:21    0.0
hbond:HIS:21      0
Name: 24, dtype: object

>  <hydroph_interaction:HIS:21>  (26) 
hydroph_interaction:HIS:21    NaN
hydroph_interaction:HIS:21     -1
Name: 24, dtype: object

>  <pistack:HIS:21>  (26) 
pistack:HIS:21    NaN
pistack:HIS:21     -1
Name: 24, dtype: object

>  <pication:HIS:21>  (26) 
pication:HIS:21    NaN
pication:HIS:21     -1
Name: 24, dtype: object

>  <saltbridge:HIS:21>  (26) 
saltbridge:HIS:21    0.0
saltbridge:HIS:21      0
Name: 24, dtype: object

>  <halogenbond:HIS:21>  (26) 
halogenbond:HIS:21    NaN
halogenbond:HIS:21     -1
Name: 24, dtype: object

>  <hydroph_interaction:LEU:22>  (26) 
hydroph_interaction:LEU:22    NaN
hydroph_interaction:LEU:22     -1
Name: 24, dtype: object

>  <hbond:LEU:22>  (26) 
hbond:LEU:22    NaN
hbond:LEU:22     -1
Name: 24, dtype: object

>  <hydroph_interaction:TRP:28>  (26) 
hydroph_interaction:TRP:28    NaN
hydroph_interaction:TRP:28     -1
Name: 24, dtype: object

>  <hbond:SER:36>  (26) 
hbond:SER:36    NaN
hbond:SER:36     -1
Name: 24, dtype: object

>  <halogenbond:SER:36>  (26) 
halogenbond:SER:36    NaN
halogenbond:SER:36     -1
Name: 24, dtype: object

>  <hbond:SER:37>  (26) 
hbond:SER:37    NaN
hbond:SER:37     -1
Name: 24, dtype: object

>  <hbond:ARG:38>  (26) 
hbond:ARG:38    NaN
hbond:ARG:38     -1
Name: 24, dtype: object

>  <halogenbond:ARG:38>  (26) 
halogenbond:ARG:38    NaN
halogenbond:ARG:38     -1
Name: 24, dtype: object

>  <saltbridge:ASP:39>  (26) 
saltbridge:ASP:39    NaN
saltbridge:ASP:39     -1
Name: 24, dtype: object

>  <halogenbond:ASP:39>  (26) 
halogenbond:ASP:39    NaN
halogenbond:ASP:39     -1
Name: 24, dtype: object

>  <hbond:ASP:39>  (26) 
hbond:ASP:39    NaN
hbond:ASP:39     -1
Name: 24, dtype: object

>  <hydroph_interaction:ASP:39>  (26) 
hydroph_interaction:ASP:39    NaN
hydroph_interaction:ASP:39     -1
Name: 24, dtype: object

>  <hydroph_interaction:LEU:40>  (26) 
hydroph_interaction:LEU:40    NaN
hydroph_interaction:LEU:40     -1
Name: 24, dtype: object

>  <hydroph_interaction:TYR:63>  (26) 
hydroph_interaction:TYR:63    NaN
hydroph_interaction:TYR:63     -1
Name: 24, dtype: object

>  <hbond:TYR:63>  (26) 
hbond:TYR:63    NaN
hbond:TYR:63     -1
Name: 24, dtype: object

>  <pistack:TYR:63>  (26) 
pistack:TYR:63    NaN
pistack:TYR:63     -1
Name: 24, dtype: object

>  <pication:TYR:63>  (26) 
pication:TYR:63    NaN
pication:TYR:63     -1
Name: 24, dtype: object

>  <halogenbond:TYR:64>  (26) 
halogenbond:TYR:64    NaN
halogenbond:TYR:64     -1
Name: 24, dtype: object

>  <hbond:TYR:64>  (26) 
hbond:TYR:64    NaN
hbond:TYR:64     -1
Name: 24, dtype: object

>  <hydroph_interaction:TYR:64>  (26) 
hydroph_interaction:TYR:64    NaN
hydroph_interaction:TYR:64     -1
Name: 24, dtype: object

>  <halogenbond:CYS:65>  (26) 
halogenbond:CYS:65    NaN
halogenbond:CYS:65     -1
Name: 24, dtype: object

>  <hbond:CYS:65>  (26) 
hbond:CYS:65    NaN
hbond:CYS:65     -1
Name: 24, dtype: object

>  <hbond:SER:66>  (26) 
hbond:SER:66    NaN
hbond:SER:66     -1
Name: 24, dtype: object

>  <halogenbond:SER:66>  (26) 
halogenbond:SER:66    NaN
halogenbond:SER:66     -1
Name: 24, dtype: object

>  <hbond:SER:67>  (26) 
hbond:SER:67    NaN
hbond:SER:67     -1
Name: 24, dtype: object

>  <halogenbond:SER:67>  (26) 
halogenbond:SER:67    NaN
halogenbond:SER:67     -1
Name: 24, dtype: object

>  <hbond:ARG:68>  (26) 
hbond:ARG:68    NaN
hbond:ARG:68     -1
Name: 24, dtype: object

>  <saltbridge:ARG:68>  (26) 
saltbridge:ARG:68    NaN
saltbridge:ARG:68     -1
Name: 24, dtype: object

>  <hydroph_interaction:ARG:68>  (26) 
hydroph_interaction:ARG:68    NaN
hydroph_interaction:ARG:68     -1
Name: 24, dtype: object

>  <pication:ARG:68>  (26) 
pication:ARG:68    NaN
pication:ARG:68     -1
Name: 24, dtype: object

>  <hydroph_interaction:TYR:72>  (26) 
hydroph_interaction:TYR:72    NaN
hydroph_interaction:TYR:72     -1
Name: 24, dtype: object

>  <hydroph_interaction:VAL:74>  (26) 
hydroph_interaction:VAL:74    NaN
hydroph_interaction:VAL:74     -1
Name: 24, dtype: object

>  <hydroph_interaction:PHE:76>  (26) 
hydroph_interaction:PHE:76    NaN
hydroph_interaction:PHE:76     -1
Name: 24, dtype: object

>  <hbond:SER:77>  (26) 
hbond:SER:77    NaN
hbond:SER:77     -1
Name: 24, dtype: object

>  <hbond:SER:80>  (26) 
hbond:SER:80    NaN
hbond:SER:80     -1
Name: 24, dtype: object

>  <hbond:LEU:81>  (26) 
hbond:LEU:81    NaN
hbond:LEU:81     -1
Name: 24, dtype: object

>  <halogenbond:LEU:81>  (26) 
halogenbond:LEU:81    NaN
halogenbond:LEU:81     -1
Name: 24, dtype: object

>  <hydroph_interaction:LEU:81>  (26) 
hydroph_interaction:LEU:81    NaN
hydroph_interaction:LEU:81     -1
Name: 24, dtype: object

>  <hydroph_interaction:ILE:82>  (26) 
hydroph_interaction:ILE:82    NaN
hydroph_interaction:ILE:82     -1
Name: 24, dtype: object

>  <halogenbond:ILE:82>  (26) 
halogenbond:ILE:82    NaN
halogenbond:ILE:82     -1
Name: 24, dtype: object

>  <hbond:ILE:82>  (26) 
hbond:ILE:82    NaN
hbond:ILE:82     -1
Name: 24, dtype: object

>  <hbond:PHE:83>  (26) 
hbond:PHE:83    NaN
hbond:PHE:83     -1
Name: 24, dtype: object

>  <hydroph_interaction:PHE:83>  (26) 
hydroph_interaction:PHE:83    NaN
hydroph_interaction:PHE:83     -1
Name: 24, dtype: object

>  <halogenbond:PHE:83>  (26) 
halogenbond:PHE:83    NaN
halogenbond:PHE:83     -1
Name: 24, dtype: object

>  <pistack:PHE:83>  (26) 
pistack:PHE:83    NaN
pistack:PHE:83     -1
Name: 24, dtype: object

>  <pication:PHE:83>  (26) 
pication:PHE:83    NaN
pication:PHE:83     -1
Name: 24, dtype: object

>  <hydroph_interaction:VAL:84>  (26) 
hydroph_interaction:VAL:84    NaN
hydroph_interaction:VAL:84     -1
Name: 24, dtype: object

>  <halogenbond:VAL:84>  (26) 
halogenbond:VAL:84    NaN
halogenbond:VAL:84     -1
Name: 24, dtype: object

>  <hbond:VAL:84>  (26) 
hbond:VAL:84    NaN
hbond:VAL:84     -1
Name: 24, dtype: object

>  <hydroph_interaction:GLU:85>  (26) 
hydroph_interaction:GLU:85    NaN
hydroph_interaction:GLU:85     -1
Name: 24, dtype: object

>  <hbond:GLU:85>  (26) 
hbond:GLU:85    NaN
hbond:GLU:85     -1
Name: 24, dtype: object

>  <halogenbond:GLU:85>  (26) 
halogenbond:GLU:85    NaN
halogenbond:GLU:85     -1
Name: 24, dtype: object

>  <saltbridge:GLU:85>  (26) 
saltbridge:GLU:85    NaN
saltbridge:GLU:85     -1
Name: 24, dtype: object

>  <halogenbond:ALA:86>  (26) 
halogenbond:ALA:86    NaN
halogenbond:ALA:86     -1
Name: 24, dtype: object

>  <hbond:ALA:86>  (26) 
hbond:ALA:86    NaN
hbond:ALA:86     -1
Name: 24, dtype: object

>  <hydroph_interaction:ALA:86>  (26) 
hydroph_interaction:ALA:86    NaN
hydroph_interaction:ALA:86     -1
Name: 24, dtype: object

>  <hbond:SER:87>  (26) 
hbond:SER:87    1
hbond:SER:87    1
Name: 24, dtype: object

>  <halogenbond:SER:87>  (26) 
halogenbond:SER:87    NaN
halogenbond:SER:87     -1
Name: 24, dtype: object

>  <hbond:GLU:88>  (26) 
hbond:GLU:88    0.0
hbond:GLU:88      0
Name: 24, dtype: object

>  <hydroph_interaction:GLU:88>  (26) 
hydroph_interaction:GLU:88    0.0
hydroph_interaction:GLU:88      0
Name: 24, dtype: object

>  <halogenbond:GLU:88>  (26) 
halogenbond:GLU:88    NaN
halogenbond:GLU:88     -1
Name: 24, dtype: object

>  <saltbridge:GLU:88>  (26) 
saltbridge:GLU:88    NaN
saltbridge:GLU:88     -1
Name: 24, dtype: object

>  <hydroph_interaction:TYR:89>  (26) 
hydroph_interaction:TYR:89    0.0
hydroph_interaction:TYR:89      0
Name: 24, dtype: object

>  <pistack:TYR:89>  (26) 
pistack:TYR:89    NaN
pistack:TYR:89     -1
Name: 24, dtype: object

>  <hbond:TYR:89>  (26) 
hbond:TYR:89    NaN
hbond:TYR:89     -1
Name: 24, dtype: object

>  <halogenbond:TYR:89>  (26) 
halogenbond:TYR:89    NaN
halogenbond:TYR:89     -1
Name: 24, dtype: object

>  <hydroph_interaction:TYR:90>  (26) 
hydroph_interaction:TYR:90    0.0
hydroph_interaction:TYR:90      0
Name: 24, dtype: object

>  <hbond:TYR:90>  (26) 
hbond:TYR:90    NaN
hbond:TYR:90     -1
Name: 24, dtype: object

>  <pistack:TYR:90>  (26) 
pistack:TYR:90    NaN
pistack:TYR:90     -1
Name: 24, dtype: object

>  <halogenbond:TYR:90>  (26) 
halogenbond:TYR:90    NaN
halogenbond:TYR:90     -1
Name: 24, dtype: object

>  <pication:TYR:90>  (26) 
pication:TYR:90    NaN
pication:TYR:90     -1
Name: 24, dtype: object

>  <hbond:PRO:91>  (26) 
hbond:PRO:91    NaN
hbond:PRO:91     -1
Name: 24, dtype: object

>  <hydroph_interaction:PRO:91>  (26) 
hydroph_interaction:PRO:91    NaN
hydroph_interaction:PRO:91     -1
Name: 24, dtype: object

>  <halogenbond:PRO:91>  (26) 
halogenbond:PRO:91    NaN
halogenbond:PRO:91     -1
Name: 24, dtype: object

>  <hbond:ALA:92>  (26) 
hbond:ALA:92    NaN
hbond:ALA:92     -1
Name: 24, dtype: object

>  <hydroph_interaction:ALA:92>  (26) 
hydroph_interaction:ALA:92    NaN
hydroph_interaction:ALA:92     -1
Name: 24, dtype: object

>  <saltbridge:ARG:93>  (26) 
saltbridge:ARG:93    NaN
saltbridge:ARG:93     -1
Name: 24, dtype: object

>  <hbond:ARG:93>  (26) 
hbond:ARG:93    NaN
hbond:ARG:93     -1
Name: 24, dtype: object

>  <hydroph_interaction:ARG:93>  (26) 
hydroph_interaction:ARG:93    NaN
hydroph_interaction:ARG:93     -1
Name: 24, dtype: object

>  <halogenbond:ARG:93>  (26) 
halogenbond:ARG:93    NaN
halogenbond:ARG:93     -1
Name: 24, dtype: object

>  <pication:ARG:93>  (26) 
pication:ARG:93    NaN
pication:ARG:93     -1
Name: 24, dtype: object

>  <hydroph_interaction:TYR:94>  (26) 
hydroph_interaction:TYR:94    NaN
hydroph_interaction:TYR:94     -1
Name: 24, dtype: object

>  <pistack:TYR:94>  (26) 
pistack:TYR:94    NaN
pistack:TYR:94     -1
Name: 24, dtype: object

>  <hbond:TYR:94>  (26) 
hbond:TYR:94    NaN
hbond:TYR:94     -1
Name: 24, dtype: object

>  <hbond:GLN:95>  (26) 
hbond:GLN:95    NaN
hbond:GLN:95     -1
Name: 24, dtype: object

>  <hydroph_interaction:GLN:95>  (26) 
hydroph_interaction:GLN:95    NaN
hydroph_interaction:GLN:95     -1
Name: 24, dtype: object

>  <halogenbond:GLN:95>  (26) 
halogenbond:GLN:95    NaN
halogenbond:GLN:95     -1
Name: 24, dtype: object

>  <hbond:SER:96>  (26) 
hbond:SER:96    NaN
hbond:SER:96     -1
Name: 24, dtype: object

>  <halogenbond:HIS:97>  (26) 
halogenbond:HIS:97    NaN
halogenbond:HIS:97     -1
Name: 24, dtype: object

>  <hydroph_interaction:LEU:98>  (26) 
hydroph_interaction:LEU:98    NaN
hydroph_interaction:LEU:98     -1
Name: 24, dtype: object

>  <hbond:LEU:98>  (26) 
hbond:LEU:98    NaN
hbond:LEU:98     -1
Name: 24, dtype: object

>  <halogenbond:LEU:98>  (26) 
halogenbond:LEU:98    NaN
halogenbond:LEU:98     -1
Name: 24, dtype: object

>  <hbond:MET:99>  (26) 
hbond:MET:99    NaN
hbond:MET:99     -1
Name: 24, dtype: object

>  <hydroph_interaction:MET:99>  (26) 
hydroph_interaction:MET:99    NaN
hydroph_interaction:MET:99     -1
Name: 24, dtype: object

>  <halogenbond:MET:99>  (26) 
halogenbond:MET:99    NaN
halogenbond:MET:99     -1
Name: 24, dtype: object

>  <hydroph_interaction:LEU:100>  (26) 
hydroph_interaction:LEU:100    NaN
hydroph_interaction:LEU:100     -1
Name: 24, dtype: object

>  <hbond:LEU:100>  (26) 
hbond:LEU:100    NaN
hbond:LEU:100     -1
Name: 24, dtype: object

>  <hbond:ALA:101>  (26) 
hbond:ALA:101    NaN
hbond:ALA:101     -1
Name: 24, dtype: object

>  <hydroph_interaction:ALA:101>  (26) 
hydroph_interaction:ALA:101    NaN
hydroph_interaction:ALA:101     -1
Name: 24, dtype: object

>  <hydroph_interaction:VAL:102>  (26) 
hydroph_interaction:VAL:102    NaN
hydroph_interaction:VAL:102     -1
Name: 24, dtype: object

>  <hbond:VAL:102>  (26) 
hbond:VAL:102    NaN
hbond:VAL:102     -1
Name: 24, dtype: object

>  <hbond:GLY:103>  (26) 
hbond:GLY:103    NaN
hbond:GLY:103     -1
Name: 24, dtype: object

>  <halogenbond:GLY:103>  (26) 
halogenbond:GLY:103    NaN
halogenbond:GLY:103     -1
Name: 24, dtype: object

>  <hbond:HIS:104>  (26) 
hbond:HIS:104    NaN
hbond:HIS:104     -1
Name: 24, dtype: object

>  <saltbridge:HIS:104>  (26) 
saltbridge:HIS:104    NaN
saltbridge:HIS:104     -1
Name: 24, dtype: object

>  <pication:HIS:104>  (26) 
pication:HIS:104    NaN
pication:HIS:104     -1
Name: 24, dtype: object

>  <halogenbond:HIS:104>  (26) 
halogenbond:HIS:104    NaN
halogenbond:HIS:104     -1
Name: 24, dtype: object

>  <hydroph_interaction:HIS:104>  (26) 
hydroph_interaction:HIS:104    NaN
hydroph_interaction:HIS:104     -1
Name: 24, dtype: object

>  <pistack:HIS:104>  (26) 
pistack:HIS:104    NaN
pistack:HIS:104     -1
Name: 24, dtype: object

>  <halogenbond:SER:105>  (26) 
halogenbond:SER:105    0.0
halogenbond:SER:105      0
Name: 24, dtype: object

>  <hbond:SER:105>  (26) 
hbond:SER:105    0.0
hbond:SER:105      0
Name: 24, dtype: object

>  <hbond:GLU:106>  (26) 
hbond:GLU:106    0.0
hbond:GLU:106      0
Name: 24, dtype: object

>  <hydroph_interaction:GLU:106>  (26) 
hydroph_interaction:GLU:106    NaN
hydroph_interaction:GLU:106     -1
Name: 24, dtype: object

>  <saltbridge:GLU:106>  (26) 
saltbridge:GLU:106    NaN
saltbridge:GLU:106     -1
Name: 24, dtype: object

>  <halogenbond:GLU:106>  (26) 
halogenbond:GLU:106    NaN
halogenbond:GLU:106     -1
Name: 24, dtype: object

>  <hydroph_interaction:PRO:107>  (26) 
hydroph_interaction:PRO:107    0
hydroph_interaction:PRO:107    0
Name: 24, dtype: object

>  <hbond:PRO:107>  (26) 
hbond:PRO:107    0.0
hbond:PRO:107      0
Name: 24, dtype: object

>  <halogenbond:PRO:107>  (26) 
halogenbond:PRO:107    NaN
halogenbond:PRO:107     -1
Name: 24, dtype: object

>  <hbond:GLY:108>  (26) 
hbond:GLY:108    NaN
hbond:GLY:108     -1
Name: 24, dtype: object

>  <halogenbond:GLY:108>  (26) 
halogenbond:GLY:108    NaN
halogenbond:GLY:108     -1
Name: 24, dtype: object

>  <hbond:ASP:109>  (26) 
hbond:ASP:109    0.0
hbond:ASP:109      0
Name: 24, dtype: object

>  <hydroph_interaction:ASP:109>  (26) 
hydroph_interaction:ASP:109    0.0
hydroph_interaction:ASP:109      0
Name: 24, dtype: object

>  <saltbridge:ASP:109>  (26) 
saltbridge:ASP:109    NaN
saltbridge:ASP:109     -1
Name: 24, dtype: object

>  <halogenbond:CYS:110>  (26) 
halogenbond:CYS:110    NaN
halogenbond:CYS:110     -1
Name: 24, dtype: object

>  <hbond:CYS:110>  (26) 
hbond:CYS:110    0.0
hbond:CYS:110      0
Name: 24, dtype: object

>  <hbond:GLY:111>  (26) 
hbond:GLY:111    NaN
hbond:GLY:111     -1
Name: 24, dtype: object

>  <hbond:GLY:112>  (26) 
hbond:GLY:112    NaN
hbond:GLY:112     -1
Name: 24, dtype: object

>  <hbond:ILE:113>  (26) 
hbond:ILE:113    NaN
hbond:ILE:113     -1
Name: 24, dtype: object

>  <hydroph_interaction:LEU:114>  (26) 
hydroph_interaction:LEU:114    NaN
hydroph_interaction:LEU:114     -1
Name: 24, dtype: object

>  <hbond:LEU:114>  (26) 
hbond:LEU:114    NaN
hbond:LEU:114     -1
Name: 24, dtype: object

>  <hydroph_interaction:ILE:123>  (26) 
hydroph_interaction:ILE:123    NaN
hydroph_interaction:ILE:123     -1
Name: 24, dtype: object

>  <hbond:ILE:123>  (26) 
hbond:ILE:123    NaN
hbond:ILE:123     -1
Name: 24, dtype: object

>  <hydroph_interaction:VAL:124>  (26) 
hydroph_interaction:VAL:124    1.0
hydroph_interaction:VAL:124      1
Name: 24, dtype: object

>  <hbond:VAL:124>  (26) 
hbond:VAL:124    NaN
hbond:VAL:124     -1
Name: 24, dtype: object

>  <halogenbond:VAL:124>  (26) 
halogenbond:VAL:124    NaN
halogenbond:VAL:124     -1
Name: 24, dtype: object

>  <hbond:SER:125>  (26) 
hbond:SER:125    0
hbond:SER:125    0
Name: 24, dtype: object

>  <halogenbond:SER:125>  (26) 
halogenbond:SER:125    NaN
halogenbond:SER:125     -1
Name: 24, dtype: object

>  <hydroph_interaction:THR:126>  (26) 
hydroph_interaction:THR:126    NaN
hydroph_interaction:THR:126     -1
Name: 24, dtype: object

>  <hbond:THR:126>  (26) 
hbond:THR:126    0.0
hbond:THR:126      0
Name: 24, dtype: object

>  <halogenbond:THR:126>  (26) 
halogenbond:THR:126    NaN
halogenbond:THR:126     -1
Name: 24, dtype: object

>  <hbond:GLY:127>  (26) 
hbond:GLY:127    0
hbond:GLY:127    0
Name: 24, dtype: object

>  <halogenbond:GLY:127>  (26) 
halogenbond:GLY:127    NaN
halogenbond:GLY:127     -1
Name: 24, dtype: object

>  <hydroph_interaction:GLY:127>  (26) 
hydroph_interaction:GLY:127    NaN
hydroph_interaction:GLY:127     -1
Name: 24, dtype: object

>  <hbond:GLY:128>  (26) 
hbond:GLY:128    NaN
hbond:GLY:128     -1
Name: 24, dtype: object

>  <halogenbond:GLY:128>  (26) 
halogenbond:GLY:128    NaN
halogenbond:GLY:128     -1
Name: 24, dtype: object

>  <hydroph_interaction:GLY:128>  (26) 
hydroph_interaction:GLY:128    NaN
hydroph_interaction:GLY:128     -1
Name: 24, dtype: object

>  <hbond:ASN:129>  (26) 
hbond:ASN:129    NaN
hbond:ASN:129     -1
Name: 24, dtype: object

>  <hydroph_interaction:ASN:129>  (26) 
hydroph_interaction:ASN:129    NaN
hydroph_interaction:ASN:129     -1
Name: 24, dtype: object

>  <halogenbond:ASN:129>  (26) 
halogenbond:ASN:129    NaN
halogenbond:ASN:129     -1
Name: 24, dtype: object

>  <hbond:GLY:130>  (26) 
hbond:GLY:130    NaN
hbond:GLY:130     -1
Name: 24, dtype: object

>  <hbond:LEU:131>  (26) 
hbond:LEU:131    NaN
hbond:LEU:131     -1
Name: 24, dtype: object

>  <hydroph_interaction:LEU:131>  (26) 
hydroph_interaction:LEU:131    NaN
hydroph_interaction:LEU:131     -1
Name: 24, dtype: object

>  <halogenbond:LEU:131>  (26) 
halogenbond:LEU:131    NaN
halogenbond:LEU:131     -1
Name: 24, dtype: object

>  <hydroph_interaction:VAL:132>  (26) 
hydroph_interaction:VAL:132    NaN
hydroph_interaction:VAL:132     -1
Name: 24, dtype: object

>  <hbond:VAL:132>  (26) 
hbond:VAL:132    NaN
hbond:VAL:132     -1
Name: 24, dtype: object

>  <hbond:GLY:133>  (26) 
hbond:GLY:133    NaN
hbond:GLY:133     -1
Name: 24, dtype: object

>  <halogenbond:GLY:133>  (26) 
halogenbond:GLY:133    NaN
halogenbond:GLY:133     -1
Name: 24, dtype: object

>  <hydroph_interaction:PHE:134>  (26) 
hydroph_interaction:PHE:134    NaN
hydroph_interaction:PHE:134     -1
Name: 24, dtype: object

>  <hbond:PHE:134>  (26) 
hbond:PHE:134    NaN
hbond:PHE:134     -1
Name: 24, dtype: object

>  <pistack:PHE:134>  (26) 
pistack:PHE:134    NaN
pistack:PHE:134     -1
Name: 24, dtype: object

>  <pication:PHE:134>  (26) 
pication:PHE:134    NaN
pication:PHE:134     -1
Name: 24, dtype: object

>  <halogenbond:PHE:134>  (26) 
halogenbond:PHE:134    NaN
halogenbond:PHE:134     -1
Name: 24, dtype: object

>  <hydroph_interaction:ALA:135>  (26) 
hydroph_interaction:ALA:135    NaN
hydroph_interaction:ALA:135     -1
Name: 24, dtype: object

>  <hbond:ALA:135>  (26) 
hbond:ALA:135    NaN
hbond:ALA:135     -1
Name: 24, dtype: object

$$$$
Z5485425157
     RDKit          3D

 15 15  0  0  0  0  0  0  0  0999 V2000
   27.4445   15.6659    9.2939 C   0  0  0  0  0  0  0  0  0  0  0  0
   28.0621   14.6482    9.8693 C   0  0  0  0  0  0  0  0  0  0  0  0
   28.6421   13.6056    8.9596 C   0  0  0  0  0  0  0  0  0  0  0  0
   30.4601   13.6324    8.9863 S   0  0  0  0  0  4  0  0  0  0  0  0
   30.9450   15.0264    9.2357 O   0  0  0  0  0  0  0  0  0  0  0  0
   30.6742   13.0009    7.3932 N   0  0  0  0  0  0  0  0  0  0  0  0
   29.6594   13.4442    6.5099 C   0  0  0  0  0  0  0  0  0  0  0  0
   31.1262   11.6837    7.3699 C   0  0  0  0  0  0  0  0  0  0  0  0
   32.2399   11.3195    6.4618 C   0  0  0  0  0  0  0  0  0  0  0  0
   32.6778    9.9998    6.4288 C   0  0  0  0  0  0  0  0  0  0  0  0
   33.8048    9.6156    5.5246 C   0  0  0  0  0  0  0  0  0  0  0  0
   32.0595    9.0512    7.2513 C   0  0  0  0  0  0  0  0  0  0  0  0
   31.0262    9.3940    8.1072 C   0  0  0  0  0  0  0  0  0  0  0  0
   30.3944    8.3788    8.9826 C   0  0  0  0  0  0  0  0  0  0  0  0
   30.5717   10.6995    8.1583 C   0  0  0  0  0  0  0  0  0  0  0  0
  1  2  1  0
  2  3  1  0
  4  3  1  6
  4  5  2  0
  4  6  1  0
  6  7  1  0
  6  8  1  0
  8  9  2  0
  9 10  1  0
 10 11  1  0
 10 12  2  0
 12 13  1  0
 13 14  1  0
 13 15  2  0
 15  8  1  0
A    1
 C1 
A    2
 C2 
A    3
 C3 
A    4
 S1 
A    5
 O1 
A    6
 N1 
A    7
 C4 
A    8
 C5 
A    9
 C6 
A   10
 C7 
A   11
 C8 
A   12
 C9 
A   13
 C10
A   14
 C11
A   15
 C12
M  END
>  <ref_pdb>  (27) 
Ax0310a

>  <ref_mols>  (27) 
Ax0451a,Ax0739a

>  <original SMILES>  (27) 
CCCS(=O)N(C)c1cc(C)cc(C)c1

>  <rationale>  (27) 
info halogenbond:G127+S125+E85+E106+E88+T126+P107+H104+Y64+C65+S87+N129+F83+R93+L131+I82+G128+P91+N19+H21+V84+G133+Y90+Y89+H97+L81+F134+L98+R20+G103+S66+S67+S7+G108+R38+V124+M99+S36; hbond:S87+Q95+G108+G103+G130+L131+N129+N19+H104+R68+V124+R93+P91+F83+S67+S7+S66+G112+G133+V132+R20+Y89+S77+A135+Y63+A92+A101+M99+F134+L100+I82+Y64+S36+L98+V84+L81+Y94+S80+R38+S37+V102+G8+I123+G111+I113+L114+C65+L22+S96; hydroph_interaction:V124+Y90+Y89+H21+P107+N129+D39+N19+L40+I123+A135+Q95+I82+L100+L98+L131+F83+R93+F134+H104+R20+A86+V74+P91+A101+F76+M99+L114+A92+Y94+R68+Y72+Y64+V18+V102+W28+G127+G128+L81; pication:H21+H104+R93+Y63+F134+Y90+R68+F83+R20; pistack:H21+Y89+Y90+H104+F134+Y63+F83+Y94; saltbridge:D39+R93+H104+E106+D109+E85+E88+R68+R20; 

>  <intxn_cluster>  (27) 
-1

>  <intxn_cluster_rank>  (27) 
-1

>  <N_interactions>  (27) 
6

>  <∆∆G>  (27) 
-13.982441

>  <$/mg>  (27) 
0.0

>  <comRMSD>  (27) 
0.906144

>  <N_rotatable_bonds>  (27) 
8

>  <deep_P1_sidechain>  (27) 
nan

>  <farthest_distance_to_substrate>  (27) 
2.534422

>  <hbond:SER:7>  (27) 
hbond:SER:7    NaN
hbond:SER:7     -1
Name: 25, dtype: object

>  <halogenbond:SER:7>  (27) 
halogenbond:SER:7    NaN
halogenbond:SER:7     -1
Name: 25, dtype: object

>  <hbond:GLY:8>  (27) 
hbond:GLY:8    NaN
hbond:GLY:8     -1
Name: 25, dtype: object

>  <hydroph_interaction:VAL:18>  (27) 
hydroph_interaction:VAL:18    NaN
hydroph_interaction:VAL:18     -1
Name: 25, dtype: object

>  <hbond:ASN:19>  (27) 
hbond:ASN:19    NaN
hbond:ASN:19     -1
Name: 25, dtype: object

>  <hydroph_interaction:ASN:19>  (27) 
hydroph_interaction:ASN:19    NaN
hydroph_interaction:ASN:19     -1
Name: 25, dtype: object

>  <halogenbond:ASN:19>  (27) 
halogenbond:ASN:19    NaN
halogenbond:ASN:19     -1
Name: 25, dtype: object

>  <hbond:ARG:20>  (27) 
hbond:ARG:20    NaN
hbond:ARG:20     -1
Name: 25, dtype: object

>  <hydroph_interaction:ARG:20>  (27) 
hydroph_interaction:ARG:20    NaN
hydroph_interaction:ARG:20     -1
Name: 25, dtype: object

>  <saltbridge:ARG:20>  (27) 
saltbridge:ARG:20    NaN
saltbridge:ARG:20     -1
Name: 25, dtype: object

>  <halogenbond:ARG:20>  (27) 
halogenbond:ARG:20    NaN
halogenbond:ARG:20     -1
Name: 25, dtype: object

>  <pication:ARG:20>  (27) 
pication:ARG:20    NaN
pication:ARG:20     -1
Name: 25, dtype: object

>  <hbond:HIS:21>  (27) 
hbond:HIS:21    0.0
hbond:HIS:21      0
Name: 25, dtype: object

>  <hydroph_interaction:HIS:21>  (27) 
hydroph_interaction:HIS:21    1.0
hydroph_interaction:HIS:21      1
Name: 25, dtype: object

>  <pistack:HIS:21>  (27) 
pistack:HIS:21    NaN
pistack:HIS:21     -1
Name: 25, dtype: object

>  <pication:HIS:21>  (27) 
pication:HIS:21    NaN
pication:HIS:21     -1
Name: 25, dtype: object

>  <saltbridge:HIS:21>  (27) 
saltbridge:HIS:21    0.0
saltbridge:HIS:21      0
Name: 25, dtype: object

>  <halogenbond:HIS:21>  (27) 
halogenbond:HIS:21    NaN
halogenbond:HIS:21     -1
Name: 25, dtype: object

>  <hydroph_interaction:LEU:22>  (27) 
hydroph_interaction:LEU:22    0.0
hydroph_interaction:LEU:22      0
Name: 25, dtype: object

>  <hbond:LEU:22>  (27) 
hbond:LEU:22    NaN
hbond:LEU:22     -1
Name: 25, dtype: object

>  <hydroph_interaction:TRP:28>  (27) 
hydroph_interaction:TRP:28    NaN
hydroph_interaction:TRP:28     -1
Name: 25, dtype: object

>  <hbond:SER:36>  (27) 
hbond:SER:36    NaN
hbond:SER:36     -1
Name: 25, dtype: object

>  <halogenbond:SER:36>  (27) 
halogenbond:SER:36    NaN
halogenbond:SER:36     -1
Name: 25, dtype: object

>  <hbond:SER:37>  (27) 
hbond:SER:37    NaN
hbond:SER:37     -1
Name: 25, dtype: object

>  <hbond:ARG:38>  (27) 
hbond:ARG:38    NaN
hbond:ARG:38     -1
Name: 25, dtype: object

>  <halogenbond:ARG:38>  (27) 
halogenbond:ARG:38    NaN
halogenbond:ARG:38     -1
Name: 25, dtype: object

>  <saltbridge:ASP:39>  (27) 
saltbridge:ASP:39    NaN
saltbridge:ASP:39     -1
Name: 25, dtype: object

>  <halogenbond:ASP:39>  (27) 
halogenbond:ASP:39    0.0
halogenbond:ASP:39      0
Name: 25, dtype: object

>  <hbond:ASP:39>  (27) 
hbond:ASP:39    0.0
hbond:ASP:39      0
Name: 25, dtype: object

>  <hydroph_interaction:ASP:39>  (27) 
hydroph_interaction:ASP:39    NaN
hydroph_interaction:ASP:39     -1
Name: 25, dtype: object

>  <hydroph_interaction:LEU:40>  (27) 
hydroph_interaction:LEU:40    NaN
hydroph_interaction:LEU:40     -1
Name: 25, dtype: object

>  <hydroph_interaction:TYR:63>  (27) 
hydroph_interaction:TYR:63    0.0
hydroph_interaction:TYR:63      0
Name: 25, dtype: object

>  <hbond:TYR:63>  (27) 
hbond:TYR:63    NaN
hbond:TYR:63     -1
Name: 25, dtype: object

>  <pistack:TYR:63>  (27) 
pistack:TYR:63    NaN
pistack:TYR:63     -1
Name: 25, dtype: object

>  <pication:TYR:63>  (27) 
pication:TYR:63    NaN
pication:TYR:63     -1
Name: 25, dtype: object

>  <halogenbond:TYR:64>  (27) 
halogenbond:TYR:64    NaN
halogenbond:TYR:64     -1
Name: 25, dtype: object

>  <hbond:TYR:64>  (27) 
hbond:TYR:64    NaN
hbond:TYR:64     -1
Name: 25, dtype: object

>  <hydroph_interaction:TYR:64>  (27) 
hydroph_interaction:TYR:64    NaN
hydroph_interaction:TYR:64     -1
Name: 25, dtype: object

>  <halogenbond:CYS:65>  (27) 
halogenbond:CYS:65    NaN
halogenbond:CYS:65     -1
Name: 25, dtype: object

>  <hbond:CYS:65>  (27) 
hbond:CYS:65    NaN
hbond:CYS:65     -1
Name: 25, dtype: object

>  <hbond:SER:66>  (27) 
hbond:SER:66    NaN
hbond:SER:66     -1
Name: 25, dtype: object

>  <halogenbond:SER:66>  (27) 
halogenbond:SER:66    NaN
halogenbond:SER:66     -1
Name: 25, dtype: object

>  <hbond:SER:67>  (27) 
hbond:SER:67    NaN
hbond:SER:67     -1
Name: 25, dtype: object

>  <halogenbond:SER:67>  (27) 
halogenbond:SER:67    NaN
halogenbond:SER:67     -1
Name: 25, dtype: object

>  <hbond:ARG:68>  (27) 
hbond:ARG:68    NaN
hbond:ARG:68     -1
Name: 25, dtype: object

>  <saltbridge:ARG:68>  (27) 
saltbridge:ARG:68    NaN
saltbridge:ARG:68     -1
Name: 25, dtype: object

>  <hydroph_interaction:ARG:68>  (27) 
hydroph_interaction:ARG:68    NaN
hydroph_interaction:ARG:68     -1
Name: 25, dtype: object

>  <pication:ARG:68>  (27) 
pication:ARG:68    NaN
pication:ARG:68     -1
Name: 25, dtype: object

>  <hydroph_interaction:TYR:72>  (27) 
hydroph_interaction:TYR:72    NaN
hydroph_interaction:TYR:72     -1
Name: 25, dtype: object

>  <hydroph_interaction:VAL:74>  (27) 
hydroph_interaction:VAL:74    NaN
hydroph_interaction:VAL:74     -1
Name: 25, dtype: object

>  <hydroph_interaction:PHE:76>  (27) 
hydroph_interaction:PHE:76    NaN
hydroph_interaction:PHE:76     -1
Name: 25, dtype: object

>  <hbond:SER:77>  (27) 
hbond:SER:77    NaN
hbond:SER:77     -1
Name: 25, dtype: object

>  <hbond:SER:80>  (27) 
hbond:SER:80    NaN
hbond:SER:80     -1
Name: 25, dtype: object

>  <hbond:LEU:81>  (27) 
hbond:LEU:81    NaN
hbond:LEU:81     -1
Name: 25, dtype: object

>  <halogenbond:LEU:81>  (27) 
halogenbond:LEU:81    NaN
halogenbond:LEU:81     -1
Name: 25, dtype: object

>  <hydroph_interaction:LEU:81>  (27) 
hydroph_interaction:LEU:81    NaN
hydroph_interaction:LEU:81     -1
Name: 25, dtype: object

>  <hydroph_interaction:ILE:82>  (27) 
hydroph_interaction:ILE:82    NaN
hydroph_interaction:ILE:82     -1
Name: 25, dtype: object

>  <halogenbond:ILE:82>  (27) 
halogenbond:ILE:82    NaN
halogenbond:ILE:82     -1
Name: 25, dtype: object

>  <hbond:ILE:82>  (27) 
hbond:ILE:82    NaN
hbond:ILE:82     -1
Name: 25, dtype: object

>  <hbond:PHE:83>  (27) 
hbond:PHE:83    NaN
hbond:PHE:83     -1
Name: 25, dtype: object

>  <hydroph_interaction:PHE:83>  (27) 
hydroph_interaction:PHE:83    NaN
hydroph_interaction:PHE:83     -1
Name: 25, dtype: object

>  <halogenbond:PHE:83>  (27) 
halogenbond:PHE:83    NaN
halogenbond:PHE:83     -1
Name: 25, dtype: object

>  <pistack:PHE:83>  (27) 
pistack:PHE:83    NaN
pistack:PHE:83     -1
Name: 25, dtype: object

>  <pication:PHE:83>  (27) 
pication:PHE:83    NaN
pication:PHE:83     -1
Name: 25, dtype: object

>  <hydroph_interaction:VAL:84>  (27) 
hydroph_interaction:VAL:84    0.0
hydroph_interaction:VAL:84      0
Name: 25, dtype: object

>  <halogenbond:VAL:84>  (27) 
halogenbond:VAL:84    NaN
halogenbond:VAL:84     -1
Name: 25, dtype: object

>  <hbond:VAL:84>  (27) 
hbond:VAL:84    NaN
hbond:VAL:84     -1
Name: 25, dtype: object

>  <hydroph_interaction:GLU:85>  (27) 
hydroph_interaction:GLU:85    0.0
hydroph_interaction:GLU:85      0
Name: 25, dtype: object

>  <hbond:GLU:85>  (27) 
hbond:GLU:85    0.0
hbond:GLU:85      0
Name: 25, dtype: object

>  <halogenbond:GLU:85>  (27) 
halogenbond:GLU:85    NaN
halogenbond:GLU:85     -1
Name: 25, dtype: object

>  <saltbridge:GLU:85>  (27) 
saltbridge:GLU:85    NaN
saltbridge:GLU:85     -1
Name: 25, dtype: object

>  <halogenbond:ALA:86>  (27) 
halogenbond:ALA:86    0.0
halogenbond:ALA:86      0
Name: 25, dtype: object

>  <hbond:ALA:86>  (27) 
hbond:ALA:86    0.0
hbond:ALA:86      0
Name: 25, dtype: object

>  <hydroph_interaction:ALA:86>  (27) 
hydroph_interaction:ALA:86    NaN
hydroph_interaction:ALA:86     -1
Name: 25, dtype: object

>  <hbond:SER:87>  (27) 
hbond:SER:87    1
hbond:SER:87    1
Name: 25, dtype: object

>  <halogenbond:SER:87>  (27) 
halogenbond:SER:87    NaN
halogenbond:SER:87     -1
Name: 25, dtype: object

>  <hbond:GLU:88>  (27) 
hbond:GLU:88    0.0
hbond:GLU:88      0
Name: 25, dtype: object

>  <hydroph_interaction:GLU:88>  (27) 
hydroph_interaction:GLU:88    0.0
hydroph_interaction:GLU:88      0
Name: 25, dtype: object

>  <halogenbond:GLU:88>  (27) 
halogenbond:GLU:88    NaN
halogenbond:GLU:88     -1
Name: 25, dtype: object

>  <saltbridge:GLU:88>  (27) 
saltbridge:GLU:88    NaN
saltbridge:GLU:88     -1
Name: 25, dtype: object

>  <hydroph_interaction:TYR:89>  (27) 
hydroph_interaction:TYR:89    1.0
hydroph_interaction:TYR:89      1
Name: 25, dtype: object

>  <pistack:TYR:89>  (27) 
pistack:TYR:89    NaN
pistack:TYR:89     -1
Name: 25, dtype: object

>  <hbond:TYR:89>  (27) 
hbond:TYR:89    NaN
hbond:TYR:89     -1
Name: 25, dtype: object

>  <halogenbond:TYR:89>  (27) 
halogenbond:TYR:89    NaN
halogenbond:TYR:89     -1
Name: 25, dtype: object

>  <hydroph_interaction:TYR:90>  (27) 
hydroph_interaction:TYR:90    1.0
hydroph_interaction:TYR:90      1
Name: 25, dtype: object

>  <hbond:TYR:90>  (27) 
hbond:TYR:90    0.0
hbond:TYR:90      0
Name: 25, dtype: object

>  <pistack:TYR:90>  (27) 
pistack:TYR:90    NaN
pistack:TYR:90     -1
Name: 25, dtype: object

>  <halogenbond:TYR:90>  (27) 
halogenbond:TYR:90    NaN
halogenbond:TYR:90     -1
Name: 25, dtype: object

>  <pication:TYR:90>  (27) 
pication:TYR:90    NaN
pication:TYR:90     -1
Name: 25, dtype: object

>  <hbond:PRO:91>  (27) 
hbond:PRO:91    NaN
hbond:PRO:91     -1
Name: 25, dtype: object

>  <hydroph_interaction:PRO:91>  (27) 
hydroph_interaction:PRO:91    NaN
hydroph_interaction:PRO:91     -1
Name: 25, dtype: object

>  <halogenbond:PRO:91>  (27) 
halogenbond:PRO:91    NaN
halogenbond:PRO:91     -1
Name: 25, dtype: object

>  <hbond:ALA:92>  (27) 
hbond:ALA:92    NaN
hbond:ALA:92     -1
Name: 25, dtype: object

>  <hydroph_interaction:ALA:92>  (27) 
hydroph_interaction:ALA:92    NaN
hydroph_interaction:ALA:92     -1
Name: 25, dtype: object

>  <saltbridge:ARG:93>  (27) 
saltbridge:ARG:93    NaN
saltbridge:ARG:93     -1
Name: 25, dtype: object

>  <hbond:ARG:93>  (27) 
hbond:ARG:93    NaN
hbond:ARG:93     -1
Name: 25, dtype: object

>  <hydroph_interaction:ARG:93>  (27) 
hydroph_interaction:ARG:93    NaN
hydroph_interaction:ARG:93     -1
Name: 25, dtype: object

>  <halogenbond:ARG:93>  (27) 
halogenbond:ARG:93    NaN
halogenbond:ARG:93     -1
Name: 25, dtype: object

>  <pication:ARG:93>  (27) 
pication:ARG:93    NaN
pication:ARG:93     -1
Name: 25, dtype: object

>  <hydroph_interaction:TYR:94>  (27) 
hydroph_interaction:TYR:94    NaN
hydroph_interaction:TYR:94     -1
Name: 25, dtype: object

>  <pistack:TYR:94>  (27) 
pistack:TYR:94    NaN
pistack:TYR:94     -1
Name: 25, dtype: object

>  <hbond:TYR:94>  (27) 
hbond:TYR:94    NaN
hbond:TYR:94     -1
Name: 25, dtype: object

>  <hbond:GLN:95>  (27) 
hbond:GLN:95    NaN
hbond:GLN:95     -1
Name: 25, dtype: object

>  <hydroph_interaction:GLN:95>  (27) 
hydroph_interaction:GLN:95    NaN
hydroph_interaction:GLN:95     -1
Name: 25, dtype: object

>  <halogenbond:GLN:95>  (27) 
halogenbond:GLN:95    0.0
halogenbond:GLN:95      0
Name: 25, dtype: object

>  <hbond:SER:96>  (27) 
hbond:SER:96    NaN
hbond:SER:96     -1
Name: 25, dtype: object

>  <halogenbond:HIS:97>  (27) 
halogenbond:HIS:97    NaN
halogenbond:HIS:97     -1
Name: 25, dtype: object

>  <hydroph_interaction:LEU:98>  (27) 
hydroph_interaction:LEU:98    NaN
hydroph_interaction:LEU:98     -1
Name: 25, dtype: object

>  <hbond:LEU:98>  (27) 
hbond:LEU:98    NaN
hbond:LEU:98     -1
Name: 25, dtype: object

>  <halogenbond:LEU:98>  (27) 
halogenbond:LEU:98    NaN
halogenbond:LEU:98     -1
Name: 25, dtype: object

>  <hbond:MET:99>  (27) 
hbond:MET:99    NaN
hbond:MET:99     -1
Name: 25, dtype: object

>  <hydroph_interaction:MET:99>  (27) 
hydroph_interaction:MET:99    NaN
hydroph_interaction:MET:99     -1
Name: 25, dtype: object

>  <halogenbond:MET:99>  (27) 
halogenbond:MET:99    NaN
halogenbond:MET:99     -1
Name: 25, dtype: object

>  <hydroph_interaction:LEU:100>  (27) 
hydroph_interaction:LEU:100    NaN
hydroph_interaction:LEU:100     -1
Name: 25, dtype: object

>  <hbond:LEU:100>  (27) 
hbond:LEU:100    NaN
hbond:LEU:100     -1
Name: 25, dtype: object

>  <hbond:ALA:101>  (27) 
hbond:ALA:101    NaN
hbond:ALA:101     -1
Name: 25, dtype: object

>  <hydroph_interaction:ALA:101>  (27) 
hydroph_interaction:ALA:101    NaN
hydroph_interaction:ALA:101     -1
Name: 25, dtype: object

>  <hydroph_interaction:VAL:102>  (27) 
hydroph_interaction:VAL:102    NaN
hydroph_interaction:VAL:102     -1
Name: 25, dtype: object

>  <hbond:VAL:102>  (27) 
hbond:VAL:102    NaN
hbond:VAL:102     -1
Name: 25, dtype: object

>  <hbond:GLY:103>  (27) 
hbond:GLY:103    NaN
hbond:GLY:103     -1
Name: 25, dtype: object

>  <halogenbond:GLY:103>  (27) 
halogenbond:GLY:103    NaN
halogenbond:GLY:103     -1
Name: 25, dtype: object

>  <hbond:HIS:104>  (27) 
hbond:HIS:104    NaN
hbond:HIS:104     -1
Name: 25, dtype: object

>  <saltbridge:HIS:104>  (27) 
saltbridge:HIS:104    NaN
saltbridge:HIS:104     -1
Name: 25, dtype: object

>  <pication:HIS:104>  (27) 
pication:HIS:104    NaN
pication:HIS:104     -1
Name: 25, dtype: object

>  <halogenbond:HIS:104>  (27) 
halogenbond:HIS:104    NaN
halogenbond:HIS:104     -1
Name: 25, dtype: object

>  <hydroph_interaction:HIS:104>  (27) 
hydroph_interaction:HIS:104    NaN
hydroph_interaction:HIS:104     -1
Name: 25, dtype: object

>  <pistack:HIS:104>  (27) 
pistack:HIS:104    NaN
pistack:HIS:104     -1
Name: 25, dtype: object

>  <halogenbond:SER:105>  (27) 
halogenbond:SER:105    0.0
halogenbond:SER:105      0
Name: 25, dtype: object

>  <hbond:SER:105>  (27) 
hbond:SER:105    0.0
hbond:SER:105      0
Name: 25, dtype: object

>  <hbond:GLU:106>  (27) 
hbond:GLU:106    0.0
hbond:GLU:106      0
Name: 25, dtype: object

>  <hydroph_interaction:GLU:106>  (27) 
hydroph_interaction:GLU:106    0.0
hydroph_interaction:GLU:106      0
Name: 25, dtype: object

>  <saltbridge:GLU:106>  (27) 
saltbridge:GLU:106    NaN
saltbridge:GLU:106     -1
Name: 25, dtype: object

>  <halogenbond:GLU:106>  (27) 
halogenbond:GLU:106    NaN
halogenbond:GLU:106     -1
Name: 25, dtype: object

>  <hydroph_interaction:PRO:107>  (27) 
hydroph_interaction:PRO:107    1
hydroph_interaction:PRO:107    1
Name: 25, dtype: object

>  <hbond:PRO:107>  (27) 
hbond:PRO:107    0.0
hbond:PRO:107      0
Name: 25, dtype: object

>  <halogenbond:PRO:107>  (27) 
halogenbond:PRO:107    NaN
halogenbond:PRO:107     -1
Name: 25, dtype: object

>  <hbond:GLY:108>  (27) 
hbond:GLY:108    NaN
hbond:GLY:108     -1
Name: 25, dtype: object

>  <halogenbond:GLY:108>  (27) 
halogenbond:GLY:108    NaN
halogenbond:GLY:108     -1
Name: 25, dtype: object

>  <hbond:ASP:109>  (27) 
hbond:ASP:109    0.0
hbond:ASP:109      0
Name: 25, dtype: object

>  <hydroph_interaction:ASP:109>  (27) 
hydroph_interaction:ASP:109    0.0
hydroph_interaction:ASP:109      0
Name: 25, dtype: object

>  <saltbridge:ASP:109>  (27) 
saltbridge:ASP:109    NaN
saltbridge:ASP:109     -1
Name: 25, dtype: object

>  <halogenbond:CYS:110>  (27) 
halogenbond:CYS:110    0.0
halogenbond:CYS:110      0
Name: 25, dtype: object

>  <hbond:CYS:110>  (27) 
hbond:CYS:110    0.0
hbond:CYS:110      0
Name: 25, dtype: object

>  <hbond:GLY:111>  (27) 
hbond:GLY:111    NaN
hbond:GLY:111     -1
Name: 25, dtype: object

>  <hbond:GLY:112>  (27) 
hbond:GLY:112    NaN
hbond:GLY:112     -1
Name: 25, dtype: object

>  <hbond:ILE:113>  (27) 
hbond:ILE:113    NaN
hbond:ILE:113     -1
Name: 25, dtype: object

>  <hydroph_interaction:LEU:114>  (27) 
hydroph_interaction:LEU:114    NaN
hydroph_interaction:LEU:114     -1
Name: 25, dtype: object

>  <hbond:LEU:114>  (27) 
hbond:LEU:114    NaN
hbond:LEU:114     -1
Name: 25, dtype: object

>  <hydroph_interaction:ILE:123>  (27) 
hydroph_interaction:ILE:123    NaN
hydroph_interaction:ILE:123     -1
Name: 25, dtype: object

>  <hbond:ILE:123>  (27) 
hbond:ILE:123    NaN
hbond:ILE:123     -1
Name: 25, dtype: object

>  <hydroph_interaction:VAL:124>  (27) 
hydroph_interaction:VAL:124    1.0
hydroph_interaction:VAL:124      1
Name: 25, dtype: object

>  <hbond:VAL:124>  (27) 
hbond:VAL:124    NaN
hbond:VAL:124     -1
Name: 25, dtype: object

>  <halogenbond:VAL:124>  (27) 
halogenbond:VAL:124    NaN
halogenbond:VAL:124     -1
Name: 25, dtype: object

>  <hbond:SER:125>  (27) 
hbond:SER:125    0
hbond:SER:125    0
Name: 25, dtype: object

>  <halogenbond:SER:125>  (27) 
halogenbond:SER:125    NaN
halogenbond:SER:125     -1
Name: 25, dtype: object

>  <hydroph_interaction:THR:126>  (27) 
hydroph_interaction:THR:126    0.0
hydroph_interaction:THR:126      0
Name: 25, dtype: object

>  <hbond:THR:126>  (27) 
hbond:THR:126    0.0
hbond:THR:126      0
Name: 25, dtype: object

>  <halogenbond:THR:126>  (27) 
halogenbond:THR:126    NaN
halogenbond:THR:126     -1
Name: 25, dtype: object

>  <hbond:GLY:127>  (27) 
hbond:GLY:127    0
hbond:GLY:127    0
Name: 25, dtype: object

>  <halogenbond:GLY:127>  (27) 
halogenbond:GLY:127    NaN
halogenbond:GLY:127     -1
Name: 25, dtype: object

>  <hydroph_interaction:GLY:127>  (27) 
hydroph_interaction:GLY:127    NaN
hydroph_interaction:GLY:127     -1
Name: 25, dtype: object

>  <hbond:GLY:128>  (27) 
hbond:GLY:128    0.0
hbond:GLY:128      0
Name: 25, dtype: object

>  <halogenbond:GLY:128>  (27) 
halogenbond:GLY:128    NaN
halogenbond:GLY:128     -1
Name: 25, dtype: object

>  <hydroph_interaction:GLY:128>  (27) 
hydroph_interaction:GLY:128    NaN
hydroph_interaction:GLY:128     -1
Name: 25, dtype: object

>  <hbond:ASN:129>  (27) 
hbond:ASN:129    NaN
hbond:ASN:129     -1
Name: 25, dtype: object

>  <hydroph_interaction:ASN:129>  (27) 
hydroph_interaction:ASN:129    NaN
hydroph_interaction:ASN:129     -1
Name: 25, dtype: object

>  <halogenbond:ASN:129>  (27) 
halogenbond:ASN:129    NaN
halogenbond:ASN:129     -1
Name: 25, dtype: object

>  <hbond:GLY:130>  (27) 
hbond:GLY:130    NaN
hbond:GLY:130     -1
Name: 25, dtype: object

>  <hbond:LEU:131>  (27) 
hbond:LEU:131    NaN
hbond:LEU:131     -1
Name: 25, dtype: object

>  <hydroph_interaction:LEU:131>  (27) 
hydroph_interaction:LEU:131    NaN
hydroph_interaction:LEU:131     -1
Name: 25, dtype: object

>  <halogenbond:LEU:131>  (27) 
halogenbond:LEU:131    NaN
halogenbond:LEU:131     -1
Name: 25, dtype: object

>  <hydroph_interaction:VAL:132>  (27) 
hydroph_interaction:VAL:132    0.0
hydroph_interaction:VAL:132      0
Name: 25, dtype: object

>  <hbond:VAL:132>  (27) 
hbond:VAL:132    NaN
hbond:VAL:132     -1
Name: 25, dtype: object

>  <hbond:GLY:133>  (27) 
hbond:GLY:133    NaN
hbond:GLY:133     -1
Name: 25, dtype: object

>  <halogenbond:GLY:133>  (27) 
halogenbond:GLY:133    NaN
halogenbond:GLY:133     -1
Name: 25, dtype: object

>  <hydroph_interaction:PHE:134>  (27) 
hydroph_interaction:PHE:134    NaN
hydroph_interaction:PHE:134     -1
Name: 25, dtype: object

>  <hbond:PHE:134>  (27) 
hbond:PHE:134    NaN
hbond:PHE:134     -1
Name: 25, dtype: object

>  <pistack:PHE:134>  (27) 
pistack:PHE:134    NaN
pistack:PHE:134     -1
Name: 25, dtype: object

>  <pication:PHE:134>  (27) 
pication:PHE:134    NaN
pication:PHE:134     -1
Name: 25, dtype: object

>  <halogenbond:PHE:134>  (27) 
halogenbond:PHE:134    NaN
halogenbond:PHE:134     -1
Name: 25, dtype: object

>  <hydroph_interaction:ALA:135>  (27) 
hydroph_interaction:ALA:135    NaN
hydroph_interaction:ALA:135     -1
Name: 25, dtype: object

>  <hbond:ALA:135>  (27) 
hbond:ALA:135    NaN
hbond:ALA:135     -1
Name: 25, dtype: object

$$$$
Z1728826271
     RDKit          3D

 13 14  0  0  0  0  0  0  0  0999 V2000
   28.5586   14.1538    8.5536 C   0  0  0  0  0  0  0  0  0  0  0  0
   29.6740   13.4851    7.7716 C   0  0  0  0  0  0  0  0  0  0  0  0
   29.2702   13.1382    6.4843 C   0  0  0  0  0  0  0  0  0  0  0  0
   30.1322   12.2990    8.4675 N   0  0  0  0  0  0  0  0  0  0  0  0
   30.8563   11.2494    7.8908 C   0  0  0  0  0  0  0  0  0  0  0  0
   30.6211    9.9360    8.2573 C   0  0  0  0  0  0  0  0  0  0  0  0
   31.3271    8.9129    7.6979 C   0  0  0  0  0  0  0  0  0  0  0  0
   32.3686    9.1510    6.6860 C   0  0  0  0  0  0  0  0  0  0  0  0
   32.6122   10.4496    6.3183 C   0  0  0  0  0  0  0  0  0  0  0  0
   31.8648   11.4635    6.9164 C   0  0  0  0  0  0  0  0  0  0  0  0
   32.3283   12.6337    6.3568 N   0  0  0  0  0  0  0  0  0  0  0  0
   33.3241   12.3850    5.4438 C   0  0  0  0  0  0  0  0  0  0  0  0
   33.5177   11.0328    5.4021 C   0  0  0  0  0  0  0  0  0  0  0  0
  1  2  1  0
  2  3  1  0
  2  4  1  0
  4  5  1  0
  5  6  2  0
  6  7  1  0
  7  8  2  0
  8  9  1  0
  9 10  2  0
 10 11  1  0
 11 12  1  0
 12 13  2  0
 10  5  1  0
 13  9  1  0
A    1
 C1 
A    2
 C2 
A    3
 C3 
A    4
 N1 
A    5
 C4 
A    6
 C5 
A    7
 C6 
A    8
 C7 
A    9
 C8 
A   10
 C9 
A   11
 N2 
A   12
 C10
A   13
 C11
M  END
>  <ref_pdb>  (28) 
Ax0310a

>  <ref_mols>  (28) 
Ax0554a,Ax0739a

>  <original SMILES>  (28) 
CC(C)Nc1cccc2cc[nH]c12

>  <rationale>  (28) 
info halogenbond:C110+G127+D39+A86+S125+E85+Q95+E106+E88+T126+P107+H104+Y64+C65+S87+N129+F83+R93+L131+I82+G128+P91+N19+H21+V84+G133+Y90+Y89+H97+L81+F134+L98+R20+G103+S66+S67+S7+G108+R38+V124+M99+S36; hbond:S125+Y90+Q95+D39+A86+E85+G108+G103+G128+G130+L131+N129+N19+H104+R68+V124+R93+P91+F83+S67+S7+S66+G112+G133+V132+R20+Y89+S77+A135+Y63+A92+A101+M99+F134+L100+I82+Y64+S36+L98+V84+L81+Y94+S80+R38+S37+V102+G8+I123+G111+I113+L114+C65+L22+S96; hydroph_interaction:V84+T126+H21+P107+L22+E85+E106+N129+D39+N19+L40+I123+A135+Q95+I82+L100+L98+L131+F83+R93+V132+Y63+F134+H104+R20+A86+V74+P91+A101+F76+M99+L114+A92+Y94+R68+Y72+Y64+V18+V102+W28+G127+G128+L81; pication:H21+H104+R93+Y63+F134+Y90+R68+F83+R20; pistack:H21+Y89+Y90+H104+F134+Y63+F83+Y94; saltbridge:D39+R93+H104+E106+D109+E85+E88+R68+R20; 

>  <intxn_cluster>  (28) 
-1

>  <intxn_cluster_rank>  (28) 
-1

>  <N_interactions>  (28) 
3

>  <∆∆G>  (28) 
-9.28074

>  <$/mg>  (28) 
0.0

>  <comRMSD>  (28) 
0.755152

>  <N_rotatable_bonds>  (28) 
4

>  <deep_P1_sidechain>  (28) 
nan

>  <farthest_distance_to_substrate>  (28) 
2.496754

>  <hbond:SER:7>  (28) 
hbond:SER:7    NaN
hbond:SER:7     -1
Name: 26, dtype: object

>  <halogenbond:SER:7>  (28) 
halogenbond:SER:7    NaN
halogenbond:SER:7     -1
Name: 26, dtype: object

>  <hbond:GLY:8>  (28) 
hbond:GLY:8    NaN
hbond:GLY:8     -1
Name: 26, dtype: object

>  <hydroph_interaction:VAL:18>  (28) 
hydroph_interaction:VAL:18    NaN
hydroph_interaction:VAL:18     -1
Name: 26, dtype: object

>  <hbond:ASN:19>  (28) 
hbond:ASN:19    NaN
hbond:ASN:19     -1
Name: 26, dtype: object

>  <hydroph_interaction:ASN:19>  (28) 
hydroph_interaction:ASN:19    NaN
hydroph_interaction:ASN:19     -1
Name: 26, dtype: object

>  <halogenbond:ASN:19>  (28) 
halogenbond:ASN:19    NaN
halogenbond:ASN:19     -1
Name: 26, dtype: object

>  <hbond:ARG:20>  (28) 
hbond:ARG:20    NaN
hbond:ARG:20     -1
Name: 26, dtype: object

>  <hydroph_interaction:ARG:20>  (28) 
hydroph_interaction:ARG:20    NaN
hydroph_interaction:ARG:20     -1
Name: 26, dtype: object

>  <saltbridge:ARG:20>  (28) 
saltbridge:ARG:20    NaN
saltbridge:ARG:20     -1
Name: 26, dtype: object

>  <halogenbond:ARG:20>  (28) 
halogenbond:ARG:20    NaN
halogenbond:ARG:20     -1
Name: 26, dtype: object

>  <pication:ARG:20>  (28) 
pication:ARG:20    NaN
pication:ARG:20     -1
Name: 26, dtype: object

>  <hbond:HIS:21>  (28) 
hbond:HIS:21    0.0
hbond:HIS:21      0
Name: 26, dtype: object

>  <hydroph_interaction:HIS:21>  (28) 
hydroph_interaction:HIS:21    NaN
hydroph_interaction:HIS:21     -1
Name: 26, dtype: object

>  <pistack:HIS:21>  (28) 
pistack:HIS:21    NaN
pistack:HIS:21     -1
Name: 26, dtype: object

>  <pication:HIS:21>  (28) 
pication:HIS:21    NaN
pication:HIS:21     -1
Name: 26, dtype: object

>  <saltbridge:HIS:21>  (28) 
saltbridge:HIS:21    0.0
saltbridge:HIS:21      0
Name: 26, dtype: object

>  <halogenbond:HIS:21>  (28) 
halogenbond:HIS:21    NaN
halogenbond:HIS:21     -1
Name: 26, dtype: object

>  <hydroph_interaction:LEU:22>  (28) 
hydroph_interaction:LEU:22    NaN
hydroph_interaction:LEU:22     -1
Name: 26, dtype: object

>  <hbond:LEU:22>  (28) 
hbond:LEU:22    NaN
hbond:LEU:22     -1
Name: 26, dtype: object

>  <hydroph_interaction:TRP:28>  (28) 
hydroph_interaction:TRP:28    NaN
hydroph_interaction:TRP:28     -1
Name: 26, dtype: object

>  <hbond:SER:36>  (28) 
hbond:SER:36    NaN
hbond:SER:36     -1
Name: 26, dtype: object

>  <halogenbond:SER:36>  (28) 
halogenbond:SER:36    NaN
halogenbond:SER:36     -1
Name: 26, dtype: object

>  <hbond:SER:37>  (28) 
hbond:SER:37    NaN
hbond:SER:37     -1
Name: 26, dtype: object

>  <hbond:ARG:38>  (28) 
hbond:ARG:38    NaN
hbond:ARG:38     -1
Name: 26, dtype: object

>  <halogenbond:ARG:38>  (28) 
halogenbond:ARG:38    NaN
halogenbond:ARG:38     -1
Name: 26, dtype: object

>  <saltbridge:ASP:39>  (28) 
saltbridge:ASP:39    NaN
saltbridge:ASP:39     -1
Name: 26, dtype: object

>  <halogenbond:ASP:39>  (28) 
halogenbond:ASP:39    NaN
halogenbond:ASP:39     -1
Name: 26, dtype: object

>  <hbond:ASP:39>  (28) 
hbond:ASP:39    NaN
hbond:ASP:39     -1
Name: 26, dtype: object

>  <hydroph_interaction:ASP:39>  (28) 
hydroph_interaction:ASP:39    NaN
hydroph_interaction:ASP:39     -1
Name: 26, dtype: object

>  <hydroph_interaction:LEU:40>  (28) 
hydroph_interaction:LEU:40    NaN
hydroph_interaction:LEU:40     -1
Name: 26, dtype: object

>  <hydroph_interaction:TYR:63>  (28) 
hydroph_interaction:TYR:63    NaN
hydroph_interaction:TYR:63     -1
Name: 26, dtype: object

>  <hbond:TYR:63>  (28) 
hbond:TYR:63    NaN
hbond:TYR:63     -1
Name: 26, dtype: object

>  <pistack:TYR:63>  (28) 
pistack:TYR:63    NaN
pistack:TYR:63     -1
Name: 26, dtype: object

>  <pication:TYR:63>  (28) 
pication:TYR:63    NaN
pication:TYR:63     -1
Name: 26, dtype: object

>  <halogenbond:TYR:64>  (28) 
halogenbond:TYR:64    NaN
halogenbond:TYR:64     -1
Name: 26, dtype: object

>  <hbond:TYR:64>  (28) 
hbond:TYR:64    NaN
hbond:TYR:64     -1
Name: 26, dtype: object

>  <hydroph_interaction:TYR:64>  (28) 
hydroph_interaction:TYR:64    NaN
hydroph_interaction:TYR:64     -1
Name: 26, dtype: object

>  <halogenbond:CYS:65>  (28) 
halogenbond:CYS:65    NaN
halogenbond:CYS:65     -1
Name: 26, dtype: object

>  <hbond:CYS:65>  (28) 
hbond:CYS:65    NaN
hbond:CYS:65     -1
Name: 26, dtype: object

>  <hbond:SER:66>  (28) 
hbond:SER:66    NaN
hbond:SER:66     -1
Name: 26, dtype: object

>  <halogenbond:SER:66>  (28) 
halogenbond:SER:66    NaN
halogenbond:SER:66     -1
Name: 26, dtype: object

>  <hbond:SER:67>  (28) 
hbond:SER:67    NaN
hbond:SER:67     -1
Name: 26, dtype: object

>  <halogenbond:SER:67>  (28) 
halogenbond:SER:67    NaN
halogenbond:SER:67     -1
Name: 26, dtype: object

>  <hbond:ARG:68>  (28) 
hbond:ARG:68    NaN
hbond:ARG:68     -1
Name: 26, dtype: object

>  <saltbridge:ARG:68>  (28) 
saltbridge:ARG:68    NaN
saltbridge:ARG:68     -1
Name: 26, dtype: object

>  <hydroph_interaction:ARG:68>  (28) 
hydroph_interaction:ARG:68    NaN
hydroph_interaction:ARG:68     -1
Name: 26, dtype: object

>  <pication:ARG:68>  (28) 
pication:ARG:68    NaN
pication:ARG:68     -1
Name: 26, dtype: object

>  <hydroph_interaction:TYR:72>  (28) 
hydroph_interaction:TYR:72    NaN
hydroph_interaction:TYR:72     -1
Name: 26, dtype: object

>  <hydroph_interaction:VAL:74>  (28) 
hydroph_interaction:VAL:74    NaN
hydroph_interaction:VAL:74     -1
Name: 26, dtype: object

>  <hydroph_interaction:PHE:76>  (28) 
hydroph_interaction:PHE:76    NaN
hydroph_interaction:PHE:76     -1
Name: 26, dtype: object

>  <hbond:SER:77>  (28) 
hbond:SER:77    NaN
hbond:SER:77     -1
Name: 26, dtype: object

>  <hbond:SER:80>  (28) 
hbond:SER:80    NaN
hbond:SER:80     -1
Name: 26, dtype: object

>  <hbond:LEU:81>  (28) 
hbond:LEU:81    NaN
hbond:LEU:81     -1
Name: 26, dtype: object

>  <halogenbond:LEU:81>  (28) 
halogenbond:LEU:81    NaN
halogenbond:LEU:81     -1
Name: 26, dtype: object

>  <hydroph_interaction:LEU:81>  (28) 
hydroph_interaction:LEU:81    NaN
hydroph_interaction:LEU:81     -1
Name: 26, dtype: object

>  <hydroph_interaction:ILE:82>  (28) 
hydroph_interaction:ILE:82    NaN
hydroph_interaction:ILE:82     -1
Name: 26, dtype: object

>  <halogenbond:ILE:82>  (28) 
halogenbond:ILE:82    NaN
halogenbond:ILE:82     -1
Name: 26, dtype: object

>  <hbond:ILE:82>  (28) 
hbond:ILE:82    NaN
hbond:ILE:82     -1
Name: 26, dtype: object

>  <hbond:PHE:83>  (28) 
hbond:PHE:83    NaN
hbond:PHE:83     -1
Name: 26, dtype: object

>  <hydroph_interaction:PHE:83>  (28) 
hydroph_interaction:PHE:83    NaN
hydroph_interaction:PHE:83     -1
Name: 26, dtype: object

>  <halogenbond:PHE:83>  (28) 
halogenbond:PHE:83    NaN
halogenbond:PHE:83     -1
Name: 26, dtype: object

>  <pistack:PHE:83>  (28) 
pistack:PHE:83    NaN
pistack:PHE:83     -1
Name: 26, dtype: object

>  <pication:PHE:83>  (28) 
pication:PHE:83    NaN
pication:PHE:83     -1
Name: 26, dtype: object

>  <hydroph_interaction:VAL:84>  (28) 
hydroph_interaction:VAL:84    NaN
hydroph_interaction:VAL:84     -1
Name: 26, dtype: object

>  <halogenbond:VAL:84>  (28) 
halogenbond:VAL:84    NaN
halogenbond:VAL:84     -1
Name: 26, dtype: object

>  <hbond:VAL:84>  (28) 
hbond:VAL:84    NaN
hbond:VAL:84     -1
Name: 26, dtype: object

>  <hydroph_interaction:GLU:85>  (28) 
hydroph_interaction:GLU:85    NaN
hydroph_interaction:GLU:85     -1
Name: 26, dtype: object

>  <hbond:GLU:85>  (28) 
hbond:GLU:85    NaN
hbond:GLU:85     -1
Name: 26, dtype: object

>  <halogenbond:GLU:85>  (28) 
halogenbond:GLU:85    NaN
halogenbond:GLU:85     -1
Name: 26, dtype: object

>  <saltbridge:GLU:85>  (28) 
saltbridge:GLU:85    NaN
saltbridge:GLU:85     -1
Name: 26, dtype: object

>  <halogenbond:ALA:86>  (28) 
halogenbond:ALA:86    NaN
halogenbond:ALA:86     -1
Name: 26, dtype: object

>  <hbond:ALA:86>  (28) 
hbond:ALA:86    NaN
hbond:ALA:86     -1
Name: 26, dtype: object

>  <hydroph_interaction:ALA:86>  (28) 
hydroph_interaction:ALA:86    NaN
hydroph_interaction:ALA:86     -1
Name: 26, dtype: object

>  <hbond:SER:87>  (28) 
hbond:SER:87    0
hbond:SER:87    0
Name: 26, dtype: object

>  <halogenbond:SER:87>  (28) 
halogenbond:SER:87    NaN
halogenbond:SER:87     -1
Name: 26, dtype: object

>  <hbond:GLU:88>  (28) 
hbond:GLU:88    0.0
hbond:GLU:88      0
Name: 26, dtype: object

>  <hydroph_interaction:GLU:88>  (28) 
hydroph_interaction:GLU:88    0.0
hydroph_interaction:GLU:88      0
Name: 26, dtype: object

>  <halogenbond:GLU:88>  (28) 
halogenbond:GLU:88    NaN
halogenbond:GLU:88     -1
Name: 26, dtype: object

>  <saltbridge:GLU:88>  (28) 
saltbridge:GLU:88    NaN
saltbridge:GLU:88     -1
Name: 26, dtype: object

>  <hydroph_interaction:TYR:89>  (28) 
hydroph_interaction:TYR:89    0.0
hydroph_interaction:TYR:89      0
Name: 26, dtype: object

>  <pistack:TYR:89>  (28) 
pistack:TYR:89    NaN
pistack:TYR:89     -1
Name: 26, dtype: object

>  <hbond:TYR:89>  (28) 
hbond:TYR:89    NaN
hbond:TYR:89     -1
Name: 26, dtype: object

>  <halogenbond:TYR:89>  (28) 
halogenbond:TYR:89    NaN
halogenbond:TYR:89     -1
Name: 26, dtype: object

>  <hydroph_interaction:TYR:90>  (28) 
hydroph_interaction:TYR:90    0.0
hydroph_interaction:TYR:90      0
Name: 26, dtype: object

>  <hbond:TYR:90>  (28) 
hbond:TYR:90    NaN
hbond:TYR:90     -1
Name: 26, dtype: object

>  <pistack:TYR:90>  (28) 
pistack:TYR:90    NaN
pistack:TYR:90     -1
Name: 26, dtype: object

>  <halogenbond:TYR:90>  (28) 
halogenbond:TYR:90    NaN
halogenbond:TYR:90     -1
Name: 26, dtype: object

>  <pication:TYR:90>  (28) 
pication:TYR:90    NaN
pication:TYR:90     -1
Name: 26, dtype: object

>  <hbond:PRO:91>  (28) 
hbond:PRO:91    NaN
hbond:PRO:91     -1
Name: 26, dtype: object

>  <hydroph_interaction:PRO:91>  (28) 
hydroph_interaction:PRO:91    NaN
hydroph_interaction:PRO:91     -1
Name: 26, dtype: object

>  <halogenbond:PRO:91>  (28) 
halogenbond:PRO:91    NaN
halogenbond:PRO:91     -1
Name: 26, dtype: object

>  <hbond:ALA:92>  (28) 
hbond:ALA:92    NaN
hbond:ALA:92     -1
Name: 26, dtype: object

>  <hydroph_interaction:ALA:92>  (28) 
hydroph_interaction:ALA:92    NaN
hydroph_interaction:ALA:92     -1
Name: 26, dtype: object

>  <saltbridge:ARG:93>  (28) 
saltbridge:ARG:93    NaN
saltbridge:ARG:93     -1
Name: 26, dtype: object

>  <hbond:ARG:93>  (28) 
hbond:ARG:93    NaN
hbond:ARG:93     -1
Name: 26, dtype: object

>  <hydroph_interaction:ARG:93>  (28) 
hydroph_interaction:ARG:93    NaN
hydroph_interaction:ARG:93     -1
Name: 26, dtype: object

>  <halogenbond:ARG:93>  (28) 
halogenbond:ARG:93    NaN
halogenbond:ARG:93     -1
Name: 26, dtype: object

>  <pication:ARG:93>  (28) 
pication:ARG:93    NaN
pication:ARG:93     -1
Name: 26, dtype: object

>  <hydroph_interaction:TYR:94>  (28) 
hydroph_interaction:TYR:94    NaN
hydroph_interaction:TYR:94     -1
Name: 26, dtype: object

>  <pistack:TYR:94>  (28) 
pistack:TYR:94    NaN
pistack:TYR:94     -1
Name: 26, dtype: object

>  <hbond:TYR:94>  (28) 
hbond:TYR:94    NaN
hbond:TYR:94     -1
Name: 26, dtype: object

>  <hbond:GLN:95>  (28) 
hbond:GLN:95    NaN
hbond:GLN:95     -1
Name: 26, dtype: object

>  <hydroph_interaction:GLN:95>  (28) 
hydroph_interaction:GLN:95    NaN
hydroph_interaction:GLN:95     -1
Name: 26, dtype: object

>  <halogenbond:GLN:95>  (28) 
halogenbond:GLN:95    NaN
halogenbond:GLN:95     -1
Name: 26, dtype: object

>  <hbond:SER:96>  (28) 
hbond:SER:96    NaN
hbond:SER:96     -1
Name: 26, dtype: object

>  <halogenbond:HIS:97>  (28) 
halogenbond:HIS:97    NaN
halogenbond:HIS:97     -1
Name: 26, dtype: object

>  <hydroph_interaction:LEU:98>  (28) 
hydroph_interaction:LEU:98    NaN
hydroph_interaction:LEU:98     -1
Name: 26, dtype: object

>  <hbond:LEU:98>  (28) 
hbond:LEU:98    NaN
hbond:LEU:98     -1
Name: 26, dtype: object

>  <halogenbond:LEU:98>  (28) 
halogenbond:LEU:98    NaN
halogenbond:LEU:98     -1
Name: 26, dtype: object

>  <hbond:MET:99>  (28) 
hbond:MET:99    NaN
hbond:MET:99     -1
Name: 26, dtype: object

>  <hydroph_interaction:MET:99>  (28) 
hydroph_interaction:MET:99    NaN
hydroph_interaction:MET:99     -1
Name: 26, dtype: object

>  <halogenbond:MET:99>  (28) 
halogenbond:MET:99    NaN
halogenbond:MET:99     -1
Name: 26, dtype: object

>  <hydroph_interaction:LEU:100>  (28) 
hydroph_interaction:LEU:100    NaN
hydroph_interaction:LEU:100     -1
Name: 26, dtype: object

>  <hbond:LEU:100>  (28) 
hbond:LEU:100    NaN
hbond:LEU:100     -1
Name: 26, dtype: object

>  <hbond:ALA:101>  (28) 
hbond:ALA:101    NaN
hbond:ALA:101     -1
Name: 26, dtype: object

>  <hydroph_interaction:ALA:101>  (28) 
hydroph_interaction:ALA:101    NaN
hydroph_interaction:ALA:101     -1
Name: 26, dtype: object

>  <hydroph_interaction:VAL:102>  (28) 
hydroph_interaction:VAL:102    NaN
hydroph_interaction:VAL:102     -1
Name: 26, dtype: object

>  <hbond:VAL:102>  (28) 
hbond:VAL:102    NaN
hbond:VAL:102     -1
Name: 26, dtype: object

>  <hbond:GLY:103>  (28) 
hbond:GLY:103    NaN
hbond:GLY:103     -1
Name: 26, dtype: object

>  <halogenbond:GLY:103>  (28) 
halogenbond:GLY:103    NaN
halogenbond:GLY:103     -1
Name: 26, dtype: object

>  <hbond:HIS:104>  (28) 
hbond:HIS:104    NaN
hbond:HIS:104     -1
Name: 26, dtype: object

>  <saltbridge:HIS:104>  (28) 
saltbridge:HIS:104    NaN
saltbridge:HIS:104     -1
Name: 26, dtype: object

>  <pication:HIS:104>  (28) 
pication:HIS:104    NaN
pication:HIS:104     -1
Name: 26, dtype: object

>  <halogenbond:HIS:104>  (28) 
halogenbond:HIS:104    NaN
halogenbond:HIS:104     -1
Name: 26, dtype: object

>  <hydroph_interaction:HIS:104>  (28) 
hydroph_interaction:HIS:104    NaN
hydroph_interaction:HIS:104     -1
Name: 26, dtype: object

>  <pistack:HIS:104>  (28) 
pistack:HIS:104    NaN
pistack:HIS:104     -1
Name: 26, dtype: object

>  <halogenbond:SER:105>  (28) 
halogenbond:SER:105    0.0
halogenbond:SER:105      0
Name: 26, dtype: object

>  <hbond:SER:105>  (28) 
hbond:SER:105    0.0
hbond:SER:105      0
Name: 26, dtype: object

>  <hbond:GLU:106>  (28) 
hbond:GLU:106    0.0
hbond:GLU:106      0
Name: 26, dtype: object

>  <hydroph_interaction:GLU:106>  (28) 
hydroph_interaction:GLU:106    NaN
hydroph_interaction:GLU:106     -1
Name: 26, dtype: object

>  <saltbridge:GLU:106>  (28) 
saltbridge:GLU:106    NaN
saltbridge:GLU:106     -1
Name: 26, dtype: object

>  <halogenbond:GLU:106>  (28) 
halogenbond:GLU:106    NaN
halogenbond:GLU:106     -1
Name: 26, dtype: object

>  <hydroph_interaction:PRO:107>  (28) 
hydroph_interaction:PRO:107    2
hydroph_interaction:PRO:107    2
Name: 26, dtype: object

>  <hbond:PRO:107>  (28) 
hbond:PRO:107    0.0
hbond:PRO:107      0
Name: 26, dtype: object

>  <halogenbond:PRO:107>  (28) 
halogenbond:PRO:107    NaN
halogenbond:PRO:107     -1
Name: 26, dtype: object

>  <hbond:GLY:108>  (28) 
hbond:GLY:108    NaN
hbond:GLY:108     -1
Name: 26, dtype: object

>  <halogenbond:GLY:108>  (28) 
halogenbond:GLY:108    NaN
halogenbond:GLY:108     -1
Name: 26, dtype: object

>  <hbond:ASP:109>  (28) 
hbond:ASP:109    0.0
hbond:ASP:109      0
Name: 26, dtype: object

>  <hydroph_interaction:ASP:109>  (28) 
hydroph_interaction:ASP:109    0.0
hydroph_interaction:ASP:109      0
Name: 26, dtype: object

>  <saltbridge:ASP:109>  (28) 
saltbridge:ASP:109    NaN
saltbridge:ASP:109     -1
Name: 26, dtype: object

>  <halogenbond:CYS:110>  (28) 
halogenbond:CYS:110    NaN
halogenbond:CYS:110     -1
Name: 26, dtype: object

>  <hbond:CYS:110>  (28) 
hbond:CYS:110    0.0
hbond:CYS:110      0
Name: 26, dtype: object

>  <hbond:GLY:111>  (28) 
hbond:GLY:111    NaN
hbond:GLY:111     -1
Name: 26, dtype: object

>  <hbond:GLY:112>  (28) 
hbond:GLY:112    NaN
hbond:GLY:112     -1
Name: 26, dtype: object

>  <hbond:ILE:113>  (28) 
hbond:ILE:113    NaN
hbond:ILE:113     -1
Name: 26, dtype: object

>  <hydroph_interaction:LEU:114>  (28) 
hydroph_interaction:LEU:114    NaN
hydroph_interaction:LEU:114     -1
Name: 26, dtype: object

>  <hbond:LEU:114>  (28) 
hbond:LEU:114    NaN
hbond:LEU:114     -1
Name: 26, dtype: object

>  <hydroph_interaction:ILE:123>  (28) 
hydroph_interaction:ILE:123    NaN
hydroph_interaction:ILE:123     -1
Name: 26, dtype: object

>  <hbond:ILE:123>  (28) 
hbond:ILE:123    NaN
hbond:ILE:123     -1
Name: 26, dtype: object

>  <hydroph_interaction:VAL:124>  (28) 
hydroph_interaction:VAL:124    0.0
hydroph_interaction:VAL:124      0
Name: 26, dtype: object

>  <hbond:VAL:124>  (28) 
hbond:VAL:124    NaN
hbond:VAL:124     -1
Name: 26, dtype: object

>  <halogenbond:VAL:124>  (28) 
halogenbond:VAL:124    NaN
halogenbond:VAL:124     -1
Name: 26, dtype: object

>  <hbond:SER:125>  (28) 
hbond:SER:125    1
hbond:SER:125    1
Name: 26, dtype: object

>  <halogenbond:SER:125>  (28) 
halogenbond:SER:125    NaN
halogenbond:SER:125     -1
Name: 26, dtype: object

>  <hydroph_interaction:THR:126>  (28) 
hydroph_interaction:THR:126    NaN
hydroph_interaction:THR:126     -1
Name: 26, dtype: object

>  <hbond:THR:126>  (28) 
hbond:THR:126    0.0
hbond:THR:126      0
Name: 26, dtype: object

>  <halogenbond:THR:126>  (28) 
halogenbond:THR:126    NaN
halogenbond:THR:126     -1
Name: 26, dtype: object

>  <hbond:GLY:127>  (28) 
hbond:GLY:127    0
hbond:GLY:127    0
Name: 26, dtype: object

>  <halogenbond:GLY:127>  (28) 
halogenbond:GLY:127    NaN
halogenbond:GLY:127     -1
Name: 26, dtype: object

>  <hydroph_interaction:GLY:127>  (28) 
hydroph_interaction:GLY:127    NaN
hydroph_interaction:GLY:127     -1
Name: 26, dtype: object

>  <hbond:GLY:128>  (28) 
hbond:GLY:128    NaN
hbond:GLY:128     -1
Name: 26, dtype: object

>  <halogenbond:GLY:128>  (28) 
halogenbond:GLY:128    NaN
halogenbond:GLY:128     -1
Name: 26, dtype: object

>  <hydroph_interaction:GLY:128>  (28) 
hydroph_interaction:GLY:128    NaN
hydroph_interaction:GLY:128     -1
Name: 26, dtype: object

>  <hbond:ASN:129>  (28) 
hbond:ASN:129    NaN
hbond:ASN:129     -1
Name: 26, dtype: object

>  <hydroph_interaction:ASN:129>  (28) 
hydroph_interaction:ASN:129    NaN
hydroph_interaction:ASN:129     -1
Name: 26, dtype: object

>  <halogenbond:ASN:129>  (28) 
halogenbond:ASN:129    NaN
halogenbond:ASN:129     -1
Name: 26, dtype: object

>  <hbond:GLY:130>  (28) 
hbond:GLY:130    NaN
hbond:GLY:130     -1
Name: 26, dtype: object

>  <hbond:LEU:131>  (28) 
hbond:LEU:131    NaN
hbond:LEU:131     -1
Name: 26, dtype: object

>  <hydroph_interaction:LEU:131>  (28) 
hydroph_interaction:LEU:131    NaN
hydroph_interaction:LEU:131     -1
Name: 26, dtype: object

>  <halogenbond:LEU:131>  (28) 
halogenbond:LEU:131    NaN
halogenbond:LEU:131     -1
Name: 26, dtype: object

>  <hydroph_interaction:VAL:132>  (28) 
hydroph_interaction:VAL:132    NaN
hydroph_interaction:VAL:132     -1
Name: 26, dtype: object

>  <hbond:VAL:132>  (28) 
hbond:VAL:132    NaN
hbond:VAL:132     -1
Name: 26, dtype: object

>  <hbond:GLY:133>  (28) 
hbond:GLY:133    NaN
hbond:GLY:133     -1
Name: 26, dtype: object

>  <halogenbond:GLY:133>  (28) 
halogenbond:GLY:133    NaN
halogenbond:GLY:133     -1
Name: 26, dtype: object

>  <hydroph_interaction:PHE:134>  (28) 
hydroph_interaction:PHE:134    NaN
hydroph_interaction:PHE:134     -1
Name: 26, dtype: object

>  <hbond:PHE:134>  (28) 
hbond:PHE:134    NaN
hbond:PHE:134     -1
Name: 26, dtype: object

>  <pistack:PHE:134>  (28) 
pistack:PHE:134    NaN
pistack:PHE:134     -1
Name: 26, dtype: object

>  <pication:PHE:134>  (28) 
pication:PHE:134    NaN
pication:PHE:134     -1
Name: 26, dtype: object

>  <halogenbond:PHE:134>  (28) 
halogenbond:PHE:134    NaN
halogenbond:PHE:134     -1
Name: 26, dtype: object

>  <hydroph_interaction:ALA:135>  (28) 
hydroph_interaction:ALA:135    NaN
hydroph_interaction:ALA:135     -1
Name: 26, dtype: object

>  <hbond:ALA:135>  (28) 
hbond:ALA:135    NaN
hbond:ALA:135     -1
Name: 26, dtype: object

$$$$
PV_002801438273
     RDKit          3D

 16 17  0  0  0  0  0  0  0  0999 V2000
   30.1692    8.9050    8.9617 C   0  0  0  0  0  0  0  0  0  0  0  0
   31.0660    9.5457    7.9630 C   0  0  0  0  0  0  0  0  0  0  0  0
   31.0790   10.9172    7.6534 C   0  0  0  0  0  0  0  0  0  0  0  0
   30.1667   11.8563    8.3027 N   0  0  0  0  0  0  0  0  0  0  0  0
   29.4495   12.8250    7.6152 C   0  0  0  0  0  0  0  0  0  0  0  0
   29.6705   13.0796    6.4266 O   0  0  0  0  0  0  0  0  0  0  0  0
   28.4528   13.5319    8.2810 C   0  0  0  0  0  0  0  0  0  0  0  0
   28.6011   15.0160    8.3043 C   0  0  0  0  0  0  0  0  0  0  0  0
   28.8075   16.3573    8.2657 N   0  0  0  0  0  0  0  0  0  0  0  0
   32.0146   11.3589    6.6773 C   0  0  0  0  0  0  0  0  0  0  0  0
   32.2172   12.5961    6.2230 N   0  0  0  0  0  0  0  0  0  0  0  0
   33.2395   12.4728    5.2884 O   0  0  0  0  0  0  0  0  0  0  0  0
   33.6642   11.1676    5.1660 N   0  0  0  0  0  0  0  0  0  0  0  0
   32.8826   10.4672    6.0485 C   0  0  0  0  0  0  0  0  0  0  0  0
   32.8694    9.1429    6.3386 C   0  0  0  0  0  0  0  0  0  0  0  0
   31.9537    8.7270    7.2942 C   0  0  0  0  0  0  0  0  0  0  0  0
  1  2  1  0
  2  3  2  0
  3  4  1  0
  4  5  1  0
  5  6  2  0
  5  7  1  0
  7  8  1  0
  8  9  3  0
  3 10  1  0
 10 11  2  0
 11 12  1  0
 12 13  1  0
 13 14  2  0
 14 15  1  0
 15 16  2  0
 16  2  1  0
 14 10  1  0
A    1
 C1 
A    2
 C2 
A    3
 C3 
A    4
 N1 
A    5
 C4 
A    6
 O1 
A    7
 C5 
A    8
 C6 
A    9
 N2 
A   10
 C7 
A   11
 N3 
A   12
 O2 
A   13
 N4 
A   14
 C8 
A   15
 C9 
A   16
 C10
M  END
>  <ref_pdb>  (29) 
Ax0310a

>  <ref_mols>  (29) 
Ax0473a,Ax0554a

>  <original SMILES>  (29) 
Cc1ccc2nonc2c1NC(=O)CC#N

>  <rationale>  (29) 
info halogenbond:G127+D39+A86+S125+Q95+E106+E88+T126+P107+H104+Y64+C65+S87+F83+R93+L131+I82+G128+P91+N19+H21+V84+G133+Y90+Y89+H97+L81+F134+L98+R20+G103+S66+S67+S7+G108+R38+V124+M99+S36; hbond:S87+S125+E88+Y90+G108+G103+H104+R68+R93+P91+S67+S66+G112+R20+Y89+S77+A135+Y63+A92+A101+M99+F134+L100+I82+Y64+S36+L98+V84+L81+Y94+S80+R38+S37+V102+G8+I123+G111+I113+L114+C65+L22+S96; hydroph_interaction:V124+L40+I123+A135+R93+Y63+H104+R20+A86+V74+P91+A101+F76+M99+L114+A92+Y94+R68+Y72+Y64+V18+V102+W28+G127+G128+L81; pication:H104+R93+Y63+F134+Y90+R68+F83+R20; pistack:Y89+Y90+H104+F134+Y63+Y94; saltbridge:D39+H21+R93+H104+E106+D109+E88+R68+R20; 

>  <intxn_cluster>  (29) 
-1

>  <intxn_cluster_rank>  (29) 
-1

>  <N_interactions>  (29) 
5

>  <∆∆G>  (29) 
-7.59757

>  <$/mg>  (29) 
0.0

>  <comRMSD>  (29) 
0.559124

>  <N_rotatable_bonds>  (29) 
3

>  <deep_P1_sidechain>  (29) 
nan

>  <farthest_distance_to_substrate>  (29) 
2.812212

>  <hbond:SER:7>  (29) 
hbond:SER:7    0.0
hbond:SER:7      0
Name: 27, dtype: object

>  <halogenbond:SER:7>  (29) 
halogenbond:SER:7    NaN
halogenbond:SER:7     -1
Name: 27, dtype: object

>  <hbond:GLY:8>  (29) 
hbond:GLY:8    NaN
hbond:GLY:8     -1
Name: 27, dtype: object

>  <hydroph_interaction:VAL:18>  (29) 
hydroph_interaction:VAL:18    NaN
hydroph_interaction:VAL:18     -1
Name: 27, dtype: object

>  <hbond:ASN:19>  (29) 
hbond:ASN:19    0.0
hbond:ASN:19      0
Name: 27, dtype: object

>  <hydroph_interaction:ASN:19>  (29) 
hydroph_interaction:ASN:19    0.0
hydroph_interaction:ASN:19      0
Name: 27, dtype: object

>  <halogenbond:ASN:19>  (29) 
halogenbond:ASN:19    NaN
halogenbond:ASN:19     -1
Name: 27, dtype: object

>  <hbond:ARG:20>  (29) 
hbond:ARG:20    NaN
hbond:ARG:20     -1
Name: 27, dtype: object

>  <hydroph_interaction:ARG:20>  (29) 
hydroph_interaction:ARG:20    NaN
hydroph_interaction:ARG:20     -1
Name: 27, dtype: object

>  <saltbridge:ARG:20>  (29) 
saltbridge:ARG:20    NaN
saltbridge:ARG:20     -1
Name: 27, dtype: object

>  <halogenbond:ARG:20>  (29) 
halogenbond:ARG:20    NaN
halogenbond:ARG:20     -1
Name: 27, dtype: object

>  <pication:ARG:20>  (29) 
pication:ARG:20    NaN
pication:ARG:20     -1
Name: 27, dtype: object

>  <hbond:HIS:21>  (29) 
hbond:HIS:21    0.0
hbond:HIS:21      0
Name: 27, dtype: object

>  <hydroph_interaction:HIS:21>  (29) 
hydroph_interaction:HIS:21    0.0
hydroph_interaction:HIS:21      0
Name: 27, dtype: object

>  <pistack:HIS:21>  (29) 
pistack:HIS:21    0.0
pistack:HIS:21      0
Name: 27, dtype: object

>  <pication:HIS:21>  (29) 
pication:HIS:21    0.0
pication:HIS:21      0
Name: 27, dtype: object

>  <saltbridge:HIS:21>  (29) 
saltbridge:HIS:21    NaN
saltbridge:HIS:21     -1
Name: 27, dtype: object

>  <halogenbond:HIS:21>  (29) 
halogenbond:HIS:21    NaN
halogenbond:HIS:21     -1
Name: 27, dtype: object

>  <hydroph_interaction:LEU:22>  (29) 
hydroph_interaction:LEU:22    0.0
hydroph_interaction:LEU:22      0
Name: 27, dtype: object

>  <hbond:LEU:22>  (29) 
hbond:LEU:22    NaN
hbond:LEU:22     -1
Name: 27, dtype: object

>  <hydroph_interaction:TRP:28>  (29) 
hydroph_interaction:TRP:28    NaN
hydroph_interaction:TRP:28     -1
Name: 27, dtype: object

>  <hbond:SER:36>  (29) 
hbond:SER:36    NaN
hbond:SER:36     -1
Name: 27, dtype: object

>  <halogenbond:SER:36>  (29) 
halogenbond:SER:36    NaN
halogenbond:SER:36     -1
Name: 27, dtype: object

>  <hbond:SER:37>  (29) 
hbond:SER:37    NaN
hbond:SER:37     -1
Name: 27, dtype: object

>  <hbond:ARG:38>  (29) 
hbond:ARG:38    NaN
hbond:ARG:38     -1
Name: 27, dtype: object

>  <halogenbond:ARG:38>  (29) 
halogenbond:ARG:38    NaN
halogenbond:ARG:38     -1
Name: 27, dtype: object

>  <saltbridge:ASP:39>  (29) 
saltbridge:ASP:39    NaN
saltbridge:ASP:39     -1
Name: 27, dtype: object

>  <halogenbond:ASP:39>  (29) 
halogenbond:ASP:39    NaN
halogenbond:ASP:39     -1
Name: 27, dtype: object

>  <hbond:ASP:39>  (29) 
hbond:ASP:39    0.0
hbond:ASP:39      0
Name: 27, dtype: object

>  <hydroph_interaction:ASP:39>  (29) 
hydroph_interaction:ASP:39    0.0
hydroph_interaction:ASP:39      0
Name: 27, dtype: object

>  <hydroph_interaction:LEU:40>  (29) 
hydroph_interaction:LEU:40    NaN
hydroph_interaction:LEU:40     -1
Name: 27, dtype: object

>  <hydroph_interaction:TYR:63>  (29) 
hydroph_interaction:TYR:63    NaN
hydroph_interaction:TYR:63     -1
Name: 27, dtype: object

>  <hbond:TYR:63>  (29) 
hbond:TYR:63    NaN
hbond:TYR:63     -1
Name: 27, dtype: object

>  <pistack:TYR:63>  (29) 
pistack:TYR:63    NaN
pistack:TYR:63     -1
Name: 27, dtype: object

>  <pication:TYR:63>  (29) 
pication:TYR:63    NaN
pication:TYR:63     -1
Name: 27, dtype: object

>  <halogenbond:TYR:64>  (29) 
halogenbond:TYR:64    NaN
halogenbond:TYR:64     -1
Name: 27, dtype: object

>  <hbond:TYR:64>  (29) 
hbond:TYR:64    NaN
hbond:TYR:64     -1
Name: 27, dtype: object

>  <hydroph_interaction:TYR:64>  (29) 
hydroph_interaction:TYR:64    NaN
hydroph_interaction:TYR:64     -1
Name: 27, dtype: object

>  <halogenbond:CYS:65>  (29) 
halogenbond:CYS:65    NaN
halogenbond:CYS:65     -1
Name: 27, dtype: object

>  <hbond:CYS:65>  (29) 
hbond:CYS:65    NaN
hbond:CYS:65     -1
Name: 27, dtype: object

>  <hbond:SER:66>  (29) 
hbond:SER:66    NaN
hbond:SER:66     -1
Name: 27, dtype: object

>  <halogenbond:SER:66>  (29) 
halogenbond:SER:66    NaN
halogenbond:SER:66     -1
Name: 27, dtype: object

>  <hbond:SER:67>  (29) 
hbond:SER:67    NaN
hbond:SER:67     -1
Name: 27, dtype: object

>  <halogenbond:SER:67>  (29) 
halogenbond:SER:67    NaN
halogenbond:SER:67     -1
Name: 27, dtype: object

>  <hbond:ARG:68>  (29) 
hbond:ARG:68    NaN
hbond:ARG:68     -1
Name: 27, dtype: object

>  <saltbridge:ARG:68>  (29) 
saltbridge:ARG:68    NaN
saltbridge:ARG:68     -1
Name: 27, dtype: object

>  <hydroph_interaction:ARG:68>  (29) 
hydroph_interaction:ARG:68    NaN
hydroph_interaction:ARG:68     -1
Name: 27, dtype: object

>  <pication:ARG:68>  (29) 
pication:ARG:68    NaN
pication:ARG:68     -1
Name: 27, dtype: object

>  <hydroph_interaction:TYR:72>  (29) 
hydroph_interaction:TYR:72    NaN
hydroph_interaction:TYR:72     -1
Name: 27, dtype: object

>  <hydroph_interaction:VAL:74>  (29) 
hydroph_interaction:VAL:74    NaN
hydroph_interaction:VAL:74     -1
Name: 27, dtype: object

>  <hydroph_interaction:PHE:76>  (29) 
hydroph_interaction:PHE:76    NaN
hydroph_interaction:PHE:76     -1
Name: 27, dtype: object

>  <hbond:SER:77>  (29) 
hbond:SER:77    NaN
hbond:SER:77     -1
Name: 27, dtype: object

>  <hbond:SER:80>  (29) 
hbond:SER:80    NaN
hbond:SER:80     -1
Name: 27, dtype: object

>  <hbond:LEU:81>  (29) 
hbond:LEU:81    NaN
hbond:LEU:81     -1
Name: 27, dtype: object

>  <halogenbond:LEU:81>  (29) 
halogenbond:LEU:81    NaN
halogenbond:LEU:81     -1
Name: 27, dtype: object

>  <hydroph_interaction:LEU:81>  (29) 
hydroph_interaction:LEU:81    NaN
hydroph_interaction:LEU:81     -1
Name: 27, dtype: object

>  <hydroph_interaction:ILE:82>  (29) 
hydroph_interaction:ILE:82    0.0
hydroph_interaction:ILE:82      0
Name: 27, dtype: object

>  <halogenbond:ILE:82>  (29) 
halogenbond:ILE:82    NaN
halogenbond:ILE:82     -1
Name: 27, dtype: object

>  <hbond:ILE:82>  (29) 
hbond:ILE:82    NaN
hbond:ILE:82     -1
Name: 27, dtype: object

>  <hbond:PHE:83>  (29) 
hbond:PHE:83    0.0
hbond:PHE:83      0
Name: 27, dtype: object

>  <hydroph_interaction:PHE:83>  (29) 
hydroph_interaction:PHE:83    0.0
hydroph_interaction:PHE:83      0
Name: 27, dtype: object

>  <halogenbond:PHE:83>  (29) 
halogenbond:PHE:83    NaN
halogenbond:PHE:83     -1
Name: 27, dtype: object

>  <pistack:PHE:83>  (29) 
pistack:PHE:83    0.0
pistack:PHE:83      0
Name: 27, dtype: object

>  <pication:PHE:83>  (29) 
pication:PHE:83    NaN
pication:PHE:83     -1
Name: 27, dtype: object

>  <hydroph_interaction:VAL:84>  (29) 
hydroph_interaction:VAL:84    0.0
hydroph_interaction:VAL:84      0
Name: 27, dtype: object

>  <halogenbond:VAL:84>  (29) 
halogenbond:VAL:84    NaN
halogenbond:VAL:84     -1
Name: 27, dtype: object

>  <hbond:VAL:84>  (29) 
hbond:VAL:84    NaN
hbond:VAL:84     -1
Name: 27, dtype: object

>  <hydroph_interaction:GLU:85>  (29) 
hydroph_interaction:GLU:85    0.0
hydroph_interaction:GLU:85      0
Name: 27, dtype: object

>  <hbond:GLU:85>  (29) 
hbond:GLU:85    0.0
hbond:GLU:85      0
Name: 27, dtype: object

>  <halogenbond:GLU:85>  (29) 
halogenbond:GLU:85    0.0
halogenbond:GLU:85      0
Name: 27, dtype: object

>  <saltbridge:GLU:85>  (29) 
saltbridge:GLU:85    0.0
saltbridge:GLU:85      0
Name: 27, dtype: object

>  <halogenbond:ALA:86>  (29) 
halogenbond:ALA:86    NaN
halogenbond:ALA:86     -1
Name: 27, dtype: object

>  <hbond:ALA:86>  (29) 
hbond:ALA:86    0.0
hbond:ALA:86      0
Name: 27, dtype: object

>  <hydroph_interaction:ALA:86>  (29) 
hydroph_interaction:ALA:86    NaN
hydroph_interaction:ALA:86     -1
Name: 27, dtype: object

>  <hbond:SER:87>  (29) 
hbond:SER:87    1
hbond:SER:87    1
Name: 27, dtype: object

>  <halogenbond:SER:87>  (29) 
halogenbond:SER:87    NaN
halogenbond:SER:87     -1
Name: 27, dtype: object

>  <hbond:GLU:88>  (29) 
hbond:GLU:88    1.0
hbond:GLU:88      1
Name: 27, dtype: object

>  <hydroph_interaction:GLU:88>  (29) 
hydroph_interaction:GLU:88    0.0
hydroph_interaction:GLU:88      0
Name: 27, dtype: object

>  <halogenbond:GLU:88>  (29) 
halogenbond:GLU:88    NaN
halogenbond:GLU:88     -1
Name: 27, dtype: object

>  <saltbridge:GLU:88>  (29) 
saltbridge:GLU:88    NaN
saltbridge:GLU:88     -1
Name: 27, dtype: object

>  <hydroph_interaction:TYR:89>  (29) 
hydroph_interaction:TYR:89    0.0
hydroph_interaction:TYR:89      0
Name: 27, dtype: object

>  <pistack:TYR:89>  (29) 
pistack:TYR:89    NaN
pistack:TYR:89     -1
Name: 27, dtype: object

>  <hbond:TYR:89>  (29) 
hbond:TYR:89    NaN
hbond:TYR:89     -1
Name: 27, dtype: object

>  <halogenbond:TYR:89>  (29) 
halogenbond:TYR:89    NaN
halogenbond:TYR:89     -1
Name: 27, dtype: object

>  <hydroph_interaction:TYR:90>  (29) 
hydroph_interaction:TYR:90    0.0
hydroph_interaction:TYR:90      0
Name: 27, dtype: object

>  <hbond:TYR:90>  (29) 
hbond:TYR:90    1.0
hbond:TYR:90      1
Name: 27, dtype: object

>  <pistack:TYR:90>  (29) 
pistack:TYR:90    NaN
pistack:TYR:90     -1
Name: 27, dtype: object

>  <halogenbond:TYR:90>  (29) 
halogenbond:TYR:90    NaN
halogenbond:TYR:90     -1
Name: 27, dtype: object

>  <pication:TYR:90>  (29) 
pication:TYR:90    NaN
pication:TYR:90     -1
Name: 27, dtype: object

>  <hbond:PRO:91>  (29) 
hbond:PRO:91    NaN
hbond:PRO:91     -1
Name: 27, dtype: object

>  <hydroph_interaction:PRO:91>  (29) 
hydroph_interaction:PRO:91    NaN
hydroph_interaction:PRO:91     -1
Name: 27, dtype: object

>  <halogenbond:PRO:91>  (29) 
halogenbond:PRO:91    NaN
halogenbond:PRO:91     -1
Name: 27, dtype: object

>  <hbond:ALA:92>  (29) 
hbond:ALA:92    NaN
hbond:ALA:92     -1
Name: 27, dtype: object

>  <hydroph_interaction:ALA:92>  (29) 
hydroph_interaction:ALA:92    NaN
hydroph_interaction:ALA:92     -1
Name: 27, dtype: object

>  <saltbridge:ARG:93>  (29) 
saltbridge:ARG:93    NaN
saltbridge:ARG:93     -1
Name: 27, dtype: object

>  <hbond:ARG:93>  (29) 
hbond:ARG:93    NaN
hbond:ARG:93     -1
Name: 27, dtype: object

>  <hydroph_interaction:ARG:93>  (29) 
hydroph_interaction:ARG:93    NaN
hydroph_interaction:ARG:93     -1
Name: 27, dtype: object

>  <halogenbond:ARG:93>  (29) 
halogenbond:ARG:93    NaN
halogenbond:ARG:93     -1
Name: 27, dtype: object

>  <pication:ARG:93>  (29) 
pication:ARG:93    NaN
pication:ARG:93     -1
Name: 27, dtype: object

>  <hydroph_interaction:TYR:94>  (29) 
hydroph_interaction:TYR:94    NaN
hydroph_interaction:TYR:94     -1
Name: 27, dtype: object

>  <pistack:TYR:94>  (29) 
pistack:TYR:94    NaN
pistack:TYR:94     -1
Name: 27, dtype: object

>  <hbond:TYR:94>  (29) 
hbond:TYR:94    NaN
hbond:TYR:94     -1
Name: 27, dtype: object

>  <hbond:GLN:95>  (29) 
hbond:GLN:95    0.0
hbond:GLN:95      0
Name: 27, dtype: object

>  <hydroph_interaction:GLN:95>  (29) 
hydroph_interaction:GLN:95    0.0
hydroph_interaction:GLN:95      0
Name: 27, dtype: object

>  <halogenbond:GLN:95>  (29) 
halogenbond:GLN:95    NaN
halogenbond:GLN:95     -1
Name: 27, dtype: object

>  <hbond:SER:96>  (29) 
hbond:SER:96    NaN
hbond:SER:96     -1
Name: 27, dtype: object

>  <halogenbond:HIS:97>  (29) 
halogenbond:HIS:97    NaN
halogenbond:HIS:97     -1
Name: 27, dtype: object

>  <hydroph_interaction:LEU:98>  (29) 
hydroph_interaction:LEU:98    0.0
hydroph_interaction:LEU:98      0
Name: 27, dtype: object

>  <hbond:LEU:98>  (29) 
hbond:LEU:98    NaN
hbond:LEU:98     -1
Name: 27, dtype: object

>  <halogenbond:LEU:98>  (29) 
halogenbond:LEU:98    NaN
halogenbond:LEU:98     -1
Name: 27, dtype: object

>  <hbond:MET:99>  (29) 
hbond:MET:99    NaN
hbond:MET:99     -1
Name: 27, dtype: object

>  <hydroph_interaction:MET:99>  (29) 
hydroph_interaction:MET:99    NaN
hydroph_interaction:MET:99     -1
Name: 27, dtype: object

>  <halogenbond:MET:99>  (29) 
halogenbond:MET:99    NaN
halogenbond:MET:99     -1
Name: 27, dtype: object

>  <hydroph_interaction:LEU:100>  (29) 
hydroph_interaction:LEU:100    0.0
hydroph_interaction:LEU:100      0
Name: 27, dtype: object

>  <hbond:LEU:100>  (29) 
hbond:LEU:100    NaN
hbond:LEU:100     -1
Name: 27, dtype: object

>  <hbond:ALA:101>  (29) 
hbond:ALA:101    NaN
hbond:ALA:101     -1
Name: 27, dtype: object

>  <hydroph_interaction:ALA:101>  (29) 
hydroph_interaction:ALA:101    NaN
hydroph_interaction:ALA:101     -1
Name: 27, dtype: object

>  <hydroph_interaction:VAL:102>  (29) 
hydroph_interaction:VAL:102    NaN
hydroph_interaction:VAL:102     -1
Name: 27, dtype: object

>  <hbond:VAL:102>  (29) 
hbond:VAL:102    NaN
hbond:VAL:102     -1
Name: 27, dtype: object

>  <hbond:GLY:103>  (29) 
hbond:GLY:103    NaN
hbond:GLY:103     -1
Name: 27, dtype: object

>  <halogenbond:GLY:103>  (29) 
halogenbond:GLY:103    NaN
halogenbond:GLY:103     -1
Name: 27, dtype: object

>  <hbond:HIS:104>  (29) 
hbond:HIS:104    NaN
hbond:HIS:104     -1
Name: 27, dtype: object

>  <saltbridge:HIS:104>  (29) 
saltbridge:HIS:104    NaN
saltbridge:HIS:104     -1
Name: 27, dtype: object

>  <pication:HIS:104>  (29) 
pication:HIS:104    NaN
pication:HIS:104     -1
Name: 27, dtype: object

>  <halogenbond:HIS:104>  (29) 
halogenbond:HIS:104    NaN
halogenbond:HIS:104     -1
Name: 27, dtype: object

>  <hydroph_interaction:HIS:104>  (29) 
hydroph_interaction:HIS:104    NaN
hydroph_interaction:HIS:104     -1
Name: 27, dtype: object

>  <pistack:HIS:104>  (29) 
pistack:HIS:104    NaN
pistack:HIS:104     -1
Name: 27, dtype: object

>  <halogenbond:SER:105>  (29) 
halogenbond:SER:105    0.0
halogenbond:SER:105      0
Name: 27, dtype: object

>  <hbond:SER:105>  (29) 
hbond:SER:105    0.0
hbond:SER:105      0
Name: 27, dtype: object

>  <hbond:GLU:106>  (29) 
hbond:GLU:106    0.0
hbond:GLU:106      0
Name: 27, dtype: object

>  <hydroph_interaction:GLU:106>  (29) 
hydroph_interaction:GLU:106    0.0
hydroph_interaction:GLU:106      0
Name: 27, dtype: object

>  <saltbridge:GLU:106>  (29) 
saltbridge:GLU:106    NaN
saltbridge:GLU:106     -1
Name: 27, dtype: object

>  <halogenbond:GLU:106>  (29) 
halogenbond:GLU:106    NaN
halogenbond:GLU:106     -1
Name: 27, dtype: object

>  <hydroph_interaction:PRO:107>  (29) 
hydroph_interaction:PRO:107    0
hydroph_interaction:PRO:107    0
Name: 27, dtype: object

>  <hbond:PRO:107>  (29) 
hbond:PRO:107    0.0
hbond:PRO:107      0
Name: 27, dtype: object

>  <halogenbond:PRO:107>  (29) 
halogenbond:PRO:107    NaN
halogenbond:PRO:107     -1
Name: 27, dtype: object

>  <hbond:GLY:108>  (29) 
hbond:GLY:108    NaN
hbond:GLY:108     -1
Name: 27, dtype: object

>  <halogenbond:GLY:108>  (29) 
halogenbond:GLY:108    NaN
halogenbond:GLY:108     -1
Name: 27, dtype: object

>  <hbond:ASP:109>  (29) 
hbond:ASP:109    0.0
hbond:ASP:109      0
Name: 27, dtype: object

>  <hydroph_interaction:ASP:109>  (29) 
hydroph_interaction:ASP:109    0.0
hydroph_interaction:ASP:109      0
Name: 27, dtype: object

>  <saltbridge:ASP:109>  (29) 
saltbridge:ASP:109    NaN
saltbridge:ASP:109     -1
Name: 27, dtype: object

>  <halogenbond:CYS:110>  (29) 
halogenbond:CYS:110    0.0
halogenbond:CYS:110      0
Name: 27, dtype: object

>  <hbond:CYS:110>  (29) 
hbond:CYS:110    0.0
hbond:CYS:110      0
Name: 27, dtype: object

>  <hbond:GLY:111>  (29) 
hbond:GLY:111    NaN
hbond:GLY:111     -1
Name: 27, dtype: object

>  <hbond:GLY:112>  (29) 
hbond:GLY:112    NaN
hbond:GLY:112     -1
Name: 27, dtype: object

>  <hbond:ILE:113>  (29) 
hbond:ILE:113    NaN
hbond:ILE:113     -1
Name: 27, dtype: object

>  <hydroph_interaction:LEU:114>  (29) 
hydroph_interaction:LEU:114    NaN
hydroph_interaction:LEU:114     -1
Name: 27, dtype: object

>  <hbond:LEU:114>  (29) 
hbond:LEU:114    NaN
hbond:LEU:114     -1
Name: 27, dtype: object

>  <hydroph_interaction:ILE:123>  (29) 
hydroph_interaction:ILE:123    NaN
hydroph_interaction:ILE:123     -1
Name: 27, dtype: object

>  <hbond:ILE:123>  (29) 
hbond:ILE:123    NaN
hbond:ILE:123     -1
Name: 27, dtype: object

>  <hydroph_interaction:VAL:124>  (29) 
hydroph_interaction:VAL:124    1.0
hydroph_interaction:VAL:124      1
Name: 27, dtype: object

>  <hbond:VAL:124>  (29) 
hbond:VAL:124    0.0
hbond:VAL:124      0
Name: 27, dtype: object

>  <halogenbond:VAL:124>  (29) 
halogenbond:VAL:124    NaN
halogenbond:VAL:124     -1
Name: 27, dtype: object

>  <hbond:SER:125>  (29) 
hbond:SER:125    1
hbond:SER:125    1
Name: 27, dtype: object

>  <halogenbond:SER:125>  (29) 
halogenbond:SER:125    NaN
halogenbond:SER:125     -1
Name: 27, dtype: object

>  <hydroph_interaction:THR:126>  (29) 
hydroph_interaction:THR:126    0.0
hydroph_interaction:THR:126      0
Name: 27, dtype: object

>  <hbond:THR:126>  (29) 
hbond:THR:126    0.0
hbond:THR:126      0
Name: 27, dtype: object

>  <halogenbond:THR:126>  (29) 
halogenbond:THR:126    NaN
halogenbond:THR:126     -1
Name: 27, dtype: object

>  <hbond:GLY:127>  (29) 
hbond:GLY:127    0
hbond:GLY:127    0
Name: 27, dtype: object

>  <halogenbond:GLY:127>  (29) 
halogenbond:GLY:127    NaN
halogenbond:GLY:127     -1
Name: 27, dtype: object

>  <hydroph_interaction:GLY:127>  (29) 
hydroph_interaction:GLY:127    NaN
hydroph_interaction:GLY:127     -1
Name: 27, dtype: object

>  <hbond:GLY:128>  (29) 
hbond:GLY:128    0.0
hbond:GLY:128      0
Name: 27, dtype: object

>  <halogenbond:GLY:128>  (29) 
halogenbond:GLY:128    NaN
halogenbond:GLY:128     -1
Name: 27, dtype: object

>  <hydroph_interaction:GLY:128>  (29) 
hydroph_interaction:GLY:128    NaN
hydroph_interaction:GLY:128     -1
Name: 27, dtype: object

>  <hbond:ASN:129>  (29) 
hbond:ASN:129    0.0
hbond:ASN:129      0
Name: 27, dtype: object

>  <hydroph_interaction:ASN:129>  (29) 
hydroph_interaction:ASN:129    0.0
hydroph_interaction:ASN:129      0
Name: 27, dtype: object

>  <halogenbond:ASN:129>  (29) 
halogenbond:ASN:129    0.0
halogenbond:ASN:129      0
Name: 27, dtype: object

>  <hbond:GLY:130>  (29) 
hbond:GLY:130    0.0
hbond:GLY:130      0
Name: 27, dtype: object

>  <hbond:LEU:131>  (29) 
hbond:LEU:131    0.0
hbond:LEU:131      0
Name: 27, dtype: object

>  <hydroph_interaction:LEU:131>  (29) 
hydroph_interaction:LEU:131    0.0
hydroph_interaction:LEU:131      0
Name: 27, dtype: object

>  <halogenbond:LEU:131>  (29) 
halogenbond:LEU:131    NaN
halogenbond:LEU:131     -1
Name: 27, dtype: object

>  <hydroph_interaction:VAL:132>  (29) 
hydroph_interaction:VAL:132    0.0
hydroph_interaction:VAL:132      0
Name: 27, dtype: object

>  <hbond:VAL:132>  (29) 
hbond:VAL:132    0.0
hbond:VAL:132      0
Name: 27, dtype: object

>  <hbond:GLY:133>  (29) 
hbond:GLY:133    0.0
hbond:GLY:133      0
Name: 27, dtype: object

>  <halogenbond:GLY:133>  (29) 
halogenbond:GLY:133    NaN
halogenbond:GLY:133     -1
Name: 27, dtype: object

>  <hydroph_interaction:PHE:134>  (29) 
hydroph_interaction:PHE:134    0.0
hydroph_interaction:PHE:134      0
Name: 27, dtype: object

>  <hbond:PHE:134>  (29) 
hbond:PHE:134    NaN
hbond:PHE:134     -1
Name: 27, dtype: object

>  <pistack:PHE:134>  (29) 
pistack:PHE:134    NaN
pistack:PHE:134     -1
Name: 27, dtype: object

>  <pication:PHE:134>  (29) 
pication:PHE:134    NaN
pication:PHE:134     -1
Name: 27, dtype: object

>  <halogenbond:PHE:134>  (29) 
halogenbond:PHE:134    NaN
halogenbond:PHE:134     -1
Name: 27, dtype: object

>  <hydroph_interaction:ALA:135>  (29) 
hydroph_interaction:ALA:135    NaN
hydroph_interaction:ALA:135     -1
Name: 27, dtype: object

>  <hbond:ALA:135>  (29) 
hbond:ALA:135    NaN
hbond:ALA:135     -1
Name: 27, dtype: object

$$$$
PV_002880413010
     RDKit          3D

 12 12  0  0  0  0  0  0  0  0999 V2000
   27.9668   15.2195    8.4181 C   0  0  0  0  0  0  0  0  0  0  0  0
   28.6587   14.0683    8.9613 C   0  0  0  0  0  0  0  0  0  0  0  0
   29.9925   13.9499    8.4145 N   0  0  0  0  0  0  0  0  0  0  0  0
   31.1366   14.0155    9.3113 C   0  0  0  0  0  0  0  0  0  0  0  0
   30.2272   13.1754    7.3682 C   0  0  0  0  0  0  0  0  0  0  0  0
   29.9787   13.5968    6.2408 O   0  0  0  0  0  0  0  0  0  0  0  0
   30.7457   11.7651    7.4648 C   0  0  0  0  0  0  0  0  0  0  0  0
   31.8645   11.2641    6.5306 C   0  0  0  0  0  0  0  0  0  0  0  0
   31.9968    9.8522    7.0034 C   0  0  0  0  0  0  0  0  0  0  0  0
   31.0191    9.6142    8.1210 C   0  0  0  0  0  0  0  0  0  0  0  0
   30.8970    8.3191    8.8187 C   0  0  0  0  0  0  0  0  0  0  0  0
   30.3247   10.7706    8.3392 N   0  0  0  0  0  0  0  0  0  0  0  0
  1  2  1  0
  2  3  1  0
  3  4  1  0
  3  5  1  0
  5  6  2  0
  5  7  1  0
  7  8  2  0
  8  9  1  0
  9 10  2  0
 10 11  1  0
 10 12  1  0
 12  7  1  0
A    1
 C1 
A    2
 C2 
A    3
 N1 
A    4
 C3 
A    5
 C4 
A    6
 O1 
A    7
 C5 
A    8
 C6 
A    9
 C7 
A   10
 C8 
A   11
 C9 
A   12
 N2 
M  END
>  <ref_pdb>  (30) 
Ax0310a

>  <ref_mols>  (30) 
Ax0473a,Ax0451a

>  <original SMILES>  (30) 
CCN(C)C(=O)c1ccc(C)[nH]1

>  <rationale>  (30) 
info halogenbond:S105+C110+D39+A86+S125+E85+Q95+E106+E88+P107+H104+Y64+C65+S87+R93+I82+P91+N19+H21+V84+G133+Y90+Y89+H97+L81+F134+L98+R20+G103+S66+S67+S7+G108+R38+V124+M99+S36; hbond:H21+Y90+P107+D39+C110+D109+G108+G103+N19+H104+R68+V124+R93+P91+S67+S7+S66+G112+R20+Y89+A135+Y63+A92+F134+L100+Y64+S36+V84+L81+Y94+S80+R38+S37+V102+G8+G111+I113+L114+C65+L22+S96; hydroph_interaction:V124+Y90+Y89+H21+P107+L22+E106+D109+D39+N19+L40+I123+R93+H104+R20+A86+P91+F76+M99+L114+A92+R68+Y72+Y64+V18+V102+W28+G127+G128; pication:H21+H104+R93+Y63+F134+Y90+R68+F83+R20; pistack:H21+Y89+Y90+H104+F134+Y63+F83+Y94; saltbridge:D39+R93+H104+E106+D109+E88+R68+R20; 

>  <intxn_cluster>  (30) 
-1

>  <intxn_cluster_rank>  (30) 
-1

>  <N_interactions>  (30) 
4

>  <∆∆G>  (30) 
-10.234705

>  <$/mg>  (30) 
0.0

>  <comRMSD>  (30) 
0.436935

>  <N_rotatable_bonds>  (30) 
5

>  <deep_P1_sidechain>  (30) 
nan

>  <farthest_distance_to_substrate>  (30) 
2.421649

>  <hbond:SER:7>  (30) 
hbond:SER:7    NaN
hbond:SER:7     -1
Name: 28, dtype: object

>  <halogenbond:SER:7>  (30) 
halogenbond:SER:7    NaN
halogenbond:SER:7     -1
Name: 28, dtype: object

>  <hbond:GLY:8>  (30) 
hbond:GLY:8    NaN
hbond:GLY:8     -1
Name: 28, dtype: object

>  <hydroph_interaction:VAL:18>  (30) 
hydroph_interaction:VAL:18    NaN
hydroph_interaction:VAL:18     -1
Name: 28, dtype: object

>  <hbond:ASN:19>  (30) 
hbond:ASN:19    NaN
hbond:ASN:19     -1
Name: 28, dtype: object

>  <hydroph_interaction:ASN:19>  (30) 
hydroph_interaction:ASN:19    NaN
hydroph_interaction:ASN:19     -1
Name: 28, dtype: object

>  <halogenbond:ASN:19>  (30) 
halogenbond:ASN:19    NaN
halogenbond:ASN:19     -1
Name: 28, dtype: object

>  <hbond:ARG:20>  (30) 
hbond:ARG:20    NaN
hbond:ARG:20     -1
Name: 28, dtype: object

>  <hydroph_interaction:ARG:20>  (30) 
hydroph_interaction:ARG:20    NaN
hydroph_interaction:ARG:20     -1
Name: 28, dtype: object

>  <saltbridge:ARG:20>  (30) 
saltbridge:ARG:20    NaN
saltbridge:ARG:20     -1
Name: 28, dtype: object

>  <halogenbond:ARG:20>  (30) 
halogenbond:ARG:20    NaN
halogenbond:ARG:20     -1
Name: 28, dtype: object

>  <pication:ARG:20>  (30) 
pication:ARG:20    NaN
pication:ARG:20     -1
Name: 28, dtype: object

>  <hbond:HIS:21>  (30) 
hbond:HIS:21    NaN
hbond:HIS:21     -1
Name: 28, dtype: object

>  <hydroph_interaction:HIS:21>  (30) 
hydroph_interaction:HIS:21    NaN
hydroph_interaction:HIS:21     -1
Name: 28, dtype: object

>  <pistack:HIS:21>  (30) 
pistack:HIS:21    NaN
pistack:HIS:21     -1
Name: 28, dtype: object

>  <pication:HIS:21>  (30) 
pication:HIS:21    NaN
pication:HIS:21     -1
Name: 28, dtype: object

>  <saltbridge:HIS:21>  (30) 
saltbridge:HIS:21    0.0
saltbridge:HIS:21      0
Name: 28, dtype: object

>  <halogenbond:HIS:21>  (30) 
halogenbond:HIS:21    NaN
halogenbond:HIS:21     -1
Name: 28, dtype: object

>  <hydroph_interaction:LEU:22>  (30) 
hydroph_interaction:LEU:22    NaN
hydroph_interaction:LEU:22     -1
Name: 28, dtype: object

>  <hbond:LEU:22>  (30) 
hbond:LEU:22    NaN
hbond:LEU:22     -1
Name: 28, dtype: object

>  <hydroph_interaction:TRP:28>  (30) 
hydroph_interaction:TRP:28    NaN
hydroph_interaction:TRP:28     -1
Name: 28, dtype: object

>  <hbond:SER:36>  (30) 
hbond:SER:36    NaN
hbond:SER:36     -1
Name: 28, dtype: object

>  <halogenbond:SER:36>  (30) 
halogenbond:SER:36    NaN
halogenbond:SER:36     -1
Name: 28, dtype: object

>  <hbond:SER:37>  (30) 
hbond:SER:37    NaN
hbond:SER:37     -1
Name: 28, dtype: object

>  <hbond:ARG:38>  (30) 
hbond:ARG:38    NaN
hbond:ARG:38     -1
Name: 28, dtype: object

>  <halogenbond:ARG:38>  (30) 
halogenbond:ARG:38    NaN
halogenbond:ARG:38     -1
Name: 28, dtype: object

>  <saltbridge:ASP:39>  (30) 
saltbridge:ASP:39    NaN
saltbridge:ASP:39     -1
Name: 28, dtype: object

>  <halogenbond:ASP:39>  (30) 
halogenbond:ASP:39    NaN
halogenbond:ASP:39     -1
Name: 28, dtype: object

>  <hbond:ASP:39>  (30) 
hbond:ASP:39    NaN
hbond:ASP:39     -1
Name: 28, dtype: object

>  <hydroph_interaction:ASP:39>  (30) 
hydroph_interaction:ASP:39    NaN
hydroph_interaction:ASP:39     -1
Name: 28, dtype: object

>  <hydroph_interaction:LEU:40>  (30) 
hydroph_interaction:LEU:40    NaN
hydroph_interaction:LEU:40     -1
Name: 28, dtype: object

>  <hydroph_interaction:TYR:63>  (30) 
hydroph_interaction:TYR:63    0.0
hydroph_interaction:TYR:63      0
Name: 28, dtype: object

>  <hbond:TYR:63>  (30) 
hbond:TYR:63    NaN
hbond:TYR:63     -1
Name: 28, dtype: object

>  <pistack:TYR:63>  (30) 
pistack:TYR:63    NaN
pistack:TYR:63     -1
Name: 28, dtype: object

>  <pication:TYR:63>  (30) 
pication:TYR:63    NaN
pication:TYR:63     -1
Name: 28, dtype: object

>  <halogenbond:TYR:64>  (30) 
halogenbond:TYR:64    NaN
halogenbond:TYR:64     -1
Name: 28, dtype: object

>  <hbond:TYR:64>  (30) 
hbond:TYR:64    NaN
hbond:TYR:64     -1
Name: 28, dtype: object

>  <hydroph_interaction:TYR:64>  (30) 
hydroph_interaction:TYR:64    NaN
hydroph_interaction:TYR:64     -1
Name: 28, dtype: object

>  <halogenbond:CYS:65>  (30) 
halogenbond:CYS:65    NaN
halogenbond:CYS:65     -1
Name: 28, dtype: object

>  <hbond:CYS:65>  (30) 
hbond:CYS:65    NaN
hbond:CYS:65     -1
Name: 28, dtype: object

>  <hbond:SER:66>  (30) 
hbond:SER:66    NaN
hbond:SER:66     -1
Name: 28, dtype: object

>  <halogenbond:SER:66>  (30) 
halogenbond:SER:66    NaN
halogenbond:SER:66     -1
Name: 28, dtype: object

>  <hbond:SER:67>  (30) 
hbond:SER:67    NaN
hbond:SER:67     -1
Name: 28, dtype: object

>  <halogenbond:SER:67>  (30) 
halogenbond:SER:67    NaN
halogenbond:SER:67     -1
Name: 28, dtype: object

>  <hbond:ARG:68>  (30) 
hbond:ARG:68    NaN
hbond:ARG:68     -1
Name: 28, dtype: object

>  <saltbridge:ARG:68>  (30) 
saltbridge:ARG:68    NaN
saltbridge:ARG:68     -1
Name: 28, dtype: object

>  <hydroph_interaction:ARG:68>  (30) 
hydroph_interaction:ARG:68    NaN
hydroph_interaction:ARG:68     -1
Name: 28, dtype: object

>  <pication:ARG:68>  (30) 
pication:ARG:68    NaN
pication:ARG:68     -1
Name: 28, dtype: object

>  <hydroph_interaction:TYR:72>  (30) 
hydroph_interaction:TYR:72    NaN
hydroph_interaction:TYR:72     -1
Name: 28, dtype: object

>  <hydroph_interaction:VAL:74>  (30) 
hydroph_interaction:VAL:74    0.0
hydroph_interaction:VAL:74      0
Name: 28, dtype: object

>  <hydroph_interaction:PHE:76>  (30) 
hydroph_interaction:PHE:76    NaN
hydroph_interaction:PHE:76     -1
Name: 28, dtype: object

>  <hbond:SER:77>  (30) 
hbond:SER:77    0.0
hbond:SER:77      0
Name: 28, dtype: object

>  <hbond:SER:80>  (30) 
hbond:SER:80    NaN
hbond:SER:80     -1
Name: 28, dtype: object

>  <hbond:LEU:81>  (30) 
hbond:LEU:81    NaN
hbond:LEU:81     -1
Name: 28, dtype: object

>  <halogenbond:LEU:81>  (30) 
halogenbond:LEU:81    NaN
halogenbond:LEU:81     -1
Name: 28, dtype: object

>  <hydroph_interaction:LEU:81>  (30) 
hydroph_interaction:LEU:81    0.0
hydroph_interaction:LEU:81      0
Name: 28, dtype: object

>  <hydroph_interaction:ILE:82>  (30) 
hydroph_interaction:ILE:82    0.0
hydroph_interaction:ILE:82      0
Name: 28, dtype: object

>  <halogenbond:ILE:82>  (30) 
halogenbond:ILE:82    NaN
halogenbond:ILE:82     -1
Name: 28, dtype: object

>  <hbond:ILE:82>  (30) 
hbond:ILE:82    0.0
hbond:ILE:82      0
Name: 28, dtype: object

>  <hbond:PHE:83>  (30) 
hbond:PHE:83    0.0
hbond:PHE:83      0
Name: 28, dtype: object

>  <hydroph_interaction:PHE:83>  (30) 
hydroph_interaction:PHE:83    0.0
hydroph_interaction:PHE:83      0
Name: 28, dtype: object

>  <halogenbond:PHE:83>  (30) 
halogenbond:PHE:83    0.0
halogenbond:PHE:83      0
Name: 28, dtype: object

>  <pistack:PHE:83>  (30) 
pistack:PHE:83    NaN
pistack:PHE:83     -1
Name: 28, dtype: object

>  <pication:PHE:83>  (30) 
pication:PHE:83    NaN
pication:PHE:83     -1
Name: 28, dtype: object

>  <hydroph_interaction:VAL:84>  (30) 
hydroph_interaction:VAL:84    0.0
hydroph_interaction:VAL:84      0
Name: 28, dtype: object

>  <halogenbond:VAL:84>  (30) 
halogenbond:VAL:84    NaN
halogenbond:VAL:84     -1
Name: 28, dtype: object

>  <hbond:VAL:84>  (30) 
hbond:VAL:84    NaN
hbond:VAL:84     -1
Name: 28, dtype: object

>  <hydroph_interaction:GLU:85>  (30) 
hydroph_interaction:GLU:85    0.0
hydroph_interaction:GLU:85      0
Name: 28, dtype: object

>  <hbond:GLU:85>  (30) 
hbond:GLU:85    0.0
hbond:GLU:85      0
Name: 28, dtype: object

>  <halogenbond:GLU:85>  (30) 
halogenbond:GLU:85    NaN
halogenbond:GLU:85     -1
Name: 28, dtype: object

>  <saltbridge:GLU:85>  (30) 
saltbridge:GLU:85    0.0
saltbridge:GLU:85      0
Name: 28, dtype: object

>  <halogenbond:ALA:86>  (30) 
halogenbond:ALA:86    NaN
halogenbond:ALA:86     -1
Name: 28, dtype: object

>  <hbond:ALA:86>  (30) 
hbond:ALA:86    0.0
hbond:ALA:86      0
Name: 28, dtype: object

>  <hydroph_interaction:ALA:86>  (30) 
hydroph_interaction:ALA:86    NaN
hydroph_interaction:ALA:86     -1
Name: 28, dtype: object

>  <hbond:SER:87>  (30) 
hbond:SER:87    0
hbond:SER:87    0
Name: 28, dtype: object

>  <halogenbond:SER:87>  (30) 
halogenbond:SER:87    NaN
halogenbond:SER:87     -1
Name: 28, dtype: object

>  <hbond:GLU:88>  (30) 
hbond:GLU:88    0.0
hbond:GLU:88      0
Name: 28, dtype: object

>  <hydroph_interaction:GLU:88>  (30) 
hydroph_interaction:GLU:88    0.0
hydroph_interaction:GLU:88      0
Name: 28, dtype: object

>  <halogenbond:GLU:88>  (30) 
halogenbond:GLU:88    NaN
halogenbond:GLU:88     -1
Name: 28, dtype: object

>  <saltbridge:GLU:88>  (30) 
saltbridge:GLU:88    NaN
saltbridge:GLU:88     -1
Name: 28, dtype: object

>  <hydroph_interaction:TYR:89>  (30) 
hydroph_interaction:TYR:89    1.0
hydroph_interaction:TYR:89      1
Name: 28, dtype: object

>  <pistack:TYR:89>  (30) 
pistack:TYR:89    NaN
pistack:TYR:89     -1
Name: 28, dtype: object

>  <hbond:TYR:89>  (30) 
hbond:TYR:89    NaN
hbond:TYR:89     -1
Name: 28, dtype: object

>  <halogenbond:TYR:89>  (30) 
halogenbond:TYR:89    NaN
halogenbond:TYR:89     -1
Name: 28, dtype: object

>  <hydroph_interaction:TYR:90>  (30) 
hydroph_interaction:TYR:90    1.0
hydroph_interaction:TYR:90      1
Name: 28, dtype: object

>  <hbond:TYR:90>  (30) 
hbond:TYR:90    NaN
hbond:TYR:90     -1
Name: 28, dtype: object

>  <pistack:TYR:90>  (30) 
pistack:TYR:90    NaN
pistack:TYR:90     -1
Name: 28, dtype: object

>  <halogenbond:TYR:90>  (30) 
halogenbond:TYR:90    NaN
halogenbond:TYR:90     -1
Name: 28, dtype: object

>  <pication:TYR:90>  (30) 
pication:TYR:90    NaN
pication:TYR:90     -1
Name: 28, dtype: object

>  <hbond:PRO:91>  (30) 
hbond:PRO:91    NaN
hbond:PRO:91     -1
Name: 28, dtype: object

>  <hydroph_interaction:PRO:91>  (30) 
hydroph_interaction:PRO:91    NaN
hydroph_interaction:PRO:91     -1
Name: 28, dtype: object

>  <halogenbond:PRO:91>  (30) 
halogenbond:PRO:91    NaN
halogenbond:PRO:91     -1
Name: 28, dtype: object

>  <hbond:ALA:92>  (30) 
hbond:ALA:92    NaN
hbond:ALA:92     -1
Name: 28, dtype: object

>  <hydroph_interaction:ALA:92>  (30) 
hydroph_interaction:ALA:92    NaN
hydroph_interaction:ALA:92     -1
Name: 28, dtype: object

>  <saltbridge:ARG:93>  (30) 
saltbridge:ARG:93    NaN
saltbridge:ARG:93     -1
Name: 28, dtype: object

>  <hbond:ARG:93>  (30) 
hbond:ARG:93    NaN
hbond:ARG:93     -1
Name: 28, dtype: object

>  <hydroph_interaction:ARG:93>  (30) 
hydroph_interaction:ARG:93    NaN
hydroph_interaction:ARG:93     -1
Name: 28, dtype: object

>  <halogenbond:ARG:93>  (30) 
halogenbond:ARG:93    NaN
halogenbond:ARG:93     -1
Name: 28, dtype: object

>  <pication:ARG:93>  (30) 
pication:ARG:93    NaN
pication:ARG:93     -1
Name: 28, dtype: object

>  <hydroph_interaction:TYR:94>  (30) 
hydroph_interaction:TYR:94    0.0
hydroph_interaction:TYR:94      0
Name: 28, dtype: object

>  <pistack:TYR:94>  (30) 
pistack:TYR:94    NaN
pistack:TYR:94     -1
Name: 28, dtype: object

>  <hbond:TYR:94>  (30) 
hbond:TYR:94    NaN
hbond:TYR:94     -1
Name: 28, dtype: object

>  <hbond:GLN:95>  (30) 
hbond:GLN:95    0.0
hbond:GLN:95      0
Name: 28, dtype: object

>  <hydroph_interaction:GLN:95>  (30) 
hydroph_interaction:GLN:95    0.0
hydroph_interaction:GLN:95      0
Name: 28, dtype: object

>  <halogenbond:GLN:95>  (30) 
halogenbond:GLN:95    NaN
halogenbond:GLN:95     -1
Name: 28, dtype: object

>  <hbond:SER:96>  (30) 
hbond:SER:96    NaN
hbond:SER:96     -1
Name: 28, dtype: object

>  <halogenbond:HIS:97>  (30) 
halogenbond:HIS:97    NaN
halogenbond:HIS:97     -1
Name: 28, dtype: object

>  <hydroph_interaction:LEU:98>  (30) 
hydroph_interaction:LEU:98    0.0
hydroph_interaction:LEU:98      0
Name: 28, dtype: object

>  <hbond:LEU:98>  (30) 
hbond:LEU:98    0.0
hbond:LEU:98      0
Name: 28, dtype: object

>  <halogenbond:LEU:98>  (30) 
halogenbond:LEU:98    NaN
halogenbond:LEU:98     -1
Name: 28, dtype: object

>  <hbond:MET:99>  (30) 
hbond:MET:99    0.0
hbond:MET:99      0
Name: 28, dtype: object

>  <hydroph_interaction:MET:99>  (30) 
hydroph_interaction:MET:99    NaN
hydroph_interaction:MET:99     -1
Name: 28, dtype: object

>  <halogenbond:MET:99>  (30) 
halogenbond:MET:99    NaN
halogenbond:MET:99     -1
Name: 28, dtype: object

>  <hydroph_interaction:LEU:100>  (30) 
hydroph_interaction:LEU:100    0.0
hydroph_interaction:LEU:100      0
Name: 28, dtype: object

>  <hbond:LEU:100>  (30) 
hbond:LEU:100    NaN
hbond:LEU:100     -1
Name: 28, dtype: object

>  <hbond:ALA:101>  (30) 
hbond:ALA:101    0.0
hbond:ALA:101      0
Name: 28, dtype: object

>  <hydroph_interaction:ALA:101>  (30) 
hydroph_interaction:ALA:101    0.0
hydroph_interaction:ALA:101      0
Name: 28, dtype: object

>  <hydroph_interaction:VAL:102>  (30) 
hydroph_interaction:VAL:102    NaN
hydroph_interaction:VAL:102     -1
Name: 28, dtype: object

>  <hbond:VAL:102>  (30) 
hbond:VAL:102    NaN
hbond:VAL:102     -1
Name: 28, dtype: object

>  <hbond:GLY:103>  (30) 
hbond:GLY:103    NaN
hbond:GLY:103     -1
Name: 28, dtype: object

>  <halogenbond:GLY:103>  (30) 
halogenbond:GLY:103    NaN
halogenbond:GLY:103     -1
Name: 28, dtype: object

>  <hbond:HIS:104>  (30) 
hbond:HIS:104    NaN
hbond:HIS:104     -1
Name: 28, dtype: object

>  <saltbridge:HIS:104>  (30) 
saltbridge:HIS:104    NaN
saltbridge:HIS:104     -1
Name: 28, dtype: object

>  <pication:HIS:104>  (30) 
pication:HIS:104    NaN
pication:HIS:104     -1
Name: 28, dtype: object

>  <halogenbond:HIS:104>  (30) 
halogenbond:HIS:104    NaN
halogenbond:HIS:104     -1
Name: 28, dtype: object

>  <hydroph_interaction:HIS:104>  (30) 
hydroph_interaction:HIS:104    NaN
hydroph_interaction:HIS:104     -1
Name: 28, dtype: object

>  <pistack:HIS:104>  (30) 
pistack:HIS:104    NaN
pistack:HIS:104     -1
Name: 28, dtype: object

>  <halogenbond:SER:105>  (30) 
halogenbond:SER:105    NaN
halogenbond:SER:105     -1
Name: 28, dtype: object

>  <hbond:SER:105>  (30) 
hbond:SER:105    0.0
hbond:SER:105      0
Name: 28, dtype: object

>  <hbond:GLU:106>  (30) 
hbond:GLU:106    0.0
hbond:GLU:106      0
Name: 28, dtype: object

>  <hydroph_interaction:GLU:106>  (30) 
hydroph_interaction:GLU:106    NaN
hydroph_interaction:GLU:106     -1
Name: 28, dtype: object

>  <saltbridge:GLU:106>  (30) 
saltbridge:GLU:106    NaN
saltbridge:GLU:106     -1
Name: 28, dtype: object

>  <halogenbond:GLU:106>  (30) 
halogenbond:GLU:106    NaN
halogenbond:GLU:106     -1
Name: 28, dtype: object

>  <hydroph_interaction:PRO:107>  (30) 
hydroph_interaction:PRO:107    1
hydroph_interaction:PRO:107    1
Name: 28, dtype: object

>  <hbond:PRO:107>  (30) 
hbond:PRO:107    NaN
hbond:PRO:107     -1
Name: 28, dtype: object

>  <halogenbond:PRO:107>  (30) 
halogenbond:PRO:107    NaN
halogenbond:PRO:107     -1
Name: 28, dtype: object

>  <hbond:GLY:108>  (30) 
hbond:GLY:108    NaN
hbond:GLY:108     -1
Name: 28, dtype: object

>  <halogenbond:GLY:108>  (30) 
halogenbond:GLY:108    NaN
halogenbond:GLY:108     -1
Name: 28, dtype: object

>  <hbond:ASP:109>  (30) 
hbond:ASP:109    NaN
hbond:ASP:109     -1
Name: 28, dtype: object

>  <hydroph_interaction:ASP:109>  (30) 
hydroph_interaction:ASP:109    NaN
hydroph_interaction:ASP:109     -1
Name: 28, dtype: object

>  <saltbridge:ASP:109>  (30) 
saltbridge:ASP:109    NaN
saltbridge:ASP:109     -1
Name: 28, dtype: object

>  <halogenbond:CYS:110>  (30) 
halogenbond:CYS:110    NaN
halogenbond:CYS:110     -1
Name: 28, dtype: object

>  <hbond:CYS:110>  (30) 
hbond:CYS:110    NaN
hbond:CYS:110     -1
Name: 28, dtype: object

>  <hbond:GLY:111>  (30) 
hbond:GLY:111    NaN
hbond:GLY:111     -1
Name: 28, dtype: object

>  <hbond:GLY:112>  (30) 
hbond:GLY:112    NaN
hbond:GLY:112     -1
Name: 28, dtype: object

>  <hbond:ILE:113>  (30) 
hbond:ILE:113    NaN
hbond:ILE:113     -1
Name: 28, dtype: object

>  <hydroph_interaction:LEU:114>  (30) 
hydroph_interaction:LEU:114    NaN
hydroph_interaction:LEU:114     -1
Name: 28, dtype: object

>  <hbond:LEU:114>  (30) 
hbond:LEU:114    NaN
hbond:LEU:114     -1
Name: 28, dtype: object

>  <hydroph_interaction:ILE:123>  (30) 
hydroph_interaction:ILE:123    NaN
hydroph_interaction:ILE:123     -1
Name: 28, dtype: object

>  <hbond:ILE:123>  (30) 
hbond:ILE:123    0.0
hbond:ILE:123      0
Name: 28, dtype: object

>  <hydroph_interaction:VAL:124>  (30) 
hydroph_interaction:VAL:124    1.0
hydroph_interaction:VAL:124      1
Name: 28, dtype: object

>  <hbond:VAL:124>  (30) 
hbond:VAL:124    NaN
hbond:VAL:124     -1
Name: 28, dtype: object

>  <halogenbond:VAL:124>  (30) 
halogenbond:VAL:124    NaN
halogenbond:VAL:124     -1
Name: 28, dtype: object

>  <hbond:SER:125>  (30) 
hbond:SER:125    0
hbond:SER:125    0
Name: 28, dtype: object

>  <halogenbond:SER:125>  (30) 
halogenbond:SER:125    NaN
halogenbond:SER:125     -1
Name: 28, dtype: object

>  <hydroph_interaction:THR:126>  (30) 
hydroph_interaction:THR:126    0.0
hydroph_interaction:THR:126      0
Name: 28, dtype: object

>  <hbond:THR:126>  (30) 
hbond:THR:126    0.0
hbond:THR:126      0
Name: 28, dtype: object

>  <halogenbond:THR:126>  (30) 
halogenbond:THR:126    0.0
halogenbond:THR:126      0
Name: 28, dtype: object

>  <hbond:GLY:127>  (30) 
hbond:GLY:127    0
hbond:GLY:127    0
Name: 28, dtype: object

>  <halogenbond:GLY:127>  (30) 
halogenbond:GLY:127    0.0
halogenbond:GLY:127      0
Name: 28, dtype: object

>  <hydroph_interaction:GLY:127>  (30) 
hydroph_interaction:GLY:127    NaN
hydroph_interaction:GLY:127     -1
Name: 28, dtype: object

>  <hbond:GLY:128>  (30) 
hbond:GLY:128    0.0
hbond:GLY:128      0
Name: 28, dtype: object

>  <halogenbond:GLY:128>  (30) 
halogenbond:GLY:128    0.0
halogenbond:GLY:128      0
Name: 28, dtype: object

>  <hydroph_interaction:GLY:128>  (30) 
hydroph_interaction:GLY:128    NaN
hydroph_interaction:GLY:128     -1
Name: 28, dtype: object

>  <hbond:ASN:129>  (30) 
hbond:ASN:129    0.0
hbond:ASN:129      0
Name: 28, dtype: object

>  <hydroph_interaction:ASN:129>  (30) 
hydroph_interaction:ASN:129    0.0
hydroph_interaction:ASN:129      0
Name: 28, dtype: object

>  <halogenbond:ASN:129>  (30) 
halogenbond:ASN:129    0.0
halogenbond:ASN:129      0
Name: 28, dtype: object

>  <hbond:GLY:130>  (30) 
hbond:GLY:130    0.0
hbond:GLY:130      0
Name: 28, dtype: object

>  <hbond:LEU:131>  (30) 
hbond:LEU:131    0.0
hbond:LEU:131      0
Name: 28, dtype: object

>  <hydroph_interaction:LEU:131>  (30) 
hydroph_interaction:LEU:131    0.0
hydroph_interaction:LEU:131      0
Name: 28, dtype: object

>  <halogenbond:LEU:131>  (30) 
halogenbond:LEU:131    0.0
halogenbond:LEU:131      0
Name: 28, dtype: object

>  <hydroph_interaction:VAL:132>  (30) 
hydroph_interaction:VAL:132    0.0
hydroph_interaction:VAL:132      0
Name: 28, dtype: object

>  <hbond:VAL:132>  (30) 
hbond:VAL:132    0.0
hbond:VAL:132      0
Name: 28, dtype: object

>  <hbond:GLY:133>  (30) 
hbond:GLY:133    0.0
hbond:GLY:133      0
Name: 28, dtype: object

>  <halogenbond:GLY:133>  (30) 
halogenbond:GLY:133    NaN
halogenbond:GLY:133     -1
Name: 28, dtype: object

>  <hydroph_interaction:PHE:134>  (30) 
hydroph_interaction:PHE:134    0.0
hydroph_interaction:PHE:134      0
Name: 28, dtype: object

>  <hbond:PHE:134>  (30) 
hbond:PHE:134    NaN
hbond:PHE:134     -1
Name: 28, dtype: object

>  <pistack:PHE:134>  (30) 
pistack:PHE:134    NaN
pistack:PHE:134     -1
Name: 28, dtype: object

>  <pication:PHE:134>  (30) 
pication:PHE:134    NaN
pication:PHE:134     -1
Name: 28, dtype: object

>  <halogenbond:PHE:134>  (30) 
halogenbond:PHE:134    NaN
halogenbond:PHE:134     -1
Name: 28, dtype: object

>  <hydroph_interaction:ALA:135>  (30) 
hydroph_interaction:ALA:135    0.0
hydroph_interaction:ALA:135      0
Name: 28, dtype: object

>  <hbond:ALA:135>  (30) 
hbond:ALA:135    NaN
hbond:ALA:135     -1
Name: 28, dtype: object

$$$$
PV_003025330674
     RDKit          3D

 13 14  0  0  0  0  0  0  0  0999 V2000
   29.0868   15.1421    8.8326 C   0  0  0  0  0  0  0  0  0  0  0  0
   29.8177   13.8397    8.7703 C   0  0  0  0  0  0  0  0  0  0  0  0
   30.0160   12.9902    7.5382 C   0  0  0  0  0  0  0  0  0  0  0  0
   29.4786   13.4081    6.2050 C   0  0  0  0  0  0  0  0  0  0  0  0
   30.6948   11.7161    7.4859 C   0  0  0  0  0  0  0  0  0  0  0  0
   30.3264   10.6710    8.2426 N   0  0  0  0  0  0  0  0  0  0  0  0
   31.1597    9.6695    7.8893 N   0  0  0  0  0  0  0  0  0  0  0  0
   32.0582   10.0243    6.9356 C   0  0  0  0  0  0  0  0  0  0  0  0
   33.0756    9.3363    6.2813 C   0  0  0  0  0  0  0  0  0  0  0  0
   33.8609    9.9947    5.3265 C   0  0  0  0  0  0  0  0  0  0  0  0
   33.6108   11.3449    5.0366 C   0  0  0  0  0  0  0  0  0  0  0  0
   32.5862   12.0262    5.6913 C   0  0  0  0  0  0  0  0  0  0  0  0
   31.8012   11.3751    6.6426 C   0  0  0  0  0  0  0  0  0  0  0  0
  1  2  1  0
  2  3  2  3
  3  4  1  0
  3  5  1  0
  5  6  2  0
  6  7  1  0
  7  8  1  0
  8  9  2  0
  9 10  1  0
 10 11  2  0
 11 12  1  0
 12 13  2  0
 13  5  1  0
 13  8  1  0
A    1
 C1 
A    2
 C2 
A    3
 C3 
A    4
 C4 
A    5
 C5 
A    6
 N1 
A    7
 N2 
A    8
 C6 
A    9
 C7 
A   10
 C8 
A   11
 C9 
A   12
 C10
A   13
 C11
M  END
>  <ref_pdb>  (31) 
Ax0310a

>  <ref_mols>  (31) 
Ax0451a,Ax0528a

>  <original SMILES>  (31) 
CC=C(C)c1n[nH]c2ccccc12

>  <rationale>  (31) 
info halogenbond:C110+G127+D39+A86+S125+E85+Q95+E106+E88+T126+P107+H104+Y64+C65+S87+N129+F83+R93+L131+I82+G128+P91+N19+H21+V84+G133+Y90+Y89+H97+L81+F134+L98+R20+G103+S66+S67+S7+G108+R38+V124+M99+S36; hbond:Q95+A86+E85+G108+G103+G128+G130+L131+N129+N19+H104+R68+V124+R93+P91+F83+S67+S7+S66+G112+G133+V132+R20+Y89+S77+A135+Y63+A92+A101+M99+F134+L100+I82+Y64+S36+L98+V84+L81+Y94+S80+R38+S37+V102+G8+I123+G111+I113+L114+C65+L22+S96; hydroph_interaction:Y90+T126+P107+E85+E88+D109+N129+D39+L40+I123+A135+Q95+I82+L100+L98+L131+F83+R93+Y63+F134+H104+R20+A86+V74+P91+A101+F76+M99+L114+A92+Y94+R68+Y72+Y64+V18+V102+W28+G127+G128+L81; pication:H104+R93+Y63+F134+Y90+R68+F83+R20; pistack:H21+Y90+H104+F134+Y63+F83+Y94; saltbridge:D39+R93+H104+E106+D109+E85+E88+R68+R20; 

>  <intxn_cluster>  (31) 
-1

>  <intxn_cluster_rank>  (31) 
-1

>  <N_interactions>  (31) 
3

>  <∆∆G>  (31) 
-7.256255

>  <$/mg>  (31) 
163.0

>  <comRMSD>  (31) 
0.834755

>  <N_rotatable_bonds>  (31) 
3

>  <deep_P1_sidechain>  (31) 
nan

>  <farthest_distance_to_substrate>  (31) 
2.597698

>  <hbond:SER:7>  (31) 
hbond:SER:7    NaN
hbond:SER:7     -1
Name: 29, dtype: object

>  <halogenbond:SER:7>  (31) 
halogenbond:SER:7    NaN
halogenbond:SER:7     -1
Name: 29, dtype: object

>  <hbond:GLY:8>  (31) 
hbond:GLY:8    NaN
hbond:GLY:8     -1
Name: 29, dtype: object

>  <hydroph_interaction:VAL:18>  (31) 
hydroph_interaction:VAL:18    NaN
hydroph_interaction:VAL:18     -1
Name: 29, dtype: object

>  <hbond:ASN:19>  (31) 
hbond:ASN:19    NaN
hbond:ASN:19     -1
Name: 29, dtype: object

>  <hydroph_interaction:ASN:19>  (31) 
hydroph_interaction:ASN:19    0.0
hydroph_interaction:ASN:19      0
Name: 29, dtype: object

>  <halogenbond:ASN:19>  (31) 
halogenbond:ASN:19    NaN
halogenbond:ASN:19     -1
Name: 29, dtype: object

>  <hbond:ARG:20>  (31) 
hbond:ARG:20    NaN
hbond:ARG:20     -1
Name: 29, dtype: object

>  <hydroph_interaction:ARG:20>  (31) 
hydroph_interaction:ARG:20    NaN
hydroph_interaction:ARG:20     -1
Name: 29, dtype: object

>  <saltbridge:ARG:20>  (31) 
saltbridge:ARG:20    NaN
saltbridge:ARG:20     -1
Name: 29, dtype: object

>  <halogenbond:ARG:20>  (31) 
halogenbond:ARG:20    NaN
halogenbond:ARG:20     -1
Name: 29, dtype: object

>  <pication:ARG:20>  (31) 
pication:ARG:20    NaN
pication:ARG:20     -1
Name: 29, dtype: object

>  <hbond:HIS:21>  (31) 
hbond:HIS:21    0.0
hbond:HIS:21      0
Name: 29, dtype: object

>  <hydroph_interaction:HIS:21>  (31) 
hydroph_interaction:HIS:21    0.0
hydroph_interaction:HIS:21      0
Name: 29, dtype: object

>  <pistack:HIS:21>  (31) 
pistack:HIS:21    NaN
pistack:HIS:21     -1
Name: 29, dtype: object

>  <pication:HIS:21>  (31) 
pication:HIS:21    0.0
pication:HIS:21      0
Name: 29, dtype: object

>  <saltbridge:HIS:21>  (31) 
saltbridge:HIS:21    0.0
saltbridge:HIS:21      0
Name: 29, dtype: object

>  <halogenbond:HIS:21>  (31) 
halogenbond:HIS:21    NaN
halogenbond:HIS:21     -1
Name: 29, dtype: object

>  <hydroph_interaction:LEU:22>  (31) 
hydroph_interaction:LEU:22    0.0
hydroph_interaction:LEU:22      0
Name: 29, dtype: object

>  <hbond:LEU:22>  (31) 
hbond:LEU:22    NaN
hbond:LEU:22     -1
Name: 29, dtype: object

>  <hydroph_interaction:TRP:28>  (31) 
hydroph_interaction:TRP:28    NaN
hydroph_interaction:TRP:28     -1
Name: 29, dtype: object

>  <hbond:SER:36>  (31) 
hbond:SER:36    NaN
hbond:SER:36     -1
Name: 29, dtype: object

>  <halogenbond:SER:36>  (31) 
halogenbond:SER:36    NaN
halogenbond:SER:36     -1
Name: 29, dtype: object

>  <hbond:SER:37>  (31) 
hbond:SER:37    NaN
hbond:SER:37     -1
Name: 29, dtype: object

>  <hbond:ARG:38>  (31) 
hbond:ARG:38    NaN
hbond:ARG:38     -1
Name: 29, dtype: object

>  <halogenbond:ARG:38>  (31) 
halogenbond:ARG:38    NaN
halogenbond:ARG:38     -1
Name: 29, dtype: object

>  <saltbridge:ASP:39>  (31) 
saltbridge:ASP:39    NaN
saltbridge:ASP:39     -1
Name: 29, dtype: object

>  <halogenbond:ASP:39>  (31) 
halogenbond:ASP:39    NaN
halogenbond:ASP:39     -1
Name: 29, dtype: object

>  <hbond:ASP:39>  (31) 
hbond:ASP:39    0.0
hbond:ASP:39      0
Name: 29, dtype: object

>  <hydroph_interaction:ASP:39>  (31) 
hydroph_interaction:ASP:39    NaN
hydroph_interaction:ASP:39     -1
Name: 29, dtype: object

>  <hydroph_interaction:LEU:40>  (31) 
hydroph_interaction:LEU:40    NaN
hydroph_interaction:LEU:40     -1
Name: 29, dtype: object

>  <hydroph_interaction:TYR:63>  (31) 
hydroph_interaction:TYR:63    NaN
hydroph_interaction:TYR:63     -1
Name: 29, dtype: object

>  <hbond:TYR:63>  (31) 
hbond:TYR:63    NaN
hbond:TYR:63     -1
Name: 29, dtype: object

>  <pistack:TYR:63>  (31) 
pistack:TYR:63    NaN
pistack:TYR:63     -1
Name: 29, dtype: object

>  <pication:TYR:63>  (31) 
pication:TYR:63    NaN
pication:TYR:63     -1
Name: 29, dtype: object

>  <halogenbond:TYR:64>  (31) 
halogenbond:TYR:64    NaN
halogenbond:TYR:64     -1
Name: 29, dtype: object

>  <hbond:TYR:64>  (31) 
hbond:TYR:64    NaN
hbond:TYR:64     -1
Name: 29, dtype: object

>  <hydroph_interaction:TYR:64>  (31) 
hydroph_interaction:TYR:64    NaN
hydroph_interaction:TYR:64     -1
Name: 29, dtype: object

>  <halogenbond:CYS:65>  (31) 
halogenbond:CYS:65    NaN
halogenbond:CYS:65     -1
Name: 29, dtype: object

>  <hbond:CYS:65>  (31) 
hbond:CYS:65    NaN
hbond:CYS:65     -1
Name: 29, dtype: object

>  <hbond:SER:66>  (31) 
hbond:SER:66    NaN
hbond:SER:66     -1
Name: 29, dtype: object

>  <halogenbond:SER:66>  (31) 
halogenbond:SER:66    NaN
halogenbond:SER:66     -1
Name: 29, dtype: object

>  <hbond:SER:67>  (31) 
hbond:SER:67    NaN
hbond:SER:67     -1
Name: 29, dtype: object

>  <halogenbond:SER:67>  (31) 
halogenbond:SER:67    NaN
halogenbond:SER:67     -1
Name: 29, dtype: object

>  <hbond:ARG:68>  (31) 
hbond:ARG:68    NaN
hbond:ARG:68     -1
Name: 29, dtype: object

>  <saltbridge:ARG:68>  (31) 
saltbridge:ARG:68    NaN
saltbridge:ARG:68     -1
Name: 29, dtype: object

>  <hydroph_interaction:ARG:68>  (31) 
hydroph_interaction:ARG:68    NaN
hydroph_interaction:ARG:68     -1
Name: 29, dtype: object

>  <pication:ARG:68>  (31) 
pication:ARG:68    NaN
pication:ARG:68     -1
Name: 29, dtype: object

>  <hydroph_interaction:TYR:72>  (31) 
hydroph_interaction:TYR:72    NaN
hydroph_interaction:TYR:72     -1
Name: 29, dtype: object

>  <hydroph_interaction:VAL:74>  (31) 
hydroph_interaction:VAL:74    NaN
hydroph_interaction:VAL:74     -1
Name: 29, dtype: object

>  <hydroph_interaction:PHE:76>  (31) 
hydroph_interaction:PHE:76    NaN
hydroph_interaction:PHE:76     -1
Name: 29, dtype: object

>  <hbond:SER:77>  (31) 
hbond:SER:77    NaN
hbond:SER:77     -1
Name: 29, dtype: object

>  <hbond:SER:80>  (31) 
hbond:SER:80    NaN
hbond:SER:80     -1
Name: 29, dtype: object

>  <hbond:LEU:81>  (31) 
hbond:LEU:81    NaN
hbond:LEU:81     -1
Name: 29, dtype: object

>  <halogenbond:LEU:81>  (31) 
halogenbond:LEU:81    NaN
halogenbond:LEU:81     -1
Name: 29, dtype: object

>  <hydroph_interaction:LEU:81>  (31) 
hydroph_interaction:LEU:81    NaN
hydroph_interaction:LEU:81     -1
Name: 29, dtype: object

>  <hydroph_interaction:ILE:82>  (31) 
hydroph_interaction:ILE:82    NaN
hydroph_interaction:ILE:82     -1
Name: 29, dtype: object

>  <halogenbond:ILE:82>  (31) 
halogenbond:ILE:82    NaN
halogenbond:ILE:82     -1
Name: 29, dtype: object

>  <hbond:ILE:82>  (31) 
hbond:ILE:82    NaN
hbond:ILE:82     -1
Name: 29, dtype: object

>  <hbond:PHE:83>  (31) 
hbond:PHE:83    NaN
hbond:PHE:83     -1
Name: 29, dtype: object

>  <hydroph_interaction:PHE:83>  (31) 
hydroph_interaction:PHE:83    NaN
hydroph_interaction:PHE:83     -1
Name: 29, dtype: object

>  <halogenbond:PHE:83>  (31) 
halogenbond:PHE:83    NaN
halogenbond:PHE:83     -1
Name: 29, dtype: object

>  <pistack:PHE:83>  (31) 
pistack:PHE:83    NaN
pistack:PHE:83     -1
Name: 29, dtype: object

>  <pication:PHE:83>  (31) 
pication:PHE:83    NaN
pication:PHE:83     -1
Name: 29, dtype: object

>  <hydroph_interaction:VAL:84>  (31) 
hydroph_interaction:VAL:84    0.0
hydroph_interaction:VAL:84      0
Name: 29, dtype: object

>  <halogenbond:VAL:84>  (31) 
halogenbond:VAL:84    NaN
halogenbond:VAL:84     -1
Name: 29, dtype: object

>  <hbond:VAL:84>  (31) 
hbond:VAL:84    NaN
hbond:VAL:84     -1
Name: 29, dtype: object

>  <hydroph_interaction:GLU:85>  (31) 
hydroph_interaction:GLU:85    NaN
hydroph_interaction:GLU:85     -1
Name: 29, dtype: object

>  <hbond:GLU:85>  (31) 
hbond:GLU:85    NaN
hbond:GLU:85     -1
Name: 29, dtype: object

>  <halogenbond:GLU:85>  (31) 
halogenbond:GLU:85    NaN
halogenbond:GLU:85     -1
Name: 29, dtype: object

>  <saltbridge:GLU:85>  (31) 
saltbridge:GLU:85    NaN
saltbridge:GLU:85     -1
Name: 29, dtype: object

>  <halogenbond:ALA:86>  (31) 
halogenbond:ALA:86    NaN
halogenbond:ALA:86     -1
Name: 29, dtype: object

>  <hbond:ALA:86>  (31) 
hbond:ALA:86    NaN
hbond:ALA:86     -1
Name: 29, dtype: object

>  <hydroph_interaction:ALA:86>  (31) 
hydroph_interaction:ALA:86    NaN
hydroph_interaction:ALA:86     -1
Name: 29, dtype: object

>  <hbond:SER:87>  (31) 
hbond:SER:87    0
hbond:SER:87    0
Name: 29, dtype: object

>  <halogenbond:SER:87>  (31) 
halogenbond:SER:87    NaN
halogenbond:SER:87     -1
Name: 29, dtype: object

>  <hbond:GLU:88>  (31) 
hbond:GLU:88    0.0
hbond:GLU:88      0
Name: 29, dtype: object

>  <hydroph_interaction:GLU:88>  (31) 
hydroph_interaction:GLU:88    NaN
hydroph_interaction:GLU:88     -1
Name: 29, dtype: object

>  <halogenbond:GLU:88>  (31) 
halogenbond:GLU:88    NaN
halogenbond:GLU:88     -1
Name: 29, dtype: object

>  <saltbridge:GLU:88>  (31) 
saltbridge:GLU:88    NaN
saltbridge:GLU:88     -1
Name: 29, dtype: object

>  <hydroph_interaction:TYR:89>  (31) 
hydroph_interaction:TYR:89    0.0
hydroph_interaction:TYR:89      0
Name: 29, dtype: object

>  <pistack:TYR:89>  (31) 
pistack:TYR:89    0.0
pistack:TYR:89      0
Name: 29, dtype: object

>  <hbond:TYR:89>  (31) 
hbond:TYR:89    NaN
hbond:TYR:89     -1
Name: 29, dtype: object

>  <halogenbond:TYR:89>  (31) 
halogenbond:TYR:89    NaN
halogenbond:TYR:89     -1
Name: 29, dtype: object

>  <hydroph_interaction:TYR:90>  (31) 
hydroph_interaction:TYR:90    1.0
hydroph_interaction:TYR:90      1
Name: 29, dtype: object

>  <hbond:TYR:90>  (31) 
hbond:TYR:90    0.0
hbond:TYR:90      0
Name: 29, dtype: object

>  <pistack:TYR:90>  (31) 
pistack:TYR:90    NaN
pistack:TYR:90     -1
Name: 29, dtype: object

>  <halogenbond:TYR:90>  (31) 
halogenbond:TYR:90    NaN
halogenbond:TYR:90     -1
Name: 29, dtype: object

>  <pication:TYR:90>  (31) 
pication:TYR:90    NaN
pication:TYR:90     -1
Name: 29, dtype: object

>  <hbond:PRO:91>  (31) 
hbond:PRO:91    NaN
hbond:PRO:91     -1
Name: 29, dtype: object

>  <hydroph_interaction:PRO:91>  (31) 
hydroph_interaction:PRO:91    NaN
hydroph_interaction:PRO:91     -1
Name: 29, dtype: object

>  <halogenbond:PRO:91>  (31) 
halogenbond:PRO:91    NaN
halogenbond:PRO:91     -1
Name: 29, dtype: object

>  <hbond:ALA:92>  (31) 
hbond:ALA:92    NaN
hbond:ALA:92     -1
Name: 29, dtype: object

>  <hydroph_interaction:ALA:92>  (31) 
hydroph_interaction:ALA:92    NaN
hydroph_interaction:ALA:92     -1
Name: 29, dtype: object

>  <saltbridge:ARG:93>  (31) 
saltbridge:ARG:93    NaN
saltbridge:ARG:93     -1
Name: 29, dtype: object

>  <hbond:ARG:93>  (31) 
hbond:ARG:93    NaN
hbond:ARG:93     -1
Name: 29, dtype: object

>  <hydroph_interaction:ARG:93>  (31) 
hydroph_interaction:ARG:93    NaN
hydroph_interaction:ARG:93     -1
Name: 29, dtype: object

>  <halogenbond:ARG:93>  (31) 
halogenbond:ARG:93    NaN
halogenbond:ARG:93     -1
Name: 29, dtype: object

>  <pication:ARG:93>  (31) 
pication:ARG:93    NaN
pication:ARG:93     -1
Name: 29, dtype: object

>  <hydroph_interaction:TYR:94>  (31) 
hydroph_interaction:TYR:94    NaN
hydroph_interaction:TYR:94     -1
Name: 29, dtype: object

>  <pistack:TYR:94>  (31) 
pistack:TYR:94    NaN
pistack:TYR:94     -1
Name: 29, dtype: object

>  <hbond:TYR:94>  (31) 
hbond:TYR:94    NaN
hbond:TYR:94     -1
Name: 29, dtype: object

>  <hbond:GLN:95>  (31) 
hbond:GLN:95    NaN
hbond:GLN:95     -1
Name: 29, dtype: object

>  <hydroph_interaction:GLN:95>  (31) 
hydroph_interaction:GLN:95    NaN
hydroph_interaction:GLN:95     -1
Name: 29, dtype: object

>  <halogenbond:GLN:95>  (31) 
halogenbond:GLN:95    NaN
halogenbond:GLN:95     -1
Name: 29, dtype: object

>  <hbond:SER:96>  (31) 
hbond:SER:96    NaN
hbond:SER:96     -1
Name: 29, dtype: object

>  <halogenbond:HIS:97>  (31) 
halogenbond:HIS:97    NaN
halogenbond:HIS:97     -1
Name: 29, dtype: object

>  <hydroph_interaction:LEU:98>  (31) 
hydroph_interaction:LEU:98    NaN
hydroph_interaction:LEU:98     -1
Name: 29, dtype: object

>  <hbond:LEU:98>  (31) 
hbond:LEU:98    NaN
hbond:LEU:98     -1
Name: 29, dtype: object

>  <halogenbond:LEU:98>  (31) 
halogenbond:LEU:98    NaN
halogenbond:LEU:98     -1
Name: 29, dtype: object

>  <hbond:MET:99>  (31) 
hbond:MET:99    NaN
hbond:MET:99     -1
Name: 29, dtype: object

>  <hydroph_interaction:MET:99>  (31) 
hydroph_interaction:MET:99    NaN
hydroph_interaction:MET:99     -1
Name: 29, dtype: object

>  <halogenbond:MET:99>  (31) 
halogenbond:MET:99    NaN
halogenbond:MET:99     -1
Name: 29, dtype: object

>  <hydroph_interaction:LEU:100>  (31) 
hydroph_interaction:LEU:100    NaN
hydroph_interaction:LEU:100     -1
Name: 29, dtype: object

>  <hbond:LEU:100>  (31) 
hbond:LEU:100    NaN
hbond:LEU:100     -1
Name: 29, dtype: object

>  <hbond:ALA:101>  (31) 
hbond:ALA:101    NaN
hbond:ALA:101     -1
Name: 29, dtype: object

>  <hydroph_interaction:ALA:101>  (31) 
hydroph_interaction:ALA:101    NaN
hydroph_interaction:ALA:101     -1
Name: 29, dtype: object

>  <hydroph_interaction:VAL:102>  (31) 
hydroph_interaction:VAL:102    NaN
hydroph_interaction:VAL:102     -1
Name: 29, dtype: object

>  <hbond:VAL:102>  (31) 
hbond:VAL:102    NaN
hbond:VAL:102     -1
Name: 29, dtype: object

>  <hbond:GLY:103>  (31) 
hbond:GLY:103    NaN
hbond:GLY:103     -1
Name: 29, dtype: object

>  <halogenbond:GLY:103>  (31) 
halogenbond:GLY:103    NaN
halogenbond:GLY:103     -1
Name: 29, dtype: object

>  <hbond:HIS:104>  (31) 
hbond:HIS:104    NaN
hbond:HIS:104     -1
Name: 29, dtype: object

>  <saltbridge:HIS:104>  (31) 
saltbridge:HIS:104    NaN
saltbridge:HIS:104     -1
Name: 29, dtype: object

>  <pication:HIS:104>  (31) 
pication:HIS:104    NaN
pication:HIS:104     -1
Name: 29, dtype: object

>  <halogenbond:HIS:104>  (31) 
halogenbond:HIS:104    NaN
halogenbond:HIS:104     -1
Name: 29, dtype: object

>  <hydroph_interaction:HIS:104>  (31) 
hydroph_interaction:HIS:104    NaN
hydroph_interaction:HIS:104     -1
Name: 29, dtype: object

>  <pistack:HIS:104>  (31) 
pistack:HIS:104    NaN
pistack:HIS:104     -1
Name: 29, dtype: object

>  <halogenbond:SER:105>  (31) 
halogenbond:SER:105    0.0
halogenbond:SER:105      0
Name: 29, dtype: object

>  <hbond:SER:105>  (31) 
hbond:SER:105    0.0
hbond:SER:105      0
Name: 29, dtype: object

>  <hbond:GLU:106>  (31) 
hbond:GLU:106    0.0
hbond:GLU:106      0
Name: 29, dtype: object

>  <hydroph_interaction:GLU:106>  (31) 
hydroph_interaction:GLU:106    0.0
hydroph_interaction:GLU:106      0
Name: 29, dtype: object

>  <saltbridge:GLU:106>  (31) 
saltbridge:GLU:106    NaN
saltbridge:GLU:106     -1
Name: 29, dtype: object

>  <halogenbond:GLU:106>  (31) 
halogenbond:GLU:106    NaN
halogenbond:GLU:106     -1
Name: 29, dtype: object

>  <hydroph_interaction:PRO:107>  (31) 
hydroph_interaction:PRO:107    2
hydroph_interaction:PRO:107    2
Name: 29, dtype: object

>  <hbond:PRO:107>  (31) 
hbond:PRO:107    0.0
hbond:PRO:107      0
Name: 29, dtype: object

>  <halogenbond:PRO:107>  (31) 
halogenbond:PRO:107    NaN
halogenbond:PRO:107     -1
Name: 29, dtype: object

>  <hbond:GLY:108>  (31) 
hbond:GLY:108    NaN
hbond:GLY:108     -1
Name: 29, dtype: object

>  <halogenbond:GLY:108>  (31) 
halogenbond:GLY:108    NaN
halogenbond:GLY:108     -1
Name: 29, dtype: object

>  <hbond:ASP:109>  (31) 
hbond:ASP:109    0.0
hbond:ASP:109      0
Name: 29, dtype: object

>  <hydroph_interaction:ASP:109>  (31) 
hydroph_interaction:ASP:109    NaN
hydroph_interaction:ASP:109     -1
Name: 29, dtype: object

>  <saltbridge:ASP:109>  (31) 
saltbridge:ASP:109    NaN
saltbridge:ASP:109     -1
Name: 29, dtype: object

>  <halogenbond:CYS:110>  (31) 
halogenbond:CYS:110    NaN
halogenbond:CYS:110     -1
Name: 29, dtype: object

>  <hbond:CYS:110>  (31) 
hbond:CYS:110    0.0
hbond:CYS:110      0
Name: 29, dtype: object

>  <hbond:GLY:111>  (31) 
hbond:GLY:111    NaN
hbond:GLY:111     -1
Name: 29, dtype: object

>  <hbond:GLY:112>  (31) 
hbond:GLY:112    NaN
hbond:GLY:112     -1
Name: 29, dtype: object

>  <hbond:ILE:113>  (31) 
hbond:ILE:113    NaN
hbond:ILE:113     -1
Name: 29, dtype: object

>  <hydroph_interaction:LEU:114>  (31) 
hydroph_interaction:LEU:114    NaN
hydroph_interaction:LEU:114     -1
Name: 29, dtype: object

>  <hbond:LEU:114>  (31) 
hbond:LEU:114    NaN
hbond:LEU:114     -1
Name: 29, dtype: object

>  <hydroph_interaction:ILE:123>  (31) 
hydroph_interaction:ILE:123    NaN
hydroph_interaction:ILE:123     -1
Name: 29, dtype: object

>  <hbond:ILE:123>  (31) 
hbond:ILE:123    NaN
hbond:ILE:123     -1
Name: 29, dtype: object

>  <hydroph_interaction:VAL:124>  (31) 
hydroph_interaction:VAL:124    0.0
hydroph_interaction:VAL:124      0
Name: 29, dtype: object

>  <hbond:VAL:124>  (31) 
hbond:VAL:124    NaN
hbond:VAL:124     -1
Name: 29, dtype: object

>  <halogenbond:VAL:124>  (31) 
halogenbond:VAL:124    NaN
halogenbond:VAL:124     -1
Name: 29, dtype: object

>  <hbond:SER:125>  (31) 
hbond:SER:125    0
hbond:SER:125    0
Name: 29, dtype: object

>  <halogenbond:SER:125>  (31) 
halogenbond:SER:125    NaN
halogenbond:SER:125     -1
Name: 29, dtype: object

>  <hydroph_interaction:THR:126>  (31) 
hydroph_interaction:THR:126    NaN
hydroph_interaction:THR:126     -1
Name: 29, dtype: object

>  <hbond:THR:126>  (31) 
hbond:THR:126    0.0
hbond:THR:126      0
Name: 29, dtype: object

>  <halogenbond:THR:126>  (31) 
halogenbond:THR:126    NaN
halogenbond:THR:126     -1
Name: 29, dtype: object

>  <hbond:GLY:127>  (31) 
hbond:GLY:127    0
hbond:GLY:127    0
Name: 29, dtype: object

>  <halogenbond:GLY:127>  (31) 
halogenbond:GLY:127    NaN
halogenbond:GLY:127     -1
Name: 29, dtype: object

>  <hydroph_interaction:GLY:127>  (31) 
hydroph_interaction:GLY:127    NaN
hydroph_interaction:GLY:127     -1
Name: 29, dtype: object

>  <hbond:GLY:128>  (31) 
hbond:GLY:128    NaN
hbond:GLY:128     -1
Name: 29, dtype: object

>  <halogenbond:GLY:128>  (31) 
halogenbond:GLY:128    NaN
halogenbond:GLY:128     -1
Name: 29, dtype: object

>  <hydroph_interaction:GLY:128>  (31) 
hydroph_interaction:GLY:128    NaN
hydroph_interaction:GLY:128     -1
Name: 29, dtype: object

>  <hbond:ASN:129>  (31) 
hbond:ASN:129    NaN
hbond:ASN:129     -1
Name: 29, dtype: object

>  <hydroph_interaction:ASN:129>  (31) 
hydroph_interaction:ASN:129    NaN
hydroph_interaction:ASN:129     -1
Name: 29, dtype: object

>  <halogenbond:ASN:129>  (31) 
halogenbond:ASN:129    NaN
halogenbond:ASN:129     -1
Name: 29, dtype: object

>  <hbond:GLY:130>  (31) 
hbond:GLY:130    NaN
hbond:GLY:130     -1
Name: 29, dtype: object

>  <hbond:LEU:131>  (31) 
hbond:LEU:131    NaN
hbond:LEU:131     -1
Name: 29, dtype: object

>  <hydroph_interaction:LEU:131>  (31) 
hydroph_interaction:LEU:131    NaN
hydroph_interaction:LEU:131     -1
Name: 29, dtype: object

>  <halogenbond:LEU:131>  (31) 
halogenbond:LEU:131    NaN
halogenbond:LEU:131     -1
Name: 29, dtype: object

>  <hydroph_interaction:VAL:132>  (31) 
hydroph_interaction:VAL:132    0.0
hydroph_interaction:VAL:132      0
Name: 29, dtype: object

>  <hbond:VAL:132>  (31) 
hbond:VAL:132    NaN
hbond:VAL:132     -1
Name: 29, dtype: object

>  <hbond:GLY:133>  (31) 
hbond:GLY:133    NaN
hbond:GLY:133     -1
Name: 29, dtype: object

>  <halogenbond:GLY:133>  (31) 
halogenbond:GLY:133    NaN
halogenbond:GLY:133     -1
Name: 29, dtype: object

>  <hydroph_interaction:PHE:134>  (31) 
hydroph_interaction:PHE:134    NaN
hydroph_interaction:PHE:134     -1
Name: 29, dtype: object

>  <hbond:PHE:134>  (31) 
hbond:PHE:134    NaN
hbond:PHE:134     -1
Name: 29, dtype: object

>  <pistack:PHE:134>  (31) 
pistack:PHE:134    NaN
pistack:PHE:134     -1
Name: 29, dtype: object

>  <pication:PHE:134>  (31) 
pication:PHE:134    NaN
pication:PHE:134     -1
Name: 29, dtype: object

>  <halogenbond:PHE:134>  (31) 
halogenbond:PHE:134    NaN
halogenbond:PHE:134     -1
Name: 29, dtype: object

>  <hydroph_interaction:ALA:135>  (31) 
hydroph_interaction:ALA:135    NaN
hydroph_interaction:ALA:135     -1
Name: 29, dtype: object

>  <hbond:ALA:135>  (31) 
hbond:ALA:135    NaN
hbond:ALA:135     -1
Name: 29, dtype: object

$$$$
PV_006044290669
     RDKit          3D

 14 15  0  0  0  0  0  0  0  0999 V2000
   28.3789   13.9713    8.1266 N   0  0  0  0  0  0  0  0  0  0  0  0
   29.6699   13.4300    8.2992 N   0  0  0  0  0  0  0  0  0  0  0  0
   30.2905   13.0548    7.1144 C   0  0  0  0  0  0  0  0  0  0  0  0
   30.2449   13.6988    6.0778 O   0  0  0  0  0  0  0  0  0  0  0  0
   30.9609   11.7175    7.1072 C   0  0  0  0  0  0  0  0  0  0  0  0
   32.1049   11.4461    6.1940 C   0  0  0  0  0  0  0  0  0  0  0  0
   32.8277   12.2027    5.2446 N   0  0  0  0  0  0  0  0  0  0  0  0
   33.8010   11.4083    4.6838 C   0  0  0  0  0  0  0  0  0  0  0  0
   33.6741   10.0619    5.3274 C   0  0  0  0  0  0  0  0  0  0  0  0
   32.6289   10.1582    6.2297 C   0  0  0  0  0  0  0  0  0  0  0  0
   32.2131    9.1065    7.0165 C   0  0  0  0  0  0  0  0  0  0  0  0
   31.1350    9.4530    7.8729 C   0  0  0  0  0  0  0  0  0  0  0  0
   30.6388    8.5332    8.6983 F   0  0  0  0  0  0  0  0  0  0  0  0
   30.5471   10.6939    7.9129 C   0  0  0  0  0  0  0  0  0  0  0  0
  1  2  1  0
  2  3  1  0
  3  4  2  0
  3  5  1  0
  5  6  2  0
  6  7  1  0
  7  8  1  0
  8  9  2  0
  9 10  1  0
 10 11  2  0
 11 12  1  0
 12 13  1  0
 12 14  2  0
 14  5  1  0
 10  6  1  0
A    1
 N1 
A    2
 N2 
A    3
 C1 
A    4
 O1 
A    5
 C2 
A    6
 C3 
A    7
 N3 
A    8
 C4 
A    9
 C5 
A   10
 C6 
A   11
 C7 
A   12
 C8 
A   13
 F1 
A   14
 C9 
M  END
>  <ref_pdb>  (32) 
Ax0310a

>  <ref_mols>  (32) 
Ax0554a,Ax0528a

>  <original SMILES>  (32) 
NNC(=O)c1cc(F)cc2cc[nH]c12

>  <rationale>  (32) 
info halogenbond:C110+G127+D39+A86+S125+E85+Q95+E106+E88+T126+H104+Y64+C65+S87+N129+F83+L131+I82+G128+P91+H21+V84+G133+Y90+Y89+H97+L81+F134+L98+R20+G103+S66+S67+S7+G108+R38+V124+M99+S36; hbond:S87+S125+E88+H21+T126+D109+G108+G103+G128+G130+L131+N129+H104+R68+V124+P91+F83+S67+S66+G112+G133+V132+S77+A135+Y63+A92+A101+M99+F134+L100+I82+Y64+L98+V84+L81+Y94+S80+R38+S37+V102+G8+I123+G111+I113+L114+C65+L22+S96; hydroph_interaction:P107+N129+L40+I123+A135+I82+L100+L98+L131+F83+V132+Y63+F134+H104+A86+V74+P91+A101+F76+M99+L114+A92+Y94+R68+Y72+Y64+V18+V102+W28+G127+G128+L81; pication:H104+Y63+F134+Y90+R68+F83+R20; pistack:H104+F134+Y63+F83+Y94; saltbridge:H104+E106+D109+E85+E88+R68; 

>  <intxn_cluster>  (32) 
-1

>  <intxn_cluster_rank>  (32) 
-1

>  <N_interactions>  (32) 
6

>  <∆∆G>  (32) 
-5.304313

>  <$/mg>  (32) 
163.0

>  <comRMSD>  (32) 
0.863454

>  <N_rotatable_bonds>  (32) 
2

>  <deep_P1_sidechain>  (32) 
nan

>  <farthest_distance_to_substrate>  (32) 
2.336498

>  <hbond:SER:7>  (32) 
hbond:SER:7    0.0
hbond:SER:7      0
Name: 30, dtype: object

>  <halogenbond:SER:7>  (32) 
halogenbond:SER:7    NaN
halogenbond:SER:7     -1
Name: 30, dtype: object

>  <hbond:GLY:8>  (32) 
hbond:GLY:8    NaN
hbond:GLY:8     -1
Name: 30, dtype: object

>  <hydroph_interaction:VAL:18>  (32) 
hydroph_interaction:VAL:18    NaN
hydroph_interaction:VAL:18     -1
Name: 30, dtype: object

>  <hbond:ASN:19>  (32) 
hbond:ASN:19    0.0
hbond:ASN:19      0
Name: 30, dtype: object

>  <hydroph_interaction:ASN:19>  (32) 
hydroph_interaction:ASN:19    0.0
hydroph_interaction:ASN:19      0
Name: 30, dtype: object

>  <halogenbond:ASN:19>  (32) 
halogenbond:ASN:19    0.0
halogenbond:ASN:19      0
Name: 30, dtype: object

>  <hbond:ARG:20>  (32) 
hbond:ARG:20    0.0
hbond:ARG:20      0
Name: 30, dtype: object

>  <hydroph_interaction:ARG:20>  (32) 
hydroph_interaction:ARG:20    0.0
hydroph_interaction:ARG:20      0
Name: 30, dtype: object

>  <saltbridge:ARG:20>  (32) 
saltbridge:ARG:20    0.0
saltbridge:ARG:20      0
Name: 30, dtype: object

>  <halogenbond:ARG:20>  (32) 
halogenbond:ARG:20    NaN
halogenbond:ARG:20     -1
Name: 30, dtype: object

>  <pication:ARG:20>  (32) 
pication:ARG:20    NaN
pication:ARG:20     -1
Name: 30, dtype: object

>  <hbond:HIS:21>  (32) 
hbond:HIS:21    1.0
hbond:HIS:21      1
Name: 30, dtype: object

>  <hydroph_interaction:HIS:21>  (32) 
hydroph_interaction:HIS:21    0.0
hydroph_interaction:HIS:21      0
Name: 30, dtype: object

>  <pistack:HIS:21>  (32) 
pistack:HIS:21    0.0
pistack:HIS:21      0
Name: 30, dtype: object

>  <pication:HIS:21>  (32) 
pication:HIS:21    0.0
pication:HIS:21      0
Name: 30, dtype: object

>  <saltbridge:HIS:21>  (32) 
saltbridge:HIS:21    0.0
saltbridge:HIS:21      0
Name: 30, dtype: object

>  <halogenbond:HIS:21>  (32) 
halogenbond:HIS:21    NaN
halogenbond:HIS:21     -1
Name: 30, dtype: object

>  <hydroph_interaction:LEU:22>  (32) 
hydroph_interaction:LEU:22    0.0
hydroph_interaction:LEU:22      0
Name: 30, dtype: object

>  <hbond:LEU:22>  (32) 
hbond:LEU:22    NaN
hbond:LEU:22     -1
Name: 30, dtype: object

>  <hydroph_interaction:TRP:28>  (32) 
hydroph_interaction:TRP:28    NaN
hydroph_interaction:TRP:28     -1
Name: 30, dtype: object

>  <hbond:SER:36>  (32) 
hbond:SER:36    0.0
hbond:SER:36      0
Name: 30, dtype: object

>  <halogenbond:SER:36>  (32) 
halogenbond:SER:36    NaN
halogenbond:SER:36     -1
Name: 30, dtype: object

>  <hbond:SER:37>  (32) 
hbond:SER:37    NaN
hbond:SER:37     -1
Name: 30, dtype: object

>  <hbond:ARG:38>  (32) 
hbond:ARG:38    NaN
hbond:ARG:38     -1
Name: 30, dtype: object

>  <halogenbond:ARG:38>  (32) 
halogenbond:ARG:38    NaN
halogenbond:ARG:38     -1
Name: 30, dtype: object

>  <saltbridge:ASP:39>  (32) 
saltbridge:ASP:39    0.0
saltbridge:ASP:39      0
Name: 30, dtype: object

>  <halogenbond:ASP:39>  (32) 
halogenbond:ASP:39    NaN
halogenbond:ASP:39     -1
Name: 30, dtype: object

>  <hbond:ASP:39>  (32) 
hbond:ASP:39    0.0
hbond:ASP:39      0
Name: 30, dtype: object

>  <hydroph_interaction:ASP:39>  (32) 
hydroph_interaction:ASP:39    0.0
hydroph_interaction:ASP:39      0
Name: 30, dtype: object

>  <hydroph_interaction:LEU:40>  (32) 
hydroph_interaction:LEU:40    NaN
hydroph_interaction:LEU:40     -1
Name: 30, dtype: object

>  <hydroph_interaction:TYR:63>  (32) 
hydroph_interaction:TYR:63    NaN
hydroph_interaction:TYR:63     -1
Name: 30, dtype: object

>  <hbond:TYR:63>  (32) 
hbond:TYR:63    NaN
hbond:TYR:63     -1
Name: 30, dtype: object

>  <pistack:TYR:63>  (32) 
pistack:TYR:63    NaN
pistack:TYR:63     -1
Name: 30, dtype: object

>  <pication:TYR:63>  (32) 
pication:TYR:63    NaN
pication:TYR:63     -1
Name: 30, dtype: object

>  <halogenbond:TYR:64>  (32) 
halogenbond:TYR:64    NaN
halogenbond:TYR:64     -1
Name: 30, dtype: object

>  <hbond:TYR:64>  (32) 
hbond:TYR:64    NaN
hbond:TYR:64     -1
Name: 30, dtype: object

>  <hydroph_interaction:TYR:64>  (32) 
hydroph_interaction:TYR:64    NaN
hydroph_interaction:TYR:64     -1
Name: 30, dtype: object

>  <halogenbond:CYS:65>  (32) 
halogenbond:CYS:65    NaN
halogenbond:CYS:65     -1
Name: 30, dtype: object

>  <hbond:CYS:65>  (32) 
hbond:CYS:65    NaN
hbond:CYS:65     -1
Name: 30, dtype: object

>  <hbond:SER:66>  (32) 
hbond:SER:66    NaN
hbond:SER:66     -1
Name: 30, dtype: object

>  <halogenbond:SER:66>  (32) 
halogenbond:SER:66    NaN
halogenbond:SER:66     -1
Name: 30, dtype: object

>  <hbond:SER:67>  (32) 
hbond:SER:67    NaN
hbond:SER:67     -1
Name: 30, dtype: object

>  <halogenbond:SER:67>  (32) 
halogenbond:SER:67    NaN
halogenbond:SER:67     -1
Name: 30, dtype: object

>  <hbond:ARG:68>  (32) 
hbond:ARG:68    NaN
hbond:ARG:68     -1
Name: 30, dtype: object

>  <saltbridge:ARG:68>  (32) 
saltbridge:ARG:68    NaN
saltbridge:ARG:68     -1
Name: 30, dtype: object

>  <hydroph_interaction:ARG:68>  (32) 
hydroph_interaction:ARG:68    NaN
hydroph_interaction:ARG:68     -1
Name: 30, dtype: object

>  <pication:ARG:68>  (32) 
pication:ARG:68    NaN
pication:ARG:68     -1
Name: 30, dtype: object

>  <hydroph_interaction:TYR:72>  (32) 
hydroph_interaction:TYR:72    NaN
hydroph_interaction:TYR:72     -1
Name: 30, dtype: object

>  <hydroph_interaction:VAL:74>  (32) 
hydroph_interaction:VAL:74    NaN
hydroph_interaction:VAL:74     -1
Name: 30, dtype: object

>  <hydroph_interaction:PHE:76>  (32) 
hydroph_interaction:PHE:76    NaN
hydroph_interaction:PHE:76     -1
Name: 30, dtype: object

>  <hbond:SER:77>  (32) 
hbond:SER:77    NaN
hbond:SER:77     -1
Name: 30, dtype: object

>  <hbond:SER:80>  (32) 
hbond:SER:80    NaN
hbond:SER:80     -1
Name: 30, dtype: object

>  <hbond:LEU:81>  (32) 
hbond:LEU:81    NaN
hbond:LEU:81     -1
Name: 30, dtype: object

>  <halogenbond:LEU:81>  (32) 
halogenbond:LEU:81    NaN
halogenbond:LEU:81     -1
Name: 30, dtype: object

>  <hydroph_interaction:LEU:81>  (32) 
hydroph_interaction:LEU:81    NaN
hydroph_interaction:LEU:81     -1
Name: 30, dtype: object

>  <hydroph_interaction:ILE:82>  (32) 
hydroph_interaction:ILE:82    NaN
hydroph_interaction:ILE:82     -1
Name: 30, dtype: object

>  <halogenbond:ILE:82>  (32) 
halogenbond:ILE:82    NaN
halogenbond:ILE:82     -1
Name: 30, dtype: object

>  <hbond:ILE:82>  (32) 
hbond:ILE:82    NaN
hbond:ILE:82     -1
Name: 30, dtype: object

>  <hbond:PHE:83>  (32) 
hbond:PHE:83    NaN
hbond:PHE:83     -1
Name: 30, dtype: object

>  <hydroph_interaction:PHE:83>  (32) 
hydroph_interaction:PHE:83    NaN
hydroph_interaction:PHE:83     -1
Name: 30, dtype: object

>  <halogenbond:PHE:83>  (32) 
halogenbond:PHE:83    NaN
halogenbond:PHE:83     -1
Name: 30, dtype: object

>  <pistack:PHE:83>  (32) 
pistack:PHE:83    NaN
pistack:PHE:83     -1
Name: 30, dtype: object

>  <pication:PHE:83>  (32) 
pication:PHE:83    NaN
pication:PHE:83     -1
Name: 30, dtype: object

>  <hydroph_interaction:VAL:84>  (32) 
hydroph_interaction:VAL:84    0.0
hydroph_interaction:VAL:84      0
Name: 30, dtype: object

>  <halogenbond:VAL:84>  (32) 
halogenbond:VAL:84    NaN
halogenbond:VAL:84     -1
Name: 30, dtype: object

>  <hbond:VAL:84>  (32) 
hbond:VAL:84    NaN
hbond:VAL:84     -1
Name: 30, dtype: object

>  <hydroph_interaction:GLU:85>  (32) 
hydroph_interaction:GLU:85    0.0
hydroph_interaction:GLU:85      0
Name: 30, dtype: object

>  <hbond:GLU:85>  (32) 
hbond:GLU:85    0.0
hbond:GLU:85      0
Name: 30, dtype: object

>  <halogenbond:GLU:85>  (32) 
halogenbond:GLU:85    NaN
halogenbond:GLU:85     -1
Name: 30, dtype: object

>  <saltbridge:GLU:85>  (32) 
saltbridge:GLU:85    NaN
saltbridge:GLU:85     -1
Name: 30, dtype: object

>  <halogenbond:ALA:86>  (32) 
halogenbond:ALA:86    NaN
halogenbond:ALA:86     -1
Name: 30, dtype: object

>  <hbond:ALA:86>  (32) 
hbond:ALA:86    0.0
hbond:ALA:86      0
Name: 30, dtype: object

>  <hydroph_interaction:ALA:86>  (32) 
hydroph_interaction:ALA:86    NaN
hydroph_interaction:ALA:86     -1
Name: 30, dtype: object

>  <hbond:SER:87>  (32) 
hbond:SER:87    2
hbond:SER:87    2
Name: 30, dtype: object

>  <halogenbond:SER:87>  (32) 
halogenbond:SER:87    NaN
halogenbond:SER:87     -1
Name: 30, dtype: object

>  <hbond:GLU:88>  (32) 
hbond:GLU:88    1.0
hbond:GLU:88      1
Name: 30, dtype: object

>  <hydroph_interaction:GLU:88>  (32) 
hydroph_interaction:GLU:88    0.0
hydroph_interaction:GLU:88      0
Name: 30, dtype: object

>  <halogenbond:GLU:88>  (32) 
halogenbond:GLU:88    NaN
halogenbond:GLU:88     -1
Name: 30, dtype: object

>  <saltbridge:GLU:88>  (32) 
saltbridge:GLU:88    NaN
saltbridge:GLU:88     -1
Name: 30, dtype: object

>  <hydroph_interaction:TYR:89>  (32) 
hydroph_interaction:TYR:89    0.0
hydroph_interaction:TYR:89      0
Name: 30, dtype: object

>  <pistack:TYR:89>  (32) 
pistack:TYR:89    0.0
pistack:TYR:89      0
Name: 30, dtype: object

>  <hbond:TYR:89>  (32) 
hbond:TYR:89    0.0
hbond:TYR:89      0
Name: 30, dtype: object

>  <halogenbond:TYR:89>  (32) 
halogenbond:TYR:89    NaN
halogenbond:TYR:89     -1
Name: 30, dtype: object

>  <hydroph_interaction:TYR:90>  (32) 
hydroph_interaction:TYR:90    0.0
hydroph_interaction:TYR:90      0
Name: 30, dtype: object

>  <hbond:TYR:90>  (32) 
hbond:TYR:90    0.0
hbond:TYR:90      0
Name: 30, dtype: object

>  <pistack:TYR:90>  (32) 
pistack:TYR:90    0.0
pistack:TYR:90      0
Name: 30, dtype: object

>  <halogenbond:TYR:90>  (32) 
halogenbond:TYR:90    NaN
halogenbond:TYR:90     -1
Name: 30, dtype: object

>  <pication:TYR:90>  (32) 
pication:TYR:90    NaN
pication:TYR:90     -1
Name: 30, dtype: object

>  <hbond:PRO:91>  (32) 
hbond:PRO:91    NaN
hbond:PRO:91     -1
Name: 30, dtype: object

>  <hydroph_interaction:PRO:91>  (32) 
hydroph_interaction:PRO:91    NaN
hydroph_interaction:PRO:91     -1
Name: 30, dtype: object

>  <halogenbond:PRO:91>  (32) 
halogenbond:PRO:91    NaN
halogenbond:PRO:91     -1
Name: 30, dtype: object

>  <hbond:ALA:92>  (32) 
hbond:ALA:92    NaN
hbond:ALA:92     -1
Name: 30, dtype: object

>  <hydroph_interaction:ALA:92>  (32) 
hydroph_interaction:ALA:92    NaN
hydroph_interaction:ALA:92     -1
Name: 30, dtype: object

>  <saltbridge:ARG:93>  (32) 
saltbridge:ARG:93    0.0
saltbridge:ARG:93      0
Name: 30, dtype: object

>  <hbond:ARG:93>  (32) 
hbond:ARG:93    0.0
hbond:ARG:93      0
Name: 30, dtype: object

>  <hydroph_interaction:ARG:93>  (32) 
hydroph_interaction:ARG:93    0.0
hydroph_interaction:ARG:93      0
Name: 30, dtype: object

>  <halogenbond:ARG:93>  (32) 
halogenbond:ARG:93    0.0
halogenbond:ARG:93      0
Name: 30, dtype: object

>  <pication:ARG:93>  (32) 
pication:ARG:93    0.0
pication:ARG:93      0
Name: 30, dtype: object

>  <hydroph_interaction:TYR:94>  (32) 
hydroph_interaction:TYR:94    NaN
hydroph_interaction:TYR:94     -1
Name: 30, dtype: object

>  <pistack:TYR:94>  (32) 
pistack:TYR:94    NaN
pistack:TYR:94     -1
Name: 30, dtype: object

>  <hbond:TYR:94>  (32) 
hbond:TYR:94    NaN
hbond:TYR:94     -1
Name: 30, dtype: object

>  <hbond:GLN:95>  (32) 
hbond:GLN:95    0.0
hbond:GLN:95      0
Name: 30, dtype: object

>  <hydroph_interaction:GLN:95>  (32) 
hydroph_interaction:GLN:95    0.0
hydroph_interaction:GLN:95      0
Name: 30, dtype: object

>  <halogenbond:GLN:95>  (32) 
halogenbond:GLN:95    NaN
halogenbond:GLN:95     -1
Name: 30, dtype: object

>  <hbond:SER:96>  (32) 
hbond:SER:96    NaN
hbond:SER:96     -1
Name: 30, dtype: object

>  <halogenbond:HIS:97>  (32) 
halogenbond:HIS:97    NaN
halogenbond:HIS:97     -1
Name: 30, dtype: object

>  <hydroph_interaction:LEU:98>  (32) 
hydroph_interaction:LEU:98    NaN
hydroph_interaction:LEU:98     -1
Name: 30, dtype: object

>  <hbond:LEU:98>  (32) 
hbond:LEU:98    NaN
hbond:LEU:98     -1
Name: 30, dtype: object

>  <halogenbond:LEU:98>  (32) 
halogenbond:LEU:98    NaN
halogenbond:LEU:98     -1
Name: 30, dtype: object

>  <hbond:MET:99>  (32) 
hbond:MET:99    NaN
hbond:MET:99     -1
Name: 30, dtype: object

>  <hydroph_interaction:MET:99>  (32) 
hydroph_interaction:MET:99    NaN
hydroph_interaction:MET:99     -1
Name: 30, dtype: object

>  <halogenbond:MET:99>  (32) 
halogenbond:MET:99    NaN
halogenbond:MET:99     -1
Name: 30, dtype: object

>  <hydroph_interaction:LEU:100>  (32) 
hydroph_interaction:LEU:100    NaN
hydroph_interaction:LEU:100     -1
Name: 30, dtype: object

>  <hbond:LEU:100>  (32) 
hbond:LEU:100    NaN
hbond:LEU:100     -1
Name: 30, dtype: object

>  <hbond:ALA:101>  (32) 
hbond:ALA:101    NaN
hbond:ALA:101     -1
Name: 30, dtype: object

>  <hydroph_interaction:ALA:101>  (32) 
hydroph_interaction:ALA:101    NaN
hydroph_interaction:ALA:101     -1
Name: 30, dtype: object

>  <hydroph_interaction:VAL:102>  (32) 
hydroph_interaction:VAL:102    NaN
hydroph_interaction:VAL:102     -1
Name: 30, dtype: object

>  <hbond:VAL:102>  (32) 
hbond:VAL:102    NaN
hbond:VAL:102     -1
Name: 30, dtype: object

>  <hbond:GLY:103>  (32) 
hbond:GLY:103    NaN
hbond:GLY:103     -1
Name: 30, dtype: object

>  <halogenbond:GLY:103>  (32) 
halogenbond:GLY:103    NaN
halogenbond:GLY:103     -1
Name: 30, dtype: object

>  <hbond:HIS:104>  (32) 
hbond:HIS:104    NaN
hbond:HIS:104     -1
Name: 30, dtype: object

>  <saltbridge:HIS:104>  (32) 
saltbridge:HIS:104    NaN
saltbridge:HIS:104     -1
Name: 30, dtype: object

>  <pication:HIS:104>  (32) 
pication:HIS:104    NaN
pication:HIS:104     -1
Name: 30, dtype: object

>  <halogenbond:HIS:104>  (32) 
halogenbond:HIS:104    NaN
halogenbond:HIS:104     -1
Name: 30, dtype: object

>  <hydroph_interaction:HIS:104>  (32) 
hydroph_interaction:HIS:104    NaN
hydroph_interaction:HIS:104     -1
Name: 30, dtype: object

>  <pistack:HIS:104>  (32) 
pistack:HIS:104    NaN
pistack:HIS:104     -1
Name: 30, dtype: object

>  <halogenbond:SER:105>  (32) 
halogenbond:SER:105    0.0
halogenbond:SER:105      0
Name: 30, dtype: object

>  <hbond:SER:105>  (32) 
hbond:SER:105    0.0
hbond:SER:105      0
Name: 30, dtype: object

>  <hbond:GLU:106>  (32) 
hbond:GLU:106    0.0
hbond:GLU:106      0
Name: 30, dtype: object

>  <hydroph_interaction:GLU:106>  (32) 
hydroph_interaction:GLU:106    0.0
hydroph_interaction:GLU:106      0
Name: 30, dtype: object

>  <saltbridge:GLU:106>  (32) 
saltbridge:GLU:106    NaN
saltbridge:GLU:106     -1
Name: 30, dtype: object

>  <halogenbond:GLU:106>  (32) 
halogenbond:GLU:106    NaN
halogenbond:GLU:106     -1
Name: 30, dtype: object

>  <hydroph_interaction:PRO:107>  (32) 
hydroph_interaction:PRO:107    1
hydroph_interaction:PRO:107    1
Name: 30, dtype: object

>  <hbond:PRO:107>  (32) 
hbond:PRO:107    0.0
hbond:PRO:107      0
Name: 30, dtype: object

>  <halogenbond:PRO:107>  (32) 
halogenbond:PRO:107    0.0
halogenbond:PRO:107      0
Name: 30, dtype: object

>  <hbond:GLY:108>  (32) 
hbond:GLY:108    NaN
hbond:GLY:108     -1
Name: 30, dtype: object

>  <halogenbond:GLY:108>  (32) 
halogenbond:GLY:108    NaN
halogenbond:GLY:108     -1
Name: 30, dtype: object

>  <hbond:ASP:109>  (32) 
hbond:ASP:109    NaN
hbond:ASP:109     -1
Name: 30, dtype: object

>  <hydroph_interaction:ASP:109>  (32) 
hydroph_interaction:ASP:109    0.0
hydroph_interaction:ASP:109      0
Name: 30, dtype: object

>  <saltbridge:ASP:109>  (32) 
saltbridge:ASP:109    NaN
saltbridge:ASP:109     -1
Name: 30, dtype: object

>  <halogenbond:CYS:110>  (32) 
halogenbond:CYS:110    NaN
halogenbond:CYS:110     -1
Name: 30, dtype: object

>  <hbond:CYS:110>  (32) 
hbond:CYS:110    0.0
hbond:CYS:110      0
Name: 30, dtype: object

>  <hbond:GLY:111>  (32) 
hbond:GLY:111    NaN
hbond:GLY:111     -1
Name: 30, dtype: object

>  <hbond:GLY:112>  (32) 
hbond:GLY:112    NaN
hbond:GLY:112     -1
Name: 30, dtype: object

>  <hbond:ILE:113>  (32) 
hbond:ILE:113    NaN
hbond:ILE:113     -1
Name: 30, dtype: object

>  <hydroph_interaction:LEU:114>  (32) 
hydroph_interaction:LEU:114    NaN
hydroph_interaction:LEU:114     -1
Name: 30, dtype: object

>  <hbond:LEU:114>  (32) 
hbond:LEU:114    NaN
hbond:LEU:114     -1
Name: 30, dtype: object

>  <hydroph_interaction:ILE:123>  (32) 
hydroph_interaction:ILE:123    NaN
hydroph_interaction:ILE:123     -1
Name: 30, dtype: object

>  <hbond:ILE:123>  (32) 
hbond:ILE:123    NaN
hbond:ILE:123     -1
Name: 30, dtype: object

>  <hydroph_interaction:VAL:124>  (32) 
hydroph_interaction:VAL:124    0.0
hydroph_interaction:VAL:124      0
Name: 30, dtype: object

>  <hbond:VAL:124>  (32) 
hbond:VAL:124    NaN
hbond:VAL:124     -1
Name: 30, dtype: object

>  <halogenbond:VAL:124>  (32) 
halogenbond:VAL:124    NaN
halogenbond:VAL:124     -1
Name: 30, dtype: object

>  <hbond:SER:125>  (32) 
hbond:SER:125    1
hbond:SER:125    1
Name: 30, dtype: object

>  <halogenbond:SER:125>  (32) 
halogenbond:SER:125    NaN
halogenbond:SER:125     -1
Name: 30, dtype: object

>  <hydroph_interaction:THR:126>  (32) 
hydroph_interaction:THR:126    0.0
hydroph_interaction:THR:126      0
Name: 30, dtype: object

>  <hbond:THR:126>  (32) 
hbond:THR:126    NaN
hbond:THR:126     -1
Name: 30, dtype: object

>  <halogenbond:THR:126>  (32) 
halogenbond:THR:126    NaN
halogenbond:THR:126     -1
Name: 30, dtype: object

>  <hbond:GLY:127>  (32) 
hbond:GLY:127    0
hbond:GLY:127    0
Name: 30, dtype: object

>  <halogenbond:GLY:127>  (32) 
halogenbond:GLY:127    NaN
halogenbond:GLY:127     -1
Name: 30, dtype: object

>  <hydroph_interaction:GLY:127>  (32) 
hydroph_interaction:GLY:127    NaN
hydroph_interaction:GLY:127     -1
Name: 30, dtype: object

>  <hbond:GLY:128>  (32) 
hbond:GLY:128    NaN
hbond:GLY:128     -1
Name: 30, dtype: object

>  <halogenbond:GLY:128>  (32) 
halogenbond:GLY:128    NaN
halogenbond:GLY:128     -1
Name: 30, dtype: object

>  <hydroph_interaction:GLY:128>  (32) 
hydroph_interaction:GLY:128    NaN
hydroph_interaction:GLY:128     -1
Name: 30, dtype: object

>  <hbond:ASN:129>  (32) 
hbond:ASN:129    NaN
hbond:ASN:129     -1
Name: 30, dtype: object

>  <hydroph_interaction:ASN:129>  (32) 
hydroph_interaction:ASN:129    NaN
hydroph_interaction:ASN:129     -1
Name: 30, dtype: object

>  <halogenbond:ASN:129>  (32) 
halogenbond:ASN:129    NaN
halogenbond:ASN:129     -1
Name: 30, dtype: object

>  <hbond:GLY:130>  (32) 
hbond:GLY:130    NaN
hbond:GLY:130     -1
Name: 30, dtype: object

>  <hbond:LEU:131>  (32) 
hbond:LEU:131    NaN
hbond:LEU:131     -1
Name: 30, dtype: object

>  <hydroph_interaction:LEU:131>  (32) 
hydroph_interaction:LEU:131    NaN
hydroph_interaction:LEU:131     -1
Name: 30, dtype: object

>  <halogenbond:LEU:131>  (32) 
halogenbond:LEU:131    NaN
halogenbond:LEU:131     -1
Name: 30, dtype: object

>  <hydroph_interaction:VAL:132>  (32) 
hydroph_interaction:VAL:132    NaN
hydroph_interaction:VAL:132     -1
Name: 30, dtype: object

>  <hbond:VAL:132>  (32) 
hbond:VAL:132    NaN
hbond:VAL:132     -1
Name: 30, dtype: object

>  <hbond:GLY:133>  (32) 
hbond:GLY:133    NaN
hbond:GLY:133     -1
Name: 30, dtype: object

>  <halogenbond:GLY:133>  (32) 
halogenbond:GLY:133    NaN
halogenbond:GLY:133     -1
Name: 30, dtype: object

>  <hydroph_interaction:PHE:134>  (32) 
hydroph_interaction:PHE:134    NaN
hydroph_interaction:PHE:134     -1
Name: 30, dtype: object

>  <hbond:PHE:134>  (32) 
hbond:PHE:134    NaN
hbond:PHE:134     -1
Name: 30, dtype: object

>  <pistack:PHE:134>  (32) 
pistack:PHE:134    NaN
pistack:PHE:134     -1
Name: 30, dtype: object

>  <pication:PHE:134>  (32) 
pication:PHE:134    NaN
pication:PHE:134     -1
Name: 30, dtype: object

>  <halogenbond:PHE:134>  (32) 
halogenbond:PHE:134    NaN
halogenbond:PHE:134     -1
Name: 30, dtype: object

>  <hydroph_interaction:ALA:135>  (32) 
hydroph_interaction:ALA:135    NaN
hydroph_interaction:ALA:135     -1
Name: 30, dtype: object

>  <hbond:ALA:135>  (32) 
hbond:ALA:135    NaN
hbond:ALA:135     -1
Name: 30, dtype: object

$$$$
PV_002917131396
     RDKit          3D

 14 15  0  0  0  0  0  0  0  0999 V2000
   30.2393    9.0954    8.8903 C   0  0  0  0  0  0  0  0  0  0  0  0
   31.1324    9.8020    7.8990 C   0  0  0  0  0  0  0  0  0  0  0  0
   31.9179    8.7559    7.1960 C   0  0  0  0  0  0  0  0  0  0  0  0
   32.8252    9.1038    6.2354 C   0  0  0  0  0  0  0  0  0  0  0  0
   32.9682   10.4230    5.9589 C   0  0  0  0  0  0  0  0  0  0  0  0
   33.8171   10.9582    5.0373 C   0  0  0  0  0  0  0  0  0  0  0  0
   33.6912   12.3274    5.0325 C   0  0  0  0  0  0  0  0  0  0  0  0
   32.7315   12.6091    5.9907 N   0  0  0  0  0  0  0  0  0  0  0  0
   32.2628   11.4355    6.5836 C   0  0  0  0  0  0  0  0  0  0  0  0
   31.3156   11.1771    7.5828 C   0  0  0  0  0  0  0  0  0  0  0  0
   30.6587   12.3403    8.1684 C   0  0  0  0  0  0  0  0  0  0  0  0
   31.4478   13.5012    8.6680 C   0  0  0  0  0  0  0  0  0  0  0  0
   30.8231   14.5590    9.2171 F   0  0  0  0  0  0  0  0  0  0  0  0
   32.7921   13.5094    8.5854 F   0  0  0  0  0  0  0  0  0  0  0  0
  1  2  1  0
  2  3  2  0
  3  4  1  0
  4  5  2  0
  5  6  1  0
  6  7  2  0
  7  8  1  0
  8  9  1  0
  9 10  2  0
 10 11  1  0
 11 12  2  3
 12 13  1  0
 12 14  1  0
 10  2  1  0
  9  5  1  0
A    1
 C1 
A    2
 C2 
A    3
 C3 
A    4
 C4 
A    5
 C5 
A    6
 C6 
A    7
 C7 
A    8
 N1 
A    9
 C8 
A   10
 C9 
A   11
 C10
A   12
 C11
A   13
 F1 
A   14
 F2 
M  END
>  <ref_pdb>  (33) 
Ax0310a

>  <ref_mols>  (33) 
Ax0566a,Ax0375a

>  <original SMILES>  (33) 
Cc1ccc2cc[nH]c2c1C=C(F)F

>  <rationale>  (33) 
info halogenbond:G127+D39+S125+E85+E106+E88+T126+P107+H104+Y64+C65+S87+N129+F83+R93+L131+I82+G128+P91+N19+H21+V84+G133+Y90+Y89+H97+L81+F134+L98+R20+G103+S66+S67+S7+G108+R38+V124+M99+S36; hbond:P107+D109+G108+G103+L131+N19+R68+V124+F83+S67+S7+S66+G112+G133+V132+Y89+S77+A135+Y63+A92+A101+M99+F134+L100+I82+Y64+S36+L98+V84+L81+S80+R38+S37+V102+G8+I123+G111+I113+L114+C65+L22+S96; hydroph_interaction:V124+P107+N129+N19+L40+I123+A135+L98+F83+V132+Y63+F134+H104+R20+A86+V74+P91+A101+F76+M99+L114+A92+Y94+R68+Y72+Y64+V18+V102+W28+G127+G128+L81; pication:H104+R93+Y63+F134+Y90+R68+F83+R20; pistack:Y89+F134+Y63+F83+Y94; saltbridge:R93+H104+D109+E85+E88+R68+R20; 

>  <intxn_cluster>  (33) 
-1

>  <intxn_cluster_rank>  (33) 
-1

>  <N_interactions>  (33) 
3

>  <∆∆G>  (33) 
-6.802846

>  <$/mg>  (33) 
244.5

>  <comRMSD>  (33) 
0.737362

>  <N_rotatable_bonds>  (33) 
2

>  <deep_P1_sidechain>  (33) 
nan

>  <farthest_distance_to_substrate>  (33) 
2.865051

>  <hbond:SER:7>  (33) 
hbond:SER:7    NaN
hbond:SER:7     -1
Name: 31, dtype: object

>  <halogenbond:SER:7>  (33) 
halogenbond:SER:7    NaN
halogenbond:SER:7     -1
Name: 31, dtype: object

>  <hbond:GLY:8>  (33) 
hbond:GLY:8    NaN
hbond:GLY:8     -1
Name: 31, dtype: object

>  <hydroph_interaction:VAL:18>  (33) 
hydroph_interaction:VAL:18    NaN
hydroph_interaction:VAL:18     -1
Name: 31, dtype: object

>  <hbond:ASN:19>  (33) 
hbond:ASN:19    NaN
hbond:ASN:19     -1
Name: 31, dtype: object

>  <hydroph_interaction:ASN:19>  (33) 
hydroph_interaction:ASN:19    NaN
hydroph_interaction:ASN:19     -1
Name: 31, dtype: object

>  <halogenbond:ASN:19>  (33) 
halogenbond:ASN:19    NaN
halogenbond:ASN:19     -1
Name: 31, dtype: object

>  <hbond:ARG:20>  (33) 
hbond:ARG:20    0.0
hbond:ARG:20      0
Name: 31, dtype: object

>  <hydroph_interaction:ARG:20>  (33) 
hydroph_interaction:ARG:20    NaN
hydroph_interaction:ARG:20     -1
Name: 31, dtype: object

>  <saltbridge:ARG:20>  (33) 
saltbridge:ARG:20    NaN
saltbridge:ARG:20     -1
Name: 31, dtype: object

>  <halogenbond:ARG:20>  (33) 
halogenbond:ARG:20    NaN
halogenbond:ARG:20     -1
Name: 31, dtype: object

>  <pication:ARG:20>  (33) 
pication:ARG:20    NaN
pication:ARG:20     -1
Name: 31, dtype: object

>  <hbond:HIS:21>  (33) 
hbond:HIS:21    0.0
hbond:HIS:21      0
Name: 31, dtype: object

>  <hydroph_interaction:HIS:21>  (33) 
hydroph_interaction:HIS:21    0.0
hydroph_interaction:HIS:21      0
Name: 31, dtype: object

>  <pistack:HIS:21>  (33) 
pistack:HIS:21    0.0
pistack:HIS:21      0
Name: 31, dtype: object

>  <pication:HIS:21>  (33) 
pication:HIS:21    0.0
pication:HIS:21      0
Name: 31, dtype: object

>  <saltbridge:HIS:21>  (33) 
saltbridge:HIS:21    0.0
saltbridge:HIS:21      0
Name: 31, dtype: object

>  <halogenbond:HIS:21>  (33) 
halogenbond:HIS:21    NaN
halogenbond:HIS:21     -1
Name: 31, dtype: object

>  <hydroph_interaction:LEU:22>  (33) 
hydroph_interaction:LEU:22    0.0
hydroph_interaction:LEU:22      0
Name: 31, dtype: object

>  <hbond:LEU:22>  (33) 
hbond:LEU:22    NaN
hbond:LEU:22     -1
Name: 31, dtype: object

>  <hydroph_interaction:TRP:28>  (33) 
hydroph_interaction:TRP:28    NaN
hydroph_interaction:TRP:28     -1
Name: 31, dtype: object

>  <hbond:SER:36>  (33) 
hbond:SER:36    NaN
hbond:SER:36     -1
Name: 31, dtype: object

>  <halogenbond:SER:36>  (33) 
halogenbond:SER:36    NaN
halogenbond:SER:36     -1
Name: 31, dtype: object

>  <hbond:SER:37>  (33) 
hbond:SER:37    NaN
hbond:SER:37     -1
Name: 31, dtype: object

>  <hbond:ARG:38>  (33) 
hbond:ARG:38    NaN
hbond:ARG:38     -1
Name: 31, dtype: object

>  <halogenbond:ARG:38>  (33) 
halogenbond:ARG:38    NaN
halogenbond:ARG:38     -1
Name: 31, dtype: object

>  <saltbridge:ASP:39>  (33) 
saltbridge:ASP:39    0.0
saltbridge:ASP:39      0
Name: 31, dtype: object

>  <halogenbond:ASP:39>  (33) 
halogenbond:ASP:39    NaN
halogenbond:ASP:39     -1
Name: 31, dtype: object

>  <hbond:ASP:39>  (33) 
hbond:ASP:39    0.0
hbond:ASP:39      0
Name: 31, dtype: object

>  <hydroph_interaction:ASP:39>  (33) 
hydroph_interaction:ASP:39    0.0
hydroph_interaction:ASP:39      0
Name: 31, dtype: object

>  <hydroph_interaction:LEU:40>  (33) 
hydroph_interaction:LEU:40    NaN
hydroph_interaction:LEU:40     -1
Name: 31, dtype: object

>  <hydroph_interaction:TYR:63>  (33) 
hydroph_interaction:TYR:63    NaN
hydroph_interaction:TYR:63     -1
Name: 31, dtype: object

>  <hbond:TYR:63>  (33) 
hbond:TYR:63    NaN
hbond:TYR:63     -1
Name: 31, dtype: object

>  <pistack:TYR:63>  (33) 
pistack:TYR:63    NaN
pistack:TYR:63     -1
Name: 31, dtype: object

>  <pication:TYR:63>  (33) 
pication:TYR:63    NaN
pication:TYR:63     -1
Name: 31, dtype: object

>  <halogenbond:TYR:64>  (33) 
halogenbond:TYR:64    NaN
halogenbond:TYR:64     -1
Name: 31, dtype: object

>  <hbond:TYR:64>  (33) 
hbond:TYR:64    NaN
hbond:TYR:64     -1
Name: 31, dtype: object

>  <hydroph_interaction:TYR:64>  (33) 
hydroph_interaction:TYR:64    NaN
hydroph_interaction:TYR:64     -1
Name: 31, dtype: object

>  <halogenbond:CYS:65>  (33) 
halogenbond:CYS:65    NaN
halogenbond:CYS:65     -1
Name: 31, dtype: object

>  <hbond:CYS:65>  (33) 
hbond:CYS:65    NaN
hbond:CYS:65     -1
Name: 31, dtype: object

>  <hbond:SER:66>  (33) 
hbond:SER:66    NaN
hbond:SER:66     -1
Name: 31, dtype: object

>  <halogenbond:SER:66>  (33) 
halogenbond:SER:66    NaN
halogenbond:SER:66     -1
Name: 31, dtype: object

>  <hbond:SER:67>  (33) 
hbond:SER:67    NaN
hbond:SER:67     -1
Name: 31, dtype: object

>  <halogenbond:SER:67>  (33) 
halogenbond:SER:67    NaN
halogenbond:SER:67     -1
Name: 31, dtype: object

>  <hbond:ARG:68>  (33) 
hbond:ARG:68    NaN
hbond:ARG:68     -1
Name: 31, dtype: object

>  <saltbridge:ARG:68>  (33) 
saltbridge:ARG:68    NaN
saltbridge:ARG:68     -1
Name: 31, dtype: object

>  <hydroph_interaction:ARG:68>  (33) 
hydroph_interaction:ARG:68    NaN
hydroph_interaction:ARG:68     -1
Name: 31, dtype: object

>  <pication:ARG:68>  (33) 
pication:ARG:68    NaN
pication:ARG:68     -1
Name: 31, dtype: object

>  <hydroph_interaction:TYR:72>  (33) 
hydroph_interaction:TYR:72    NaN
hydroph_interaction:TYR:72     -1
Name: 31, dtype: object

>  <hydroph_interaction:VAL:74>  (33) 
hydroph_interaction:VAL:74    NaN
hydroph_interaction:VAL:74     -1
Name: 31, dtype: object

>  <hydroph_interaction:PHE:76>  (33) 
hydroph_interaction:PHE:76    NaN
hydroph_interaction:PHE:76     -1
Name: 31, dtype: object

>  <hbond:SER:77>  (33) 
hbond:SER:77    NaN
hbond:SER:77     -1
Name: 31, dtype: object

>  <hbond:SER:80>  (33) 
hbond:SER:80    NaN
hbond:SER:80     -1
Name: 31, dtype: object

>  <hbond:LEU:81>  (33) 
hbond:LEU:81    NaN
hbond:LEU:81     -1
Name: 31, dtype: object

>  <halogenbond:LEU:81>  (33) 
halogenbond:LEU:81    NaN
halogenbond:LEU:81     -1
Name: 31, dtype: object

>  <hydroph_interaction:LEU:81>  (33) 
hydroph_interaction:LEU:81    NaN
hydroph_interaction:LEU:81     -1
Name: 31, dtype: object

>  <hydroph_interaction:ILE:82>  (33) 
hydroph_interaction:ILE:82    0.0
hydroph_interaction:ILE:82      0
Name: 31, dtype: object

>  <halogenbond:ILE:82>  (33) 
halogenbond:ILE:82    NaN
halogenbond:ILE:82     -1
Name: 31, dtype: object

>  <hbond:ILE:82>  (33) 
hbond:ILE:82    NaN
hbond:ILE:82     -1
Name: 31, dtype: object

>  <hbond:PHE:83>  (33) 
hbond:PHE:83    NaN
hbond:PHE:83     -1
Name: 31, dtype: object

>  <hydroph_interaction:PHE:83>  (33) 
hydroph_interaction:PHE:83    NaN
hydroph_interaction:PHE:83     -1
Name: 31, dtype: object

>  <halogenbond:PHE:83>  (33) 
halogenbond:PHE:83    NaN
halogenbond:PHE:83     -1
Name: 31, dtype: object

>  <pistack:PHE:83>  (33) 
pistack:PHE:83    NaN
pistack:PHE:83     -1
Name: 31, dtype: object

>  <pication:PHE:83>  (33) 
pication:PHE:83    NaN
pication:PHE:83     -1
Name: 31, dtype: object

>  <hydroph_interaction:VAL:84>  (33) 
hydroph_interaction:VAL:84    0.0
hydroph_interaction:VAL:84      0
Name: 31, dtype: object

>  <halogenbond:VAL:84>  (33) 
halogenbond:VAL:84    NaN
halogenbond:VAL:84     -1
Name: 31, dtype: object

>  <hbond:VAL:84>  (33) 
hbond:VAL:84    NaN
hbond:VAL:84     -1
Name: 31, dtype: object

>  <hydroph_interaction:GLU:85>  (33) 
hydroph_interaction:GLU:85    0.0
hydroph_interaction:GLU:85      0
Name: 31, dtype: object

>  <hbond:GLU:85>  (33) 
hbond:GLU:85    0.0
hbond:GLU:85      0
Name: 31, dtype: object

>  <halogenbond:GLU:85>  (33) 
halogenbond:GLU:85    NaN
halogenbond:GLU:85     -1
Name: 31, dtype: object

>  <saltbridge:GLU:85>  (33) 
saltbridge:GLU:85    NaN
saltbridge:GLU:85     -1
Name: 31, dtype: object

>  <halogenbond:ALA:86>  (33) 
halogenbond:ALA:86    0.0
halogenbond:ALA:86      0
Name: 31, dtype: object

>  <hbond:ALA:86>  (33) 
hbond:ALA:86    0.0
hbond:ALA:86      0
Name: 31, dtype: object

>  <hydroph_interaction:ALA:86>  (33) 
hydroph_interaction:ALA:86    NaN
hydroph_interaction:ALA:86     -1
Name: 31, dtype: object

>  <hbond:SER:87>  (33) 
hbond:SER:87    0
hbond:SER:87    0
Name: 31, dtype: object

>  <halogenbond:SER:87>  (33) 
halogenbond:SER:87    NaN
halogenbond:SER:87     -1
Name: 31, dtype: object

>  <hbond:GLU:88>  (33) 
hbond:GLU:88    0.0
hbond:GLU:88      0
Name: 31, dtype: object

>  <hydroph_interaction:GLU:88>  (33) 
hydroph_interaction:GLU:88    0.0
hydroph_interaction:GLU:88      0
Name: 31, dtype: object

>  <halogenbond:GLU:88>  (33) 
halogenbond:GLU:88    NaN
halogenbond:GLU:88     -1
Name: 31, dtype: object

>  <saltbridge:GLU:88>  (33) 
saltbridge:GLU:88    NaN
saltbridge:GLU:88     -1
Name: 31, dtype: object

>  <hydroph_interaction:TYR:89>  (33) 
hydroph_interaction:TYR:89    0.0
hydroph_interaction:TYR:89      0
Name: 31, dtype: object

>  <pistack:TYR:89>  (33) 
pistack:TYR:89    NaN
pistack:TYR:89     -1
Name: 31, dtype: object

>  <hbond:TYR:89>  (33) 
hbond:TYR:89    NaN
hbond:TYR:89     -1
Name: 31, dtype: object

>  <halogenbond:TYR:89>  (33) 
halogenbond:TYR:89    NaN
halogenbond:TYR:89     -1
Name: 31, dtype: object

>  <hydroph_interaction:TYR:90>  (33) 
hydroph_interaction:TYR:90    0.0
hydroph_interaction:TYR:90      0
Name: 31, dtype: object

>  <hbond:TYR:90>  (33) 
hbond:TYR:90    0.0
hbond:TYR:90      0
Name: 31, dtype: object

>  <pistack:TYR:90>  (33) 
pistack:TYR:90    0.0
pistack:TYR:90      0
Name: 31, dtype: object

>  <halogenbond:TYR:90>  (33) 
halogenbond:TYR:90    NaN
halogenbond:TYR:90     -1
Name: 31, dtype: object

>  <pication:TYR:90>  (33) 
pication:TYR:90    NaN
pication:TYR:90     -1
Name: 31, dtype: object

>  <hbond:PRO:91>  (33) 
hbond:PRO:91    0.0
hbond:PRO:91      0
Name: 31, dtype: object

>  <hydroph_interaction:PRO:91>  (33) 
hydroph_interaction:PRO:91    NaN
hydroph_interaction:PRO:91     -1
Name: 31, dtype: object

>  <halogenbond:PRO:91>  (33) 
halogenbond:PRO:91    NaN
halogenbond:PRO:91     -1
Name: 31, dtype: object

>  <hbond:ALA:92>  (33) 
hbond:ALA:92    NaN
hbond:ALA:92     -1
Name: 31, dtype: object

>  <hydroph_interaction:ALA:92>  (33) 
hydroph_interaction:ALA:92    NaN
hydroph_interaction:ALA:92     -1
Name: 31, dtype: object

>  <saltbridge:ARG:93>  (33) 
saltbridge:ARG:93    NaN
saltbridge:ARG:93     -1
Name: 31, dtype: object

>  <hbond:ARG:93>  (33) 
hbond:ARG:93    0.0
hbond:ARG:93      0
Name: 31, dtype: object

>  <hydroph_interaction:ARG:93>  (33) 
hydroph_interaction:ARG:93    0.0
hydroph_interaction:ARG:93      0
Name: 31, dtype: object

>  <halogenbond:ARG:93>  (33) 
halogenbond:ARG:93    NaN
halogenbond:ARG:93     -1
Name: 31, dtype: object

>  <pication:ARG:93>  (33) 
pication:ARG:93    NaN
pication:ARG:93     -1
Name: 31, dtype: object

>  <hydroph_interaction:TYR:94>  (33) 
hydroph_interaction:TYR:94    NaN
hydroph_interaction:TYR:94     -1
Name: 31, dtype: object

>  <pistack:TYR:94>  (33) 
pistack:TYR:94    NaN
pistack:TYR:94     -1
Name: 31, dtype: object

>  <hbond:TYR:94>  (33) 
hbond:TYR:94    0.0
hbond:TYR:94      0
Name: 31, dtype: object

>  <hbond:GLN:95>  (33) 
hbond:GLN:95    0.0
hbond:GLN:95      0
Name: 31, dtype: object

>  <hydroph_interaction:GLN:95>  (33) 
hydroph_interaction:GLN:95    0.0
hydroph_interaction:GLN:95      0
Name: 31, dtype: object

>  <halogenbond:GLN:95>  (33) 
halogenbond:GLN:95    0.0
halogenbond:GLN:95      0
Name: 31, dtype: object

>  <hbond:SER:96>  (33) 
hbond:SER:96    NaN
hbond:SER:96     -1
Name: 31, dtype: object

>  <halogenbond:HIS:97>  (33) 
halogenbond:HIS:97    NaN
halogenbond:HIS:97     -1
Name: 31, dtype: object

>  <hydroph_interaction:LEU:98>  (33) 
hydroph_interaction:LEU:98    NaN
hydroph_interaction:LEU:98     -1
Name: 31, dtype: object

>  <hbond:LEU:98>  (33) 
hbond:LEU:98    NaN
hbond:LEU:98     -1
Name: 31, dtype: object

>  <halogenbond:LEU:98>  (33) 
halogenbond:LEU:98    NaN
halogenbond:LEU:98     -1
Name: 31, dtype: object

>  <hbond:MET:99>  (33) 
hbond:MET:99    NaN
hbond:MET:99     -1
Name: 31, dtype: object

>  <hydroph_interaction:MET:99>  (33) 
hydroph_interaction:MET:99    NaN
hydroph_interaction:MET:99     -1
Name: 31, dtype: object

>  <halogenbond:MET:99>  (33) 
halogenbond:MET:99    NaN
halogenbond:MET:99     -1
Name: 31, dtype: object

>  <hydroph_interaction:LEU:100>  (33) 
hydroph_interaction:LEU:100    0.0
hydroph_interaction:LEU:100      0
Name: 31, dtype: object

>  <hbond:LEU:100>  (33) 
hbond:LEU:100    NaN
hbond:LEU:100     -1
Name: 31, dtype: object

>  <hbond:ALA:101>  (33) 
hbond:ALA:101    NaN
hbond:ALA:101     -1
Name: 31, dtype: object

>  <hydroph_interaction:ALA:101>  (33) 
hydroph_interaction:ALA:101    NaN
hydroph_interaction:ALA:101     -1
Name: 31, dtype: object

>  <hydroph_interaction:VAL:102>  (33) 
hydroph_interaction:VAL:102    NaN
hydroph_interaction:VAL:102     -1
Name: 31, dtype: object

>  <hbond:VAL:102>  (33) 
hbond:VAL:102    NaN
hbond:VAL:102     -1
Name: 31, dtype: object

>  <hbond:GLY:103>  (33) 
hbond:GLY:103    NaN
hbond:GLY:103     -1
Name: 31, dtype: object

>  <halogenbond:GLY:103>  (33) 
halogenbond:GLY:103    NaN
halogenbond:GLY:103     -1
Name: 31, dtype: object

>  <hbond:HIS:104>  (33) 
hbond:HIS:104    0.0
hbond:HIS:104      0
Name: 31, dtype: object

>  <saltbridge:HIS:104>  (33) 
saltbridge:HIS:104    NaN
saltbridge:HIS:104     -1
Name: 31, dtype: object

>  <pication:HIS:104>  (33) 
pication:HIS:104    NaN
pication:HIS:104     -1
Name: 31, dtype: object

>  <halogenbond:HIS:104>  (33) 
halogenbond:HIS:104    NaN
halogenbond:HIS:104     -1
Name: 31, dtype: object

>  <hydroph_interaction:HIS:104>  (33) 
hydroph_interaction:HIS:104    NaN
hydroph_interaction:HIS:104     -1
Name: 31, dtype: object

>  <pistack:HIS:104>  (33) 
pistack:HIS:104    0.0
pistack:HIS:104      0
Name: 31, dtype: object

>  <halogenbond:SER:105>  (33) 
halogenbond:SER:105    0.0
halogenbond:SER:105      0
Name: 31, dtype: object

>  <hbond:SER:105>  (33) 
hbond:SER:105    0.0
hbond:SER:105      0
Name: 31, dtype: object

>  <hbond:GLU:106>  (33) 
hbond:GLU:106    0.0
hbond:GLU:106      0
Name: 31, dtype: object

>  <hydroph_interaction:GLU:106>  (33) 
hydroph_interaction:GLU:106    0.0
hydroph_interaction:GLU:106      0
Name: 31, dtype: object

>  <saltbridge:GLU:106>  (33) 
saltbridge:GLU:106    0.0
saltbridge:GLU:106      0
Name: 31, dtype: object

>  <halogenbond:GLU:106>  (33) 
halogenbond:GLU:106    NaN
halogenbond:GLU:106     -1
Name: 31, dtype: object

>  <hydroph_interaction:PRO:107>  (33) 
hydroph_interaction:PRO:107    1
hydroph_interaction:PRO:107    1
Name: 31, dtype: object

>  <hbond:PRO:107>  (33) 
hbond:PRO:107    NaN
hbond:PRO:107     -1
Name: 31, dtype: object

>  <halogenbond:PRO:107>  (33) 
halogenbond:PRO:107    NaN
halogenbond:PRO:107     -1
Name: 31, dtype: object

>  <hbond:GLY:108>  (33) 
hbond:GLY:108    NaN
hbond:GLY:108     -1
Name: 31, dtype: object

>  <halogenbond:GLY:108>  (33) 
halogenbond:GLY:108    NaN
halogenbond:GLY:108     -1
Name: 31, dtype: object

>  <hbond:ASP:109>  (33) 
hbond:ASP:109    NaN
hbond:ASP:109     -1
Name: 31, dtype: object

>  <hydroph_interaction:ASP:109>  (33) 
hydroph_interaction:ASP:109    0.0
hydroph_interaction:ASP:109      0
Name: 31, dtype: object

>  <saltbridge:ASP:109>  (33) 
saltbridge:ASP:109    NaN
saltbridge:ASP:109     -1
Name: 31, dtype: object

>  <halogenbond:CYS:110>  (33) 
halogenbond:CYS:110    0.0
halogenbond:CYS:110      0
Name: 31, dtype: object

>  <hbond:CYS:110>  (33) 
hbond:CYS:110    0.0
hbond:CYS:110      0
Name: 31, dtype: object

>  <hbond:GLY:111>  (33) 
hbond:GLY:111    NaN
hbond:GLY:111     -1
Name: 31, dtype: object

>  <hbond:GLY:112>  (33) 
hbond:GLY:112    NaN
hbond:GLY:112     -1
Name: 31, dtype: object

>  <hbond:ILE:113>  (33) 
hbond:ILE:113    NaN
hbond:ILE:113     -1
Name: 31, dtype: object

>  <hydroph_interaction:LEU:114>  (33) 
hydroph_interaction:LEU:114    NaN
hydroph_interaction:LEU:114     -1
Name: 31, dtype: object

>  <hbond:LEU:114>  (33) 
hbond:LEU:114    NaN
hbond:LEU:114     -1
Name: 31, dtype: object

>  <hydroph_interaction:ILE:123>  (33) 
hydroph_interaction:ILE:123    NaN
hydroph_interaction:ILE:123     -1
Name: 31, dtype: object

>  <hbond:ILE:123>  (33) 
hbond:ILE:123    NaN
hbond:ILE:123     -1
Name: 31, dtype: object

>  <hydroph_interaction:VAL:124>  (33) 
hydroph_interaction:VAL:124    1.0
hydroph_interaction:VAL:124      1
Name: 31, dtype: object

>  <hbond:VAL:124>  (33) 
hbond:VAL:124    NaN
hbond:VAL:124     -1
Name: 31, dtype: object

>  <halogenbond:VAL:124>  (33) 
halogenbond:VAL:124    NaN
halogenbond:VAL:124     -1
Name: 31, dtype: object

>  <hbond:SER:125>  (33) 
hbond:SER:125    0
hbond:SER:125    0
Name: 31, dtype: object

>  <halogenbond:SER:125>  (33) 
halogenbond:SER:125    NaN
halogenbond:SER:125     -1
Name: 31, dtype: object

>  <hydroph_interaction:THR:126>  (33) 
hydroph_interaction:THR:126    0.0
hydroph_interaction:THR:126      0
Name: 31, dtype: object

>  <hbond:THR:126>  (33) 
hbond:THR:126    0.0
hbond:THR:126      0
Name: 31, dtype: object

>  <halogenbond:THR:126>  (33) 
halogenbond:THR:126    NaN
halogenbond:THR:126     -1
Name: 31, dtype: object

>  <hbond:GLY:127>  (33) 
hbond:GLY:127    0
hbond:GLY:127    0
Name: 31, dtype: object

>  <halogenbond:GLY:127>  (33) 
halogenbond:GLY:127    1.0
halogenbond:GLY:127      1
Name: 31, dtype: object

>  <hydroph_interaction:GLY:127>  (33) 
hydroph_interaction:GLY:127    NaN
hydroph_interaction:GLY:127     -1
Name: 31, dtype: object

>  <hbond:GLY:128>  (33) 
hbond:GLY:128    0.0
hbond:GLY:128      0
Name: 31, dtype: object

>  <halogenbond:GLY:128>  (33) 
halogenbond:GLY:128    NaN
halogenbond:GLY:128     -1
Name: 31, dtype: object

>  <hydroph_interaction:GLY:128>  (33) 
hydroph_interaction:GLY:128    NaN
hydroph_interaction:GLY:128     -1
Name: 31, dtype: object

>  <hbond:ASN:129>  (33) 
hbond:ASN:129    0.0
hbond:ASN:129      0
Name: 31, dtype: object

>  <hydroph_interaction:ASN:129>  (33) 
hydroph_interaction:ASN:129    NaN
hydroph_interaction:ASN:129     -1
Name: 31, dtype: object

>  <halogenbond:ASN:129>  (33) 
halogenbond:ASN:129    NaN
halogenbond:ASN:129     -1
Name: 31, dtype: object

>  <hbond:GLY:130>  (33) 
hbond:GLY:130    0.0
hbond:GLY:130      0
Name: 31, dtype: object

>  <hbond:LEU:131>  (33) 
hbond:LEU:131    NaN
hbond:LEU:131     -1
Name: 31, dtype: object

>  <hydroph_interaction:LEU:131>  (33) 
hydroph_interaction:LEU:131    0.0
hydroph_interaction:LEU:131      0
Name: 31, dtype: object

>  <halogenbond:LEU:131>  (33) 
halogenbond:LEU:131    NaN
halogenbond:LEU:131     -1
Name: 31, dtype: object

>  <hydroph_interaction:VAL:132>  (33) 
hydroph_interaction:VAL:132    NaN
hydroph_interaction:VAL:132     -1
Name: 31, dtype: object

>  <hbond:VAL:132>  (33) 
hbond:VAL:132    NaN
hbond:VAL:132     -1
Name: 31, dtype: object

>  <hbond:GLY:133>  (33) 
hbond:GLY:133    NaN
hbond:GLY:133     -1
Name: 31, dtype: object

>  <halogenbond:GLY:133>  (33) 
halogenbond:GLY:133    NaN
halogenbond:GLY:133     -1
Name: 31, dtype: object

>  <hydroph_interaction:PHE:134>  (33) 
hydroph_interaction:PHE:134    NaN
hydroph_interaction:PHE:134     -1
Name: 31, dtype: object

>  <hbond:PHE:134>  (33) 
hbond:PHE:134    NaN
hbond:PHE:134     -1
Name: 31, dtype: object

>  <pistack:PHE:134>  (33) 
pistack:PHE:134    NaN
pistack:PHE:134     -1
Name: 31, dtype: object

>  <pication:PHE:134>  (33) 
pication:PHE:134    NaN
pication:PHE:134     -1
Name: 31, dtype: object

>  <halogenbond:PHE:134>  (33) 
halogenbond:PHE:134    NaN
halogenbond:PHE:134     -1
Name: 31, dtype: object

>  <hydroph_interaction:ALA:135>  (33) 
hydroph_interaction:ALA:135    NaN
hydroph_interaction:ALA:135     -1
Name: 31, dtype: object

>  <hbond:ALA:135>  (33) 
hbond:ALA:135    NaN
hbond:ALA:135     -1
Name: 31, dtype: object

$$$$
Z3621457233
     RDKit          3D

 15 16  0  0  0  0  0  0  0  0999 V2000
   30.1383    8.9893    8.9178 C   0  0  0  0  0  0  0  0  0  0  0  0
   31.0188    9.6782    7.9382 C   0  0  0  0  0  0  0  0  0  0  0  0
   31.8540    8.7966    7.3340 C   0  0  0  0  0  0  0  0  0  0  0  0
   32.7752    9.1451    6.4049 C   0  0  0  0  0  0  0  0  0  0  0  0
   32.8408   10.5312    6.0707 C   0  0  0  0  0  0  0  0  0  0  0  0
   33.6878   11.1002    5.1802 C   0  0  0  0  0  0  0  0  0  0  0  0
   33.4622   12.4899    5.3441 C   0  0  0  0  0  0  0  0  0  0  0  0
   32.3157   12.8231    6.1045 C   0  0  0  0  0  0  0  0  0  0  0  0
   31.9965   11.4662    6.6645 C   0  0  0  0  0  0  0  0  0  0  0  0
   31.0613   11.0628    7.6075 C   0  0  0  0  0  0  0  0  0  0  0  0
   30.2322   12.0004    8.1813 O   0  0  0  0  0  0  0  0  0  0  0  0
   29.1792   12.8804    7.2560 S   0  0  0  0  0  6  0  0  0  0  0  0
   28.6819   14.0467    8.5037 C   0  0  0  0  0  0  0  0  0  0  0  0
   29.8920   13.6070    6.2352 O   0  0  0  0  0  0  0  0  0  0  0  0
   28.0002   12.1283    6.9062 O   0  0  0  0  0  0  0  0  0  0  0  0
  1  2  1  0
  2  3  2  0
  3  4  1  0
  4  5  2  0
  5  6  1  0
  6  7  1  0
  7  8  1  0
  8  9  1  0
  9 10  2  0
 10 11  1  0
 11 12  1  0
 12 13  1  0
 12 14  2  0
 12 15  2  0
 10  2  1  0
  9  5  1  0
A    1
 C1 
A    2
 C2 
A    3
 C3 
A    4
 C4 
A    5
 C5 
A    6
 C6 
A    7
 C7 
A    8
 C8 
A    9
 C9 
A   10
 C10
A   11
 O1 
A   12
 S1 
A   13
 C11
A   14
 O2 
A   15
 O3 
M  END
>  <ref_pdb>  (34) 
Ax0310a

>  <ref_mols>  (34) 
Ax0554a,Ax0922a

>  <original SMILES>  (34) 
Cc1ccc2c(c1OS(C)(=O)=O)CCC2

>  <rationale>  (34) 
info halogenbond:G127+D39+A86+S125+E85+Q95+E106+E88+T126+H104+Y64+C65+S87+N129+F83+R93+L131+I82+G128+P91+N19+H21+V84+G133+Y90+Y89+H97+L81+F134+L98+R20+G103+S66+S67+S7+G108+R38+V124+M99+S36; hbond:S87+Q95+T126+D39+A86+C110+D109+G108+G103+G128+G130+L131+N129+H104+R68+V124+P91+F83+S67+S7+S66+G112+G133+V132+R20+Y89+S77+A135+Y63+A92+A101+M99+F134+L100+I82+Y64+S36+L98+V84+L81+Y94+S80+R38+S37+V102+G8+I123+G111+I113+L114+C65+L22+S96; hydroph_interaction:V124+P107+E85+E106+D109+N129+L40+I123+A135+Q95+I82+L100+L98+L131+F83+R93+V132+Y63+F134+H104+R20+A86+V74+P91+A101+F76+M99+L114+A92+Y94+R68+Y72+Y64+V18+V102+W28+G127+G128+L81; pication:H104+R93+Y63+F134+Y90+R68+F83+R20; pistack:H104+F134+Y63+F83+Y94; saltbridge:D39+H21+R93+H104+E106+D109+E85+E88+R68+R20; 

>  <intxn_cluster>  (34) 
-1

>  <intxn_cluster_rank>  (34) 
-1

>  <N_interactions>  (34) 
4

>  <∆∆G>  (34) 
-9.339895

>  <$/mg>  (34) 
0.0

>  <comRMSD>  (34) 
0.632286

>  <N_rotatable_bonds>  (34) 
4

>  <deep_P1_sidechain>  (34) 
nan

>  <farthest_distance_to_substrate>  (34) 
2.824359

>  <hbond:SER:7>  (34) 
hbond:SER:7    NaN
hbond:SER:7     -1
Name: 32, dtype: object

>  <halogenbond:SER:7>  (34) 
halogenbond:SER:7    NaN
halogenbond:SER:7     -1
Name: 32, dtype: object

>  <hbond:GLY:8>  (34) 
hbond:GLY:8    NaN
hbond:GLY:8     -1
Name: 32, dtype: object

>  <hydroph_interaction:VAL:18>  (34) 
hydroph_interaction:VAL:18    NaN
hydroph_interaction:VAL:18     -1
Name: 32, dtype: object

>  <hbond:ASN:19>  (34) 
hbond:ASN:19    0.0
hbond:ASN:19      0
Name: 32, dtype: object

>  <hydroph_interaction:ASN:19>  (34) 
hydroph_interaction:ASN:19    0.0
hydroph_interaction:ASN:19      0
Name: 32, dtype: object

>  <halogenbond:ASN:19>  (34) 
halogenbond:ASN:19    NaN
halogenbond:ASN:19     -1
Name: 32, dtype: object

>  <hbond:ARG:20>  (34) 
hbond:ARG:20    NaN
hbond:ARG:20     -1
Name: 32, dtype: object

>  <hydroph_interaction:ARG:20>  (34) 
hydroph_interaction:ARG:20    NaN
hydroph_interaction:ARG:20     -1
Name: 32, dtype: object

>  <saltbridge:ARG:20>  (34) 
saltbridge:ARG:20    NaN
saltbridge:ARG:20     -1
Name: 32, dtype: object

>  <halogenbond:ARG:20>  (34) 
halogenbond:ARG:20    NaN
halogenbond:ARG:20     -1
Name: 32, dtype: object

>  <pication:ARG:20>  (34) 
pication:ARG:20    NaN
pication:ARG:20     -1
Name: 32, dtype: object

>  <hbond:HIS:21>  (34) 
hbond:HIS:21    0.0
hbond:HIS:21      0
Name: 32, dtype: object

>  <hydroph_interaction:HIS:21>  (34) 
hydroph_interaction:HIS:21    0.0
hydroph_interaction:HIS:21      0
Name: 32, dtype: object

>  <pistack:HIS:21>  (34) 
pistack:HIS:21    0.0
pistack:HIS:21      0
Name: 32, dtype: object

>  <pication:HIS:21>  (34) 
pication:HIS:21    0.0
pication:HIS:21      0
Name: 32, dtype: object

>  <saltbridge:HIS:21>  (34) 
saltbridge:HIS:21    1.0
saltbridge:HIS:21      1
Name: 32, dtype: object

>  <halogenbond:HIS:21>  (34) 
halogenbond:HIS:21    NaN
halogenbond:HIS:21     -1
Name: 32, dtype: object

>  <hydroph_interaction:LEU:22>  (34) 
hydroph_interaction:LEU:22    0.0
hydroph_interaction:LEU:22      0
Name: 32, dtype: object

>  <hbond:LEU:22>  (34) 
hbond:LEU:22    NaN
hbond:LEU:22     -1
Name: 32, dtype: object

>  <hydroph_interaction:TRP:28>  (34) 
hydroph_interaction:TRP:28    NaN
hydroph_interaction:TRP:28     -1
Name: 32, dtype: object

>  <hbond:SER:36>  (34) 
hbond:SER:36    NaN
hbond:SER:36     -1
Name: 32, dtype: object

>  <halogenbond:SER:36>  (34) 
halogenbond:SER:36    NaN
halogenbond:SER:36     -1
Name: 32, dtype: object

>  <hbond:SER:37>  (34) 
hbond:SER:37    NaN
hbond:SER:37     -1
Name: 32, dtype: object

>  <hbond:ARG:38>  (34) 
hbond:ARG:38    NaN
hbond:ARG:38     -1
Name: 32, dtype: object

>  <halogenbond:ARG:38>  (34) 
halogenbond:ARG:38    NaN
halogenbond:ARG:38     -1
Name: 32, dtype: object

>  <saltbridge:ASP:39>  (34) 
saltbridge:ASP:39    NaN
saltbridge:ASP:39     -1
Name: 32, dtype: object

>  <halogenbond:ASP:39>  (34) 
halogenbond:ASP:39    NaN
halogenbond:ASP:39     -1
Name: 32, dtype: object

>  <hbond:ASP:39>  (34) 
hbond:ASP:39    NaN
hbond:ASP:39     -1
Name: 32, dtype: object

>  <hydroph_interaction:ASP:39>  (34) 
hydroph_interaction:ASP:39    0.0
hydroph_interaction:ASP:39      0
Name: 32, dtype: object

>  <hydroph_interaction:LEU:40>  (34) 
hydroph_interaction:LEU:40    NaN
hydroph_interaction:LEU:40     -1
Name: 32, dtype: object

>  <hydroph_interaction:TYR:63>  (34) 
hydroph_interaction:TYR:63    NaN
hydroph_interaction:TYR:63     -1
Name: 32, dtype: object

>  <hbond:TYR:63>  (34) 
hbond:TYR:63    NaN
hbond:TYR:63     -1
Name: 32, dtype: object

>  <pistack:TYR:63>  (34) 
pistack:TYR:63    NaN
pistack:TYR:63     -1
Name: 32, dtype: object

>  <pication:TYR:63>  (34) 
pication:TYR:63    NaN
pication:TYR:63     -1
Name: 32, dtype: object

>  <halogenbond:TYR:64>  (34) 
halogenbond:TYR:64    NaN
halogenbond:TYR:64     -1
Name: 32, dtype: object

>  <hbond:TYR:64>  (34) 
hbond:TYR:64    NaN
hbond:TYR:64     -1
Name: 32, dtype: object

>  <hydroph_interaction:TYR:64>  (34) 
hydroph_interaction:TYR:64    NaN
hydroph_interaction:TYR:64     -1
Name: 32, dtype: object

>  <halogenbond:CYS:65>  (34) 
halogenbond:CYS:65    NaN
halogenbond:CYS:65     -1
Name: 32, dtype: object

>  <hbond:CYS:65>  (34) 
hbond:CYS:65    NaN
hbond:CYS:65     -1
Name: 32, dtype: object

>  <hbond:SER:66>  (34) 
hbond:SER:66    NaN
hbond:SER:66     -1
Name: 32, dtype: object

>  <halogenbond:SER:66>  (34) 
halogenbond:SER:66    NaN
halogenbond:SER:66     -1
Name: 32, dtype: object

>  <hbond:SER:67>  (34) 
hbond:SER:67    NaN
hbond:SER:67     -1
Name: 32, dtype: object

>  <halogenbond:SER:67>  (34) 
halogenbond:SER:67    NaN
halogenbond:SER:67     -1
Name: 32, dtype: object

>  <hbond:ARG:68>  (34) 
hbond:ARG:68    NaN
hbond:ARG:68     -1
Name: 32, dtype: object

>  <saltbridge:ARG:68>  (34) 
saltbridge:ARG:68    NaN
saltbridge:ARG:68     -1
Name: 32, dtype: object

>  <hydroph_interaction:ARG:68>  (34) 
hydroph_interaction:ARG:68    NaN
hydroph_interaction:ARG:68     -1
Name: 32, dtype: object

>  <pication:ARG:68>  (34) 
pication:ARG:68    NaN
pication:ARG:68     -1
Name: 32, dtype: object

>  <hydroph_interaction:TYR:72>  (34) 
hydroph_interaction:TYR:72    NaN
hydroph_interaction:TYR:72     -1
Name: 32, dtype: object

>  <hydroph_interaction:VAL:74>  (34) 
hydroph_interaction:VAL:74    NaN
hydroph_interaction:VAL:74     -1
Name: 32, dtype: object

>  <hydroph_interaction:PHE:76>  (34) 
hydroph_interaction:PHE:76    NaN
hydroph_interaction:PHE:76     -1
Name: 32, dtype: object

>  <hbond:SER:77>  (34) 
hbond:SER:77    NaN
hbond:SER:77     -1
Name: 32, dtype: object

>  <hbond:SER:80>  (34) 
hbond:SER:80    NaN
hbond:SER:80     -1
Name: 32, dtype: object

>  <hbond:LEU:81>  (34) 
hbond:LEU:81    NaN
hbond:LEU:81     -1
Name: 32, dtype: object

>  <halogenbond:LEU:81>  (34) 
halogenbond:LEU:81    NaN
halogenbond:LEU:81     -1
Name: 32, dtype: object

>  <hydroph_interaction:LEU:81>  (34) 
hydroph_interaction:LEU:81    NaN
hydroph_interaction:LEU:81     -1
Name: 32, dtype: object

>  <hydroph_interaction:ILE:82>  (34) 
hydroph_interaction:ILE:82    NaN
hydroph_interaction:ILE:82     -1
Name: 32, dtype: object

>  <halogenbond:ILE:82>  (34) 
halogenbond:ILE:82    NaN
halogenbond:ILE:82     -1
Name: 32, dtype: object

>  <hbond:ILE:82>  (34) 
hbond:ILE:82    NaN
hbond:ILE:82     -1
Name: 32, dtype: object

>  <hbond:PHE:83>  (34) 
hbond:PHE:83    NaN
hbond:PHE:83     -1
Name: 32, dtype: object

>  <hydroph_interaction:PHE:83>  (34) 
hydroph_interaction:PHE:83    NaN
hydroph_interaction:PHE:83     -1
Name: 32, dtype: object

>  <halogenbond:PHE:83>  (34) 
halogenbond:PHE:83    NaN
halogenbond:PHE:83     -1
Name: 32, dtype: object

>  <pistack:PHE:83>  (34) 
pistack:PHE:83    NaN
pistack:PHE:83     -1
Name: 32, dtype: object

>  <pication:PHE:83>  (34) 
pication:PHE:83    NaN
pication:PHE:83     -1
Name: 32, dtype: object

>  <hydroph_interaction:VAL:84>  (34) 
hydroph_interaction:VAL:84    0.0
hydroph_interaction:VAL:84      0
Name: 32, dtype: object

>  <halogenbond:VAL:84>  (34) 
halogenbond:VAL:84    NaN
halogenbond:VAL:84     -1
Name: 32, dtype: object

>  <hbond:VAL:84>  (34) 
hbond:VAL:84    NaN
hbond:VAL:84     -1
Name: 32, dtype: object

>  <hydroph_interaction:GLU:85>  (34) 
hydroph_interaction:GLU:85    NaN
hydroph_interaction:GLU:85     -1
Name: 32, dtype: object

>  <hbond:GLU:85>  (34) 
hbond:GLU:85    0.0
hbond:GLU:85      0
Name: 32, dtype: object

>  <halogenbond:GLU:85>  (34) 
halogenbond:GLU:85    NaN
halogenbond:GLU:85     -1
Name: 32, dtype: object

>  <saltbridge:GLU:85>  (34) 
saltbridge:GLU:85    NaN
saltbridge:GLU:85     -1
Name: 32, dtype: object

>  <halogenbond:ALA:86>  (34) 
halogenbond:ALA:86    NaN
halogenbond:ALA:86     -1
Name: 32, dtype: object

>  <hbond:ALA:86>  (34) 
hbond:ALA:86    NaN
hbond:ALA:86     -1
Name: 32, dtype: object

>  <hydroph_interaction:ALA:86>  (34) 
hydroph_interaction:ALA:86    NaN
hydroph_interaction:ALA:86     -1
Name: 32, dtype: object

>  <hbond:SER:87>  (34) 
hbond:SER:87    1
hbond:SER:87    1
Name: 32, dtype: object

>  <halogenbond:SER:87>  (34) 
halogenbond:SER:87    NaN
halogenbond:SER:87     -1
Name: 32, dtype: object

>  <hbond:GLU:88>  (34) 
hbond:GLU:88    0.0
hbond:GLU:88      0
Name: 32, dtype: object

>  <hydroph_interaction:GLU:88>  (34) 
hydroph_interaction:GLU:88    0.0
hydroph_interaction:GLU:88      0
Name: 32, dtype: object

>  <halogenbond:GLU:88>  (34) 
halogenbond:GLU:88    NaN
halogenbond:GLU:88     -1
Name: 32, dtype: object

>  <saltbridge:GLU:88>  (34) 
saltbridge:GLU:88    NaN
saltbridge:GLU:88     -1
Name: 32, dtype: object

>  <hydroph_interaction:TYR:89>  (34) 
hydroph_interaction:TYR:89    0.0
hydroph_interaction:TYR:89      0
Name: 32, dtype: object

>  <pistack:TYR:89>  (34) 
pistack:TYR:89    0.0
pistack:TYR:89      0
Name: 32, dtype: object

>  <hbond:TYR:89>  (34) 
hbond:TYR:89    NaN
hbond:TYR:89     -1
Name: 32, dtype: object

>  <halogenbond:TYR:89>  (34) 
halogenbond:TYR:89    NaN
halogenbond:TYR:89     -1
Name: 32, dtype: object

>  <hydroph_interaction:TYR:90>  (34) 
hydroph_interaction:TYR:90    0.0
hydroph_interaction:TYR:90      0
Name: 32, dtype: object

>  <hbond:TYR:90>  (34) 
hbond:TYR:90    0.0
hbond:TYR:90      0
Name: 32, dtype: object

>  <pistack:TYR:90>  (34) 
pistack:TYR:90    0.0
pistack:TYR:90      0
Name: 32, dtype: object

>  <halogenbond:TYR:90>  (34) 
halogenbond:TYR:90    NaN
halogenbond:TYR:90     -1
Name: 32, dtype: object

>  <pication:TYR:90>  (34) 
pication:TYR:90    NaN
pication:TYR:90     -1
Name: 32, dtype: object

>  <hbond:PRO:91>  (34) 
hbond:PRO:91    NaN
hbond:PRO:91     -1
Name: 32, dtype: object

>  <hydroph_interaction:PRO:91>  (34) 
hydroph_interaction:PRO:91    NaN
hydroph_interaction:PRO:91     -1
Name: 32, dtype: object

>  <halogenbond:PRO:91>  (34) 
halogenbond:PRO:91    NaN
halogenbond:PRO:91     -1
Name: 32, dtype: object

>  <hbond:ALA:92>  (34) 
hbond:ALA:92    NaN
hbond:ALA:92     -1
Name: 32, dtype: object

>  <hydroph_interaction:ALA:92>  (34) 
hydroph_interaction:ALA:92    NaN
hydroph_interaction:ALA:92     -1
Name: 32, dtype: object

>  <saltbridge:ARG:93>  (34) 
saltbridge:ARG:93    NaN
saltbridge:ARG:93     -1
Name: 32, dtype: object

>  <hbond:ARG:93>  (34) 
hbond:ARG:93    0.0
hbond:ARG:93      0
Name: 32, dtype: object

>  <hydroph_interaction:ARG:93>  (34) 
hydroph_interaction:ARG:93    NaN
hydroph_interaction:ARG:93     -1
Name: 32, dtype: object

>  <halogenbond:ARG:93>  (34) 
halogenbond:ARG:93    NaN
halogenbond:ARG:93     -1
Name: 32, dtype: object

>  <pication:ARG:93>  (34) 
pication:ARG:93    NaN
pication:ARG:93     -1
Name: 32, dtype: object

>  <hydroph_interaction:TYR:94>  (34) 
hydroph_interaction:TYR:94    NaN
hydroph_interaction:TYR:94     -1
Name: 32, dtype: object

>  <pistack:TYR:94>  (34) 
pistack:TYR:94    NaN
pistack:TYR:94     -1
Name: 32, dtype: object

>  <hbond:TYR:94>  (34) 
hbond:TYR:94    NaN
hbond:TYR:94     -1
Name: 32, dtype: object

>  <hbond:GLN:95>  (34) 
hbond:GLN:95    NaN
hbond:GLN:95     -1
Name: 32, dtype: object

>  <hydroph_interaction:GLN:95>  (34) 
hydroph_interaction:GLN:95    NaN
hydroph_interaction:GLN:95     -1
Name: 32, dtype: object

>  <halogenbond:GLN:95>  (34) 
halogenbond:GLN:95    NaN
halogenbond:GLN:95     -1
Name: 32, dtype: object

>  <hbond:SER:96>  (34) 
hbond:SER:96    NaN
hbond:SER:96     -1
Name: 32, dtype: object

>  <halogenbond:HIS:97>  (34) 
halogenbond:HIS:97    NaN
halogenbond:HIS:97     -1
Name: 32, dtype: object

>  <hydroph_interaction:LEU:98>  (34) 
hydroph_interaction:LEU:98    NaN
hydroph_interaction:LEU:98     -1
Name: 32, dtype: object

>  <hbond:LEU:98>  (34) 
hbond:LEU:98    NaN
hbond:LEU:98     -1
Name: 32, dtype: object

>  <halogenbond:LEU:98>  (34) 
halogenbond:LEU:98    NaN
halogenbond:LEU:98     -1
Name: 32, dtype: object

>  <hbond:MET:99>  (34) 
hbond:MET:99    NaN
hbond:MET:99     -1
Name: 32, dtype: object

>  <hydroph_interaction:MET:99>  (34) 
hydroph_interaction:MET:99    NaN
hydroph_interaction:MET:99     -1
Name: 32, dtype: object

>  <halogenbond:MET:99>  (34) 
halogenbond:MET:99    NaN
halogenbond:MET:99     -1
Name: 32, dtype: object

>  <hydroph_interaction:LEU:100>  (34) 
hydroph_interaction:LEU:100    NaN
hydroph_interaction:LEU:100     -1
Name: 32, dtype: object

>  <hbond:LEU:100>  (34) 
hbond:LEU:100    NaN
hbond:LEU:100     -1
Name: 32, dtype: object

>  <hbond:ALA:101>  (34) 
hbond:ALA:101    NaN
hbond:ALA:101     -1
Name: 32, dtype: object

>  <hydroph_interaction:ALA:101>  (34) 
hydroph_interaction:ALA:101    NaN
hydroph_interaction:ALA:101     -1
Name: 32, dtype: object

>  <hydroph_interaction:VAL:102>  (34) 
hydroph_interaction:VAL:102    NaN
hydroph_interaction:VAL:102     -1
Name: 32, dtype: object

>  <hbond:VAL:102>  (34) 
hbond:VAL:102    NaN
hbond:VAL:102     -1
Name: 32, dtype: object

>  <hbond:GLY:103>  (34) 
hbond:GLY:103    NaN
hbond:GLY:103     -1
Name: 32, dtype: object

>  <halogenbond:GLY:103>  (34) 
halogenbond:GLY:103    NaN
halogenbond:GLY:103     -1
Name: 32, dtype: object

>  <hbond:HIS:104>  (34) 
hbond:HIS:104    NaN
hbond:HIS:104     -1
Name: 32, dtype: object

>  <saltbridge:HIS:104>  (34) 
saltbridge:HIS:104    NaN
saltbridge:HIS:104     -1
Name: 32, dtype: object

>  <pication:HIS:104>  (34) 
pication:HIS:104    NaN
pication:HIS:104     -1
Name: 32, dtype: object

>  <halogenbond:HIS:104>  (34) 
halogenbond:HIS:104    NaN
halogenbond:HIS:104     -1
Name: 32, dtype: object

>  <hydroph_interaction:HIS:104>  (34) 
hydroph_interaction:HIS:104    NaN
hydroph_interaction:HIS:104     -1
Name: 32, dtype: object

>  <pistack:HIS:104>  (34) 
pistack:HIS:104    NaN
pistack:HIS:104     -1
Name: 32, dtype: object

>  <halogenbond:SER:105>  (34) 
halogenbond:SER:105    0.0
halogenbond:SER:105      0
Name: 32, dtype: object

>  <hbond:SER:105>  (34) 
hbond:SER:105    0.0
hbond:SER:105      0
Name: 32, dtype: object

>  <hbond:GLU:106>  (34) 
hbond:GLU:106    0.0
hbond:GLU:106      0
Name: 32, dtype: object

>  <hydroph_interaction:GLU:106>  (34) 
hydroph_interaction:GLU:106    NaN
hydroph_interaction:GLU:106     -1
Name: 32, dtype: object

>  <saltbridge:GLU:106>  (34) 
saltbridge:GLU:106    NaN
saltbridge:GLU:106     -1
Name: 32, dtype: object

>  <halogenbond:GLU:106>  (34) 
halogenbond:GLU:106    NaN
halogenbond:GLU:106     -1
Name: 32, dtype: object

>  <hydroph_interaction:PRO:107>  (34) 
hydroph_interaction:PRO:107    1
hydroph_interaction:PRO:107    1
Name: 32, dtype: object

>  <hbond:PRO:107>  (34) 
hbond:PRO:107    0.0
hbond:PRO:107      0
Name: 32, dtype: object

>  <halogenbond:PRO:107>  (34) 
halogenbond:PRO:107    0.0
halogenbond:PRO:107      0
Name: 32, dtype: object

>  <hbond:GLY:108>  (34) 
hbond:GLY:108    NaN
hbond:GLY:108     -1
Name: 32, dtype: object

>  <halogenbond:GLY:108>  (34) 
halogenbond:GLY:108    NaN
halogenbond:GLY:108     -1
Name: 32, dtype: object

>  <hbond:ASP:109>  (34) 
hbond:ASP:109    NaN
hbond:ASP:109     -1
Name: 32, dtype: object

>  <hydroph_interaction:ASP:109>  (34) 
hydroph_interaction:ASP:109    NaN
hydroph_interaction:ASP:109     -1
Name: 32, dtype: object

>  <saltbridge:ASP:109>  (34) 
saltbridge:ASP:109    NaN
saltbridge:ASP:109     -1
Name: 32, dtype: object

>  <halogenbond:CYS:110>  (34) 
halogenbond:CYS:110    0.0
halogenbond:CYS:110      0
Name: 32, dtype: object

>  <hbond:CYS:110>  (34) 
hbond:CYS:110    NaN
hbond:CYS:110     -1
Name: 32, dtype: object

>  <hbond:GLY:111>  (34) 
hbond:GLY:111    NaN
hbond:GLY:111     -1
Name: 32, dtype: object

>  <hbond:GLY:112>  (34) 
hbond:GLY:112    NaN
hbond:GLY:112     -1
Name: 32, dtype: object

>  <hbond:ILE:113>  (34) 
hbond:ILE:113    NaN
hbond:ILE:113     -1
Name: 32, dtype: object

>  <hydroph_interaction:LEU:114>  (34) 
hydroph_interaction:LEU:114    NaN
hydroph_interaction:LEU:114     -1
Name: 32, dtype: object

>  <hbond:LEU:114>  (34) 
hbond:LEU:114    NaN
hbond:LEU:114     -1
Name: 32, dtype: object

>  <hydroph_interaction:ILE:123>  (34) 
hydroph_interaction:ILE:123    NaN
hydroph_interaction:ILE:123     -1
Name: 32, dtype: object

>  <hbond:ILE:123>  (34) 
hbond:ILE:123    NaN
hbond:ILE:123     -1
Name: 32, dtype: object

>  <hydroph_interaction:VAL:124>  (34) 
hydroph_interaction:VAL:124    1.0
hydroph_interaction:VAL:124      1
Name: 32, dtype: object

>  <hbond:VAL:124>  (34) 
hbond:VAL:124    NaN
hbond:VAL:124     -1
Name: 32, dtype: object

>  <halogenbond:VAL:124>  (34) 
halogenbond:VAL:124    NaN
halogenbond:VAL:124     -1
Name: 32, dtype: object

>  <hbond:SER:125>  (34) 
hbond:SER:125    0
hbond:SER:125    0
Name: 32, dtype: object

>  <halogenbond:SER:125>  (34) 
halogenbond:SER:125    NaN
halogenbond:SER:125     -1
Name: 32, dtype: object

>  <hydroph_interaction:THR:126>  (34) 
hydroph_interaction:THR:126    0.0
hydroph_interaction:THR:126      0
Name: 32, dtype: object

>  <hbond:THR:126>  (34) 
hbond:THR:126    NaN
hbond:THR:126     -1
Name: 32, dtype: object

>  <halogenbond:THR:126>  (34) 
halogenbond:THR:126    NaN
halogenbond:THR:126     -1
Name: 32, dtype: object

>  <hbond:GLY:127>  (34) 
hbond:GLY:127    0
hbond:GLY:127    0
Name: 32, dtype: object

>  <halogenbond:GLY:127>  (34) 
halogenbond:GLY:127    NaN
halogenbond:GLY:127     -1
Name: 32, dtype: object

>  <hydroph_interaction:GLY:127>  (34) 
hydroph_interaction:GLY:127    NaN
hydroph_interaction:GLY:127     -1
Name: 32, dtype: object

>  <hbond:GLY:128>  (34) 
hbond:GLY:128    NaN
hbond:GLY:128     -1
Name: 32, dtype: object

>  <halogenbond:GLY:128>  (34) 
halogenbond:GLY:128    NaN
halogenbond:GLY:128     -1
Name: 32, dtype: object

>  <hydroph_interaction:GLY:128>  (34) 
hydroph_interaction:GLY:128    NaN
hydroph_interaction:GLY:128     -1
Name: 32, dtype: object

>  <hbond:ASN:129>  (34) 
hbond:ASN:129    NaN
hbond:ASN:129     -1
Name: 32, dtype: object

>  <hydroph_interaction:ASN:129>  (34) 
hydroph_interaction:ASN:129    NaN
hydroph_interaction:ASN:129     -1
Name: 32, dtype: object

>  <halogenbond:ASN:129>  (34) 
halogenbond:ASN:129    NaN
halogenbond:ASN:129     -1
Name: 32, dtype: object

>  <hbond:GLY:130>  (34) 
hbond:GLY:130    NaN
hbond:GLY:130     -1
Name: 32, dtype: object

>  <hbond:LEU:131>  (34) 
hbond:LEU:131    NaN
hbond:LEU:131     -1
Name: 32, dtype: object

>  <hydroph_interaction:LEU:131>  (34) 
hydroph_interaction:LEU:131    NaN
hydroph_interaction:LEU:131     -1
Name: 32, dtype: object

>  <halogenbond:LEU:131>  (34) 
halogenbond:LEU:131    NaN
halogenbond:LEU:131     -1
Name: 32, dtype: object

>  <hydroph_interaction:VAL:132>  (34) 
hydroph_interaction:VAL:132    NaN
hydroph_interaction:VAL:132     -1
Name: 32, dtype: object

>  <hbond:VAL:132>  (34) 
hbond:VAL:132    NaN
hbond:VAL:132     -1
Name: 32, dtype: object

>  <hbond:GLY:133>  (34) 
hbond:GLY:133    NaN
hbond:GLY:133     -1
Name: 32, dtype: object

>  <halogenbond:GLY:133>  (34) 
halogenbond:GLY:133    NaN
halogenbond:GLY:133     -1
Name: 32, dtype: object

>  <hydroph_interaction:PHE:134>  (34) 
hydroph_interaction:PHE:134    NaN
hydroph_interaction:PHE:134     -1
Name: 32, dtype: object

>  <hbond:PHE:134>  (34) 
hbond:PHE:134    NaN
hbond:PHE:134     -1
Name: 32, dtype: object

>  <pistack:PHE:134>  (34) 
pistack:PHE:134    NaN
pistack:PHE:134     -1
Name: 32, dtype: object

>  <pication:PHE:134>  (34) 
pication:PHE:134    NaN
pication:PHE:134     -1
Name: 32, dtype: object

>  <halogenbond:PHE:134>  (34) 
halogenbond:PHE:134    NaN
halogenbond:PHE:134     -1
Name: 32, dtype: object

>  <hydroph_interaction:ALA:135>  (34) 
hydroph_interaction:ALA:135    NaN
hydroph_interaction:ALA:135     -1
Name: 32, dtype: object

>  <hbond:ALA:135>  (34) 
hbond:ALA:135    NaN
hbond:ALA:135     -1
Name: 32, dtype: object

$$$$
Z1695944662
     RDKit          3D

 15 16  0  0  0  0  0  0  0  0999 V2000
   27.8077   14.7260    8.9950 C   0  0  0  0  0  0  0  0  0  0  0  0
   29.1555   14.6364    8.4833 N   0  0  0  0  0  0  0  0  0  0  0  0
   29.5899   13.6408    7.6252 C   0  0  0  0  0  0  0  0  0  0  0  0
   29.0652   13.5064    6.0582 S   0  0  0  0  0  0  0  0  0  0  0  0
   30.4959   12.8276    8.2619 N   0  0  0  0  0  0  0  0  0  0  0  0
   31.0237   11.6155    7.8180 C   0  0  0  0  0  0  0  0  0  0  0  0
   30.5419   10.4401    8.3685 C   0  0  0  0  0  0  0  0  0  0  0  0
   31.0933    9.2972    7.9078 C   0  0  0  0  0  0  0  0  0  0  0  0
   30.4216    7.9461    8.6548 Cl  0  0  0  0  0  0  0  0  0  0  0  0
   32.1767    9.2516    6.8557 C   0  0  0  0  0  0  0  0  0  0  0  0
   32.6028   10.4431    6.3563 C   0  0  0  0  0  0  0  0  0  0  0  0
   32.0278   11.5958    6.8365 C   0  0  0  0  0  0  0  0  0  0  0  0
   32.5614   12.7071    6.2393 O   0  0  0  0  0  0  0  0  0  0  0  0
   33.7402   12.1925    5.5633 C   0  0  0  0  0  0  0  0  0  0  0  0
   33.6247   10.7744    5.3424 C   0  0  0  0  0  0  0  0  0  0  0  0
  1  2  1  0
  2  3  1  0
  3  4  2  0
  3  5  1  0
  5  6  1  0
  6  7  2  0
  7  8  1  0
  8  9  1  0
  8 10  2  0
 10 11  1  0
 11 12  2  0
 12 13  1  0
 13 14  1  0
 14 15  1  0
 12  6  1  0
 15 11  1  0
A    1
 C1 
A    2
 N1 
A    3
 C2 
A    4
 S1 
A    5
 N2 
A    6
 C3 
A    7
 C4 
A    8
 C5 
A    9
CL1 
A   10
 C6 
A   11
 C7 
A   12
 C8 
A   13
 O1 
A   14
 C9 
A   15
 C10
M  END
>  <ref_pdb>  (35) 
Ax0310a

>  <ref_mols>  (35) 
Ax0554a,Ax0739a

>  <original SMILES>  (35) 
CNC(=S)Nc1cc(Cl)cc2c1OCC2

>  <rationale>  (35) 
info halogenbond:C110+G127+A86+S125+E85+Q95+E106+E88+T126+P107+H104+Y64+C65+S87+N129+F83+R93+L131+I82+G128+P91+N19+H21+V84+G133+Y90+Y89+H97+L81+F134+L98+R20+G103+S66+S67+S7+G108+R38+V124+M99+S36; hbond:S87+S125+Q95+D39+A86+C110+D109+E85+G108+G103+G128+G130+L131+N129+N19+H104+R68+V124+P91+F83+S67+S7+S66+G112+G133+V132+R20+Y89+S77+A135+Y63+A92+A101+M99+F134+L100+I82+Y64+S36+L98+V84+L81+Y94+S80+R38+S37+V102+G8+I123+G111+I113+L114+C65+L22+S96; hydroph_interaction:V84+E85+E88+D109+N129+L40+I123+A135+Q95+I82+L100+L98+L131+F83+R93+V132+Y63+F134+H104+R20+A86+V74+P91+A101+F76+M99+L114+A92+Y94+R68+Y72+Y64+V18+V102+W28+G127+G128+L81; pication:H104+R93+Y63+F134+Y90+R68+F83+R20; pistack:H21+Y89+Y90+H104+F134+Y63+F83+Y94; saltbridge:D39+R93+H104+E106+D109+E85+E88+R68+R20; 

>  <intxn_cluster>  (35) 
-1

>  <intxn_cluster_rank>  (35) 
-1

>  <N_interactions>  (35) 
3

>  <∆∆G>  (35) 
-8.792417

>  <$/mg>  (35) 
0.0

>  <comRMSD>  (35) 
0.946773

>  <N_rotatable_bonds>  (35) 
2

>  <deep_P1_sidechain>  (35) 
nan

>  <farthest_distance_to_substrate>  (35) 
2.367176

>  <hbond:SER:7>  (35) 
hbond:SER:7    NaN
hbond:SER:7     -1
Name: 33, dtype: object

>  <halogenbond:SER:7>  (35) 
halogenbond:SER:7    NaN
halogenbond:SER:7     -1
Name: 33, dtype: object

>  <hbond:GLY:8>  (35) 
hbond:GLY:8    NaN
hbond:GLY:8     -1
Name: 33, dtype: object

>  <hydroph_interaction:VAL:18>  (35) 
hydroph_interaction:VAL:18    NaN
hydroph_interaction:VAL:18     -1
Name: 33, dtype: object

>  <hbond:ASN:19>  (35) 
hbond:ASN:19    NaN
hbond:ASN:19     -1
Name: 33, dtype: object

>  <hydroph_interaction:ASN:19>  (35) 
hydroph_interaction:ASN:19    0.0
hydroph_interaction:ASN:19      0
Name: 33, dtype: object

>  <halogenbond:ASN:19>  (35) 
halogenbond:ASN:19    NaN
halogenbond:ASN:19     -1
Name: 33, dtype: object

>  <hbond:ARG:20>  (35) 
hbond:ARG:20    NaN
hbond:ARG:20     -1
Name: 33, dtype: object

>  <hydroph_interaction:ARG:20>  (35) 
hydroph_interaction:ARG:20    NaN
hydroph_interaction:ARG:20     -1
Name: 33, dtype: object

>  <saltbridge:ARG:20>  (35) 
saltbridge:ARG:20    NaN
saltbridge:ARG:20     -1
Name: 33, dtype: object

>  <halogenbond:ARG:20>  (35) 
halogenbond:ARG:20    NaN
halogenbond:ARG:20     -1
Name: 33, dtype: object

>  <pication:ARG:20>  (35) 
pication:ARG:20    NaN
pication:ARG:20     -1
Name: 33, dtype: object

>  <hbond:HIS:21>  (35) 
hbond:HIS:21    0.0
hbond:HIS:21      0
Name: 33, dtype: object

>  <hydroph_interaction:HIS:21>  (35) 
hydroph_interaction:HIS:21    0.0
hydroph_interaction:HIS:21      0
Name: 33, dtype: object

>  <pistack:HIS:21>  (35) 
pistack:HIS:21    NaN
pistack:HIS:21     -1
Name: 33, dtype: object

>  <pication:HIS:21>  (35) 
pication:HIS:21    0.0
pication:HIS:21      0
Name: 33, dtype: object

>  <saltbridge:HIS:21>  (35) 
saltbridge:HIS:21    0.0
saltbridge:HIS:21      0
Name: 33, dtype: object

>  <halogenbond:HIS:21>  (35) 
halogenbond:HIS:21    NaN
halogenbond:HIS:21     -1
Name: 33, dtype: object

>  <hydroph_interaction:LEU:22>  (35) 
hydroph_interaction:LEU:22    0.0
hydroph_interaction:LEU:22      0
Name: 33, dtype: object

>  <hbond:LEU:22>  (35) 
hbond:LEU:22    NaN
hbond:LEU:22     -1
Name: 33, dtype: object

>  <hydroph_interaction:TRP:28>  (35) 
hydroph_interaction:TRP:28    NaN
hydroph_interaction:TRP:28     -1
Name: 33, dtype: object

>  <hbond:SER:36>  (35) 
hbond:SER:36    NaN
hbond:SER:36     -1
Name: 33, dtype: object

>  <halogenbond:SER:36>  (35) 
halogenbond:SER:36    NaN
halogenbond:SER:36     -1
Name: 33, dtype: object

>  <hbond:SER:37>  (35) 
hbond:SER:37    NaN
hbond:SER:37     -1
Name: 33, dtype: object

>  <hbond:ARG:38>  (35) 
hbond:ARG:38    NaN
hbond:ARG:38     -1
Name: 33, dtype: object

>  <halogenbond:ARG:38>  (35) 
halogenbond:ARG:38    NaN
halogenbond:ARG:38     -1
Name: 33, dtype: object

>  <saltbridge:ASP:39>  (35) 
saltbridge:ASP:39    NaN
saltbridge:ASP:39     -1
Name: 33, dtype: object

>  <halogenbond:ASP:39>  (35) 
halogenbond:ASP:39    0.0
halogenbond:ASP:39      0
Name: 33, dtype: object

>  <hbond:ASP:39>  (35) 
hbond:ASP:39    NaN
hbond:ASP:39     -1
Name: 33, dtype: object

>  <hydroph_interaction:ASP:39>  (35) 
hydroph_interaction:ASP:39    0.0
hydroph_interaction:ASP:39      0
Name: 33, dtype: object

>  <hydroph_interaction:LEU:40>  (35) 
hydroph_interaction:LEU:40    NaN
hydroph_interaction:LEU:40     -1
Name: 33, dtype: object

>  <hydroph_interaction:TYR:63>  (35) 
hydroph_interaction:TYR:63    NaN
hydroph_interaction:TYR:63     -1
Name: 33, dtype: object

>  <hbond:TYR:63>  (35) 
hbond:TYR:63    NaN
hbond:TYR:63     -1
Name: 33, dtype: object

>  <pistack:TYR:63>  (35) 
pistack:TYR:63    NaN
pistack:TYR:63     -1
Name: 33, dtype: object

>  <pication:TYR:63>  (35) 
pication:TYR:63    NaN
pication:TYR:63     -1
Name: 33, dtype: object

>  <halogenbond:TYR:64>  (35) 
halogenbond:TYR:64    NaN
halogenbond:TYR:64     -1
Name: 33, dtype: object

>  <hbond:TYR:64>  (35) 
hbond:TYR:64    NaN
hbond:TYR:64     -1
Name: 33, dtype: object

>  <hydroph_interaction:TYR:64>  (35) 
hydroph_interaction:TYR:64    NaN
hydroph_interaction:TYR:64     -1
Name: 33, dtype: object

>  <halogenbond:CYS:65>  (35) 
halogenbond:CYS:65    NaN
halogenbond:CYS:65     -1
Name: 33, dtype: object

>  <hbond:CYS:65>  (35) 
hbond:CYS:65    NaN
hbond:CYS:65     -1
Name: 33, dtype: object

>  <hbond:SER:66>  (35) 
hbond:SER:66    NaN
hbond:SER:66     -1
Name: 33, dtype: object

>  <halogenbond:SER:66>  (35) 
halogenbond:SER:66    NaN
halogenbond:SER:66     -1
Name: 33, dtype: object

>  <hbond:SER:67>  (35) 
hbond:SER:67    NaN
hbond:SER:67     -1
Name: 33, dtype: object

>  <halogenbond:SER:67>  (35) 
halogenbond:SER:67    NaN
halogenbond:SER:67     -1
Name: 33, dtype: object

>  <hbond:ARG:68>  (35) 
hbond:ARG:68    NaN
hbond:ARG:68     -1
Name: 33, dtype: object

>  <saltbridge:ARG:68>  (35) 
saltbridge:ARG:68    NaN
saltbridge:ARG:68     -1
Name: 33, dtype: object

>  <hydroph_interaction:ARG:68>  (35) 
hydroph_interaction:ARG:68    NaN
hydroph_interaction:ARG:68     -1
Name: 33, dtype: object

>  <pication:ARG:68>  (35) 
pication:ARG:68    NaN
pication:ARG:68     -1
Name: 33, dtype: object

>  <hydroph_interaction:TYR:72>  (35) 
hydroph_interaction:TYR:72    NaN
hydroph_interaction:TYR:72     -1
Name: 33, dtype: object

>  <hydroph_interaction:VAL:74>  (35) 
hydroph_interaction:VAL:74    NaN
hydroph_interaction:VAL:74     -1
Name: 33, dtype: object

>  <hydroph_interaction:PHE:76>  (35) 
hydroph_interaction:PHE:76    NaN
hydroph_interaction:PHE:76     -1
Name: 33, dtype: object

>  <hbond:SER:77>  (35) 
hbond:SER:77    NaN
hbond:SER:77     -1
Name: 33, dtype: object

>  <hbond:SER:80>  (35) 
hbond:SER:80    NaN
hbond:SER:80     -1
Name: 33, dtype: object

>  <hbond:LEU:81>  (35) 
hbond:LEU:81    NaN
hbond:LEU:81     -1
Name: 33, dtype: object

>  <halogenbond:LEU:81>  (35) 
halogenbond:LEU:81    NaN
halogenbond:LEU:81     -1
Name: 33, dtype: object

>  <hydroph_interaction:LEU:81>  (35) 
hydroph_interaction:LEU:81    NaN
hydroph_interaction:LEU:81     -1
Name: 33, dtype: object

>  <hydroph_interaction:ILE:82>  (35) 
hydroph_interaction:ILE:82    NaN
hydroph_interaction:ILE:82     -1
Name: 33, dtype: object

>  <halogenbond:ILE:82>  (35) 
halogenbond:ILE:82    NaN
halogenbond:ILE:82     -1
Name: 33, dtype: object

>  <hbond:ILE:82>  (35) 
hbond:ILE:82    NaN
hbond:ILE:82     -1
Name: 33, dtype: object

>  <hbond:PHE:83>  (35) 
hbond:PHE:83    NaN
hbond:PHE:83     -1
Name: 33, dtype: object

>  <hydroph_interaction:PHE:83>  (35) 
hydroph_interaction:PHE:83    NaN
hydroph_interaction:PHE:83     -1
Name: 33, dtype: object

>  <halogenbond:PHE:83>  (35) 
halogenbond:PHE:83    NaN
halogenbond:PHE:83     -1
Name: 33, dtype: object

>  <pistack:PHE:83>  (35) 
pistack:PHE:83    NaN
pistack:PHE:83     -1
Name: 33, dtype: object

>  <pication:PHE:83>  (35) 
pication:PHE:83    NaN
pication:PHE:83     -1
Name: 33, dtype: object

>  <hydroph_interaction:VAL:84>  (35) 
hydroph_interaction:VAL:84    NaN
hydroph_interaction:VAL:84     -1
Name: 33, dtype: object

>  <halogenbond:VAL:84>  (35) 
halogenbond:VAL:84    NaN
halogenbond:VAL:84     -1
Name: 33, dtype: object

>  <hbond:VAL:84>  (35) 
hbond:VAL:84    NaN
hbond:VAL:84     -1
Name: 33, dtype: object

>  <hydroph_interaction:GLU:85>  (35) 
hydroph_interaction:GLU:85    NaN
hydroph_interaction:GLU:85     -1
Name: 33, dtype: object

>  <hbond:GLU:85>  (35) 
hbond:GLU:85    NaN
hbond:GLU:85     -1
Name: 33, dtype: object

>  <halogenbond:GLU:85>  (35) 
halogenbond:GLU:85    NaN
halogenbond:GLU:85     -1
Name: 33, dtype: object

>  <saltbridge:GLU:85>  (35) 
saltbridge:GLU:85    NaN
saltbridge:GLU:85     -1
Name: 33, dtype: object

>  <halogenbond:ALA:86>  (35) 
halogenbond:ALA:86    NaN
halogenbond:ALA:86     -1
Name: 33, dtype: object

>  <hbond:ALA:86>  (35) 
hbond:ALA:86    NaN
hbond:ALA:86     -1
Name: 33, dtype: object

>  <hydroph_interaction:ALA:86>  (35) 
hydroph_interaction:ALA:86    NaN
hydroph_interaction:ALA:86     -1
Name: 33, dtype: object

>  <hbond:SER:87>  (35) 
hbond:SER:87    2
hbond:SER:87    2
Name: 33, dtype: object

>  <halogenbond:SER:87>  (35) 
halogenbond:SER:87    NaN
halogenbond:SER:87     -1
Name: 33, dtype: object

>  <hbond:GLU:88>  (35) 
hbond:GLU:88    0.0
hbond:GLU:88      0
Name: 33, dtype: object

>  <hydroph_interaction:GLU:88>  (35) 
hydroph_interaction:GLU:88    NaN
hydroph_interaction:GLU:88     -1
Name: 33, dtype: object

>  <halogenbond:GLU:88>  (35) 
halogenbond:GLU:88    NaN
halogenbond:GLU:88     -1
Name: 33, dtype: object

>  <saltbridge:GLU:88>  (35) 
saltbridge:GLU:88    NaN
saltbridge:GLU:88     -1
Name: 33, dtype: object

>  <hydroph_interaction:TYR:89>  (35) 
hydroph_interaction:TYR:89    0.0
hydroph_interaction:TYR:89      0
Name: 33, dtype: object

>  <pistack:TYR:89>  (35) 
pistack:TYR:89    NaN
pistack:TYR:89     -1
Name: 33, dtype: object

>  <hbond:TYR:89>  (35) 
hbond:TYR:89    NaN
hbond:TYR:89     -1
Name: 33, dtype: object

>  <halogenbond:TYR:89>  (35) 
halogenbond:TYR:89    NaN
halogenbond:TYR:89     -1
Name: 33, dtype: object

>  <hydroph_interaction:TYR:90>  (35) 
hydroph_interaction:TYR:90    0.0
hydroph_interaction:TYR:90      0
Name: 33, dtype: object

>  <hbond:TYR:90>  (35) 
hbond:TYR:90    0.0
hbond:TYR:90      0
Name: 33, dtype: object

>  <pistack:TYR:90>  (35) 
pistack:TYR:90    NaN
pistack:TYR:90     -1
Name: 33, dtype: object

>  <halogenbond:TYR:90>  (35) 
halogenbond:TYR:90    NaN
halogenbond:TYR:90     -1
Name: 33, dtype: object

>  <pication:TYR:90>  (35) 
pication:TYR:90    NaN
pication:TYR:90     -1
Name: 33, dtype: object

>  <hbond:PRO:91>  (35) 
hbond:PRO:91    NaN
hbond:PRO:91     -1
Name: 33, dtype: object

>  <hydroph_interaction:PRO:91>  (35) 
hydroph_interaction:PRO:91    NaN
hydroph_interaction:PRO:91     -1
Name: 33, dtype: object

>  <halogenbond:PRO:91>  (35) 
halogenbond:PRO:91    NaN
halogenbond:PRO:91     -1
Name: 33, dtype: object

>  <hbond:ALA:92>  (35) 
hbond:ALA:92    NaN
hbond:ALA:92     -1
Name: 33, dtype: object

>  <hydroph_interaction:ALA:92>  (35) 
hydroph_interaction:ALA:92    NaN
hydroph_interaction:ALA:92     -1
Name: 33, dtype: object

>  <saltbridge:ARG:93>  (35) 
saltbridge:ARG:93    NaN
saltbridge:ARG:93     -1
Name: 33, dtype: object

>  <hbond:ARG:93>  (35) 
hbond:ARG:93    0.0
hbond:ARG:93      0
Name: 33, dtype: object

>  <hydroph_interaction:ARG:93>  (35) 
hydroph_interaction:ARG:93    NaN
hydroph_interaction:ARG:93     -1
Name: 33, dtype: object

>  <halogenbond:ARG:93>  (35) 
halogenbond:ARG:93    NaN
halogenbond:ARG:93     -1
Name: 33, dtype: object

>  <pication:ARG:93>  (35) 
pication:ARG:93    NaN
pication:ARG:93     -1
Name: 33, dtype: object

>  <hydroph_interaction:TYR:94>  (35) 
hydroph_interaction:TYR:94    NaN
hydroph_interaction:TYR:94     -1
Name: 33, dtype: object

>  <pistack:TYR:94>  (35) 
pistack:TYR:94    NaN
pistack:TYR:94     -1
Name: 33, dtype: object

>  <hbond:TYR:94>  (35) 
hbond:TYR:94    NaN
hbond:TYR:94     -1
Name: 33, dtype: object

>  <hbond:GLN:95>  (35) 
hbond:GLN:95    NaN
hbond:GLN:95     -1
Name: 33, dtype: object

>  <hydroph_interaction:GLN:95>  (35) 
hydroph_interaction:GLN:95    NaN
hydroph_interaction:GLN:95     -1
Name: 33, dtype: object

>  <halogenbond:GLN:95>  (35) 
halogenbond:GLN:95    NaN
halogenbond:GLN:95     -1
Name: 33, dtype: object

>  <hbond:SER:96>  (35) 
hbond:SER:96    NaN
hbond:SER:96     -1
Name: 33, dtype: object

>  <halogenbond:HIS:97>  (35) 
halogenbond:HIS:97    NaN
halogenbond:HIS:97     -1
Name: 33, dtype: object

>  <hydroph_interaction:LEU:98>  (35) 
hydroph_interaction:LEU:98    NaN
hydroph_interaction:LEU:98     -1
Name: 33, dtype: object

>  <hbond:LEU:98>  (35) 
hbond:LEU:98    NaN
hbond:LEU:98     -1
Name: 33, dtype: object

>  <halogenbond:LEU:98>  (35) 
halogenbond:LEU:98    NaN
halogenbond:LEU:98     -1
Name: 33, dtype: object

>  <hbond:MET:99>  (35) 
hbond:MET:99    NaN
hbond:MET:99     -1
Name: 33, dtype: object

>  <hydroph_interaction:MET:99>  (35) 
hydroph_interaction:MET:99    NaN
hydroph_interaction:MET:99     -1
Name: 33, dtype: object

>  <halogenbond:MET:99>  (35) 
halogenbond:MET:99    NaN
halogenbond:MET:99     -1
Name: 33, dtype: object

>  <hydroph_interaction:LEU:100>  (35) 
hydroph_interaction:LEU:100    NaN
hydroph_interaction:LEU:100     -1
Name: 33, dtype: object

>  <hbond:LEU:100>  (35) 
hbond:LEU:100    NaN
hbond:LEU:100     -1
Name: 33, dtype: object

>  <hbond:ALA:101>  (35) 
hbond:ALA:101    NaN
hbond:ALA:101     -1
Name: 33, dtype: object

>  <hydroph_interaction:ALA:101>  (35) 
hydroph_interaction:ALA:101    NaN
hydroph_interaction:ALA:101     -1
Name: 33, dtype: object

>  <hydroph_interaction:VAL:102>  (35) 
hydroph_interaction:VAL:102    NaN
hydroph_interaction:VAL:102     -1
Name: 33, dtype: object

>  <hbond:VAL:102>  (35) 
hbond:VAL:102    NaN
hbond:VAL:102     -1
Name: 33, dtype: object

>  <hbond:GLY:103>  (35) 
hbond:GLY:103    NaN
hbond:GLY:103     -1
Name: 33, dtype: object

>  <halogenbond:GLY:103>  (35) 
halogenbond:GLY:103    NaN
halogenbond:GLY:103     -1
Name: 33, dtype: object

>  <hbond:HIS:104>  (35) 
hbond:HIS:104    NaN
hbond:HIS:104     -1
Name: 33, dtype: object

>  <saltbridge:HIS:104>  (35) 
saltbridge:HIS:104    NaN
saltbridge:HIS:104     -1
Name: 33, dtype: object

>  <pication:HIS:104>  (35) 
pication:HIS:104    NaN
pication:HIS:104     -1
Name: 33, dtype: object

>  <halogenbond:HIS:104>  (35) 
halogenbond:HIS:104    NaN
halogenbond:HIS:104     -1
Name: 33, dtype: object

>  <hydroph_interaction:HIS:104>  (35) 
hydroph_interaction:HIS:104    NaN
hydroph_interaction:HIS:104     -1
Name: 33, dtype: object

>  <pistack:HIS:104>  (35) 
pistack:HIS:104    NaN
pistack:HIS:104     -1
Name: 33, dtype: object

>  <halogenbond:SER:105>  (35) 
halogenbond:SER:105    0.0
halogenbond:SER:105      0
Name: 33, dtype: object

>  <hbond:SER:105>  (35) 
hbond:SER:105    0.0
hbond:SER:105      0
Name: 33, dtype: object

>  <hbond:GLU:106>  (35) 
hbond:GLU:106    0.0
hbond:GLU:106      0
Name: 33, dtype: object

>  <hydroph_interaction:GLU:106>  (35) 
hydroph_interaction:GLU:106    0.0
hydroph_interaction:GLU:106      0
Name: 33, dtype: object

>  <saltbridge:GLU:106>  (35) 
saltbridge:GLU:106    NaN
saltbridge:GLU:106     -1
Name: 33, dtype: object

>  <halogenbond:GLU:106>  (35) 
halogenbond:GLU:106    NaN
halogenbond:GLU:106     -1
Name: 33, dtype: object

>  <hydroph_interaction:PRO:107>  (35) 
hydroph_interaction:PRO:107    0
hydroph_interaction:PRO:107    0
Name: 33, dtype: object

>  <hbond:PRO:107>  (35) 
hbond:PRO:107    0.0
hbond:PRO:107      0
Name: 33, dtype: object

>  <halogenbond:PRO:107>  (35) 
halogenbond:PRO:107    NaN
halogenbond:PRO:107     -1
Name: 33, dtype: object

>  <hbond:GLY:108>  (35) 
hbond:GLY:108    NaN
hbond:GLY:108     -1
Name: 33, dtype: object

>  <halogenbond:GLY:108>  (35) 
halogenbond:GLY:108    NaN
halogenbond:GLY:108     -1
Name: 33, dtype: object

>  <hbond:ASP:109>  (35) 
hbond:ASP:109    NaN
hbond:ASP:109     -1
Name: 33, dtype: object

>  <hydroph_interaction:ASP:109>  (35) 
hydroph_interaction:ASP:109    NaN
hydroph_interaction:ASP:109     -1
Name: 33, dtype: object

>  <saltbridge:ASP:109>  (35) 
saltbridge:ASP:109    NaN
saltbridge:ASP:109     -1
Name: 33, dtype: object

>  <halogenbond:CYS:110>  (35) 
halogenbond:CYS:110    NaN
halogenbond:CYS:110     -1
Name: 33, dtype: object

>  <hbond:CYS:110>  (35) 
hbond:CYS:110    NaN
hbond:CYS:110     -1
Name: 33, dtype: object

>  <hbond:GLY:111>  (35) 
hbond:GLY:111    NaN
hbond:GLY:111     -1
Name: 33, dtype: object

>  <hbond:GLY:112>  (35) 
hbond:GLY:112    NaN
hbond:GLY:112     -1
Name: 33, dtype: object

>  <hbond:ILE:113>  (35) 
hbond:ILE:113    NaN
hbond:ILE:113     -1
Name: 33, dtype: object

>  <hydroph_interaction:LEU:114>  (35) 
hydroph_interaction:LEU:114    NaN
hydroph_interaction:LEU:114     -1
Name: 33, dtype: object

>  <hbond:LEU:114>  (35) 
hbond:LEU:114    NaN
hbond:LEU:114     -1
Name: 33, dtype: object

>  <hydroph_interaction:ILE:123>  (35) 
hydroph_interaction:ILE:123    NaN
hydroph_interaction:ILE:123     -1
Name: 33, dtype: object

>  <hbond:ILE:123>  (35) 
hbond:ILE:123    NaN
hbond:ILE:123     -1
Name: 33, dtype: object

>  <hydroph_interaction:VAL:124>  (35) 
hydroph_interaction:VAL:124    0.0
hydroph_interaction:VAL:124      0
Name: 33, dtype: object

>  <hbond:VAL:124>  (35) 
hbond:VAL:124    NaN
hbond:VAL:124     -1
Name: 33, dtype: object

>  <halogenbond:VAL:124>  (35) 
halogenbond:VAL:124    NaN
halogenbond:VAL:124     -1
Name: 33, dtype: object

>  <hbond:SER:125>  (35) 
hbond:SER:125    1
hbond:SER:125    1
Name: 33, dtype: object

>  <halogenbond:SER:125>  (35) 
halogenbond:SER:125    NaN
halogenbond:SER:125     -1
Name: 33, dtype: object

>  <hydroph_interaction:THR:126>  (35) 
hydroph_interaction:THR:126    0.0
hydroph_interaction:THR:126      0
Name: 33, dtype: object

>  <hbond:THR:126>  (35) 
hbond:THR:126    0.0
hbond:THR:126      0
Name: 33, dtype: object

>  <halogenbond:THR:126>  (35) 
halogenbond:THR:126    NaN
halogenbond:THR:126     -1
Name: 33, dtype: object

>  <hbond:GLY:127>  (35) 
hbond:GLY:127    0
hbond:GLY:127    0
Name: 33, dtype: object

>  <halogenbond:GLY:127>  (35) 
halogenbond:GLY:127    NaN
halogenbond:GLY:127     -1
Name: 33, dtype: object

>  <hydroph_interaction:GLY:127>  (35) 
hydroph_interaction:GLY:127    NaN
hydroph_interaction:GLY:127     -1
Name: 33, dtype: object

>  <hbond:GLY:128>  (35) 
hbond:GLY:128    NaN
hbond:GLY:128     -1
Name: 33, dtype: object

>  <halogenbond:GLY:128>  (35) 
halogenbond:GLY:128    NaN
halogenbond:GLY:128     -1
Name: 33, dtype: object

>  <hydroph_interaction:GLY:128>  (35) 
hydroph_interaction:GLY:128    NaN
hydroph_interaction:GLY:128     -1
Name: 33, dtype: object

>  <hbond:ASN:129>  (35) 
hbond:ASN:129    NaN
hbond:ASN:129     -1
Name: 33, dtype: object

>  <hydroph_interaction:ASN:129>  (35) 
hydroph_interaction:ASN:129    NaN
hydroph_interaction:ASN:129     -1
Name: 33, dtype: object

>  <halogenbond:ASN:129>  (35) 
halogenbond:ASN:129    NaN
halogenbond:ASN:129     -1
Name: 33, dtype: object

>  <hbond:GLY:130>  (35) 
hbond:GLY:130    NaN
hbond:GLY:130     -1
Name: 33, dtype: object

>  <hbond:LEU:131>  (35) 
hbond:LEU:131    NaN
hbond:LEU:131     -1
Name: 33, dtype: object

>  <hydroph_interaction:LEU:131>  (35) 
hydroph_interaction:LEU:131    NaN
hydroph_interaction:LEU:131     -1
Name: 33, dtype: object

>  <halogenbond:LEU:131>  (35) 
halogenbond:LEU:131    NaN
halogenbond:LEU:131     -1
Name: 33, dtype: object

>  <hydroph_interaction:VAL:132>  (35) 
hydroph_interaction:VAL:132    NaN
hydroph_interaction:VAL:132     -1
Name: 33, dtype: object

>  <hbond:VAL:132>  (35) 
hbond:VAL:132    NaN
hbond:VAL:132     -1
Name: 33, dtype: object

>  <hbond:GLY:133>  (35) 
hbond:GLY:133    NaN
hbond:GLY:133     -1
Name: 33, dtype: object

>  <halogenbond:GLY:133>  (35) 
halogenbond:GLY:133    NaN
halogenbond:GLY:133     -1
Name: 33, dtype: object

>  <hydroph_interaction:PHE:134>  (35) 
hydroph_interaction:PHE:134    NaN
hydroph_interaction:PHE:134     -1
Name: 33, dtype: object

>  <hbond:PHE:134>  (35) 
hbond:PHE:134    NaN
hbond:PHE:134     -1
Name: 33, dtype: object

>  <pistack:PHE:134>  (35) 
pistack:PHE:134    NaN
pistack:PHE:134     -1
Name: 33, dtype: object

>  <pication:PHE:134>  (35) 
pication:PHE:134    NaN
pication:PHE:134     -1
Name: 33, dtype: object

>  <halogenbond:PHE:134>  (35) 
halogenbond:PHE:134    NaN
halogenbond:PHE:134     -1
Name: 33, dtype: object

>  <hydroph_interaction:ALA:135>  (35) 
hydroph_interaction:ALA:135    NaN
hydroph_interaction:ALA:135     -1
Name: 33, dtype: object

>  <hbond:ALA:135>  (35) 
hbond:ALA:135    NaN
hbond:ALA:135     -1
Name: 33, dtype: object

$$$$
PV_006279232726
     RDKit          3D

 13 13  0  0  0  0  0  0  0  0999 V2000
   28.9233   15.3005    8.4363 C   0  0  0  0  0  0  0  0  0  0  0  0
   29.6968   14.0156    8.3521 C   0  0  0  0  0  0  0  0  0  0  0  0
   30.0146   13.2072    7.1693 C   0  0  0  0  0  0  0  0  0  0  0  0
   29.5588   13.6445    5.9135 C   0  0  0  0  0  0  0  0  0  0  0  0
   30.7361   11.9288    7.2064 C   0  0  0  0  0  0  0  0  0  0  0  0
   31.8253   11.6431    6.3971 C   0  0  0  0  0  0  0  0  0  0  0  0
   32.4189   10.2862    6.4522 C   0  0  0  0  0  0  0  0  0  0  0  0
   33.5877    9.8735    5.6085 C   0  0  0  0  0  0  0  0  0  0  0  0
   31.8263    9.3879    7.3228 C   0  0  0  0  0  0  0  0  0  0  0  0
   32.2496    8.1118    7.3945 N   0  0  0  0  0  0  0  0  0  0  0  0
   30.7890    9.6995    8.1440 C   0  0  0  0  0  0  0  0  0  0  0  0
   30.2629    8.6515    9.0641 C   0  0  0  0  0  0  0  0  0  0  0  0
   30.2564   10.9687    8.0794 C   0  0  0  0  0  0  0  0  0  0  0  0
  1  2  1  0
  2  3  2  3
  3  4  1  0
  3  5  1  0
  5  6  2  0
  6  7  1  0
  7  8  1  0
  7  9  2  0
  9 10  1  0
  9 11  1  0
 11 12  1  0
 11 13  2  0
 13  5  1  0
A    1
 C1 
A    2
 C2 
A    3
 C3 
A    4
 C4 
A    5
 C5 
A    6
 C6 
A    7
 C7 
A    8
 C8 
A    9
 C9 
A   10
 N1 
A   11
 C10
A   12
 C11
A   13
 C12
M  END
>  <ref_pdb>  (36) 
Ax0310a

>  <ref_mols>  (36) 
Ax0451a,Ax0739a

>  <original SMILES>  (36) 
CC=C(C)c1cc(C)c(N)c(C)c1

>  <rationale>  (36) 
info halogenbond:G127+D39+E85+Q95+E106+E88+T126+P107+H104+Y64+C65+S87+N129+F83+R93+L131+I82+G128+P91+N19+H21+V84+G133+Y90+Y89+H97+L81+F134+L98+R20+G103+S66+S67+S7+G108+R38+V124+M99+S36; hbond:S105+Q95+D39+A86+E85+G108+G103+G128+G130+L131+N129+N19+H104+R68+R93+P91+F83+S67+S7+S66+G112+G133+V132+R20+Y89+S77+A135+Y63+A92+A101+M99+F134+L100+I82+Y64+S36+L98+V84+L81+Y94+S80+R38+S37+V102+G8+I123+G111+I113+L114+C65+L22+S96; hydroph_interaction:V124+Y90+H21+P107+L22+E85+E106+N129+D39+N19+L40+I123+A135+Q95+I82+L100+L98+L131+F83+R93+V132+Y63+F134+H104+R20+A86+V74+P91+A101+F76+M99+L114+A92+Y94+R68+Y72+Y64+V18+V102+W28+G127+G128+L81; pication:H21+H104+R93+Y63+F134+Y90+R68+F83+R20; pistack:H21+Y89+Y90+H104+F134+Y63+F83+Y94; saltbridge:D39+R93+H104+E106+D109+E85+E88+R68+R20; 

>  <intxn_cluster>  (36) 
-1

>  <intxn_cluster_rank>  (36) 
-1

>  <N_interactions>  (36) 
5

>  <∆∆G>  (36) 
-9.947155

>  <$/mg>  (36) 
163.0

>  <comRMSD>  (36) 
0.982561

>  <N_rotatable_bonds>  (36) 
6

>  <deep_P1_sidechain>  (36) 
nan

>  <farthest_distance_to_substrate>  (36) 
2.76024

>  <hbond:SER:7>  (36) 
hbond:SER:7    NaN
hbond:SER:7     -1
Name: 34, dtype: object

>  <halogenbond:SER:7>  (36) 
halogenbond:SER:7    NaN
halogenbond:SER:7     -1
Name: 34, dtype: object

>  <hbond:GLY:8>  (36) 
hbond:GLY:8    NaN
hbond:GLY:8     -1
Name: 34, dtype: object

>  <hydroph_interaction:VAL:18>  (36) 
hydroph_interaction:VAL:18    NaN
hydroph_interaction:VAL:18     -1
Name: 34, dtype: object

>  <hbond:ASN:19>  (36) 
hbond:ASN:19    NaN
hbond:ASN:19     -1
Name: 34, dtype: object

>  <hydroph_interaction:ASN:19>  (36) 
hydroph_interaction:ASN:19    NaN
hydroph_interaction:ASN:19     -1
Name: 34, dtype: object

>  <halogenbond:ASN:19>  (36) 
halogenbond:ASN:19    NaN
halogenbond:ASN:19     -1
Name: 34, dtype: object

>  <hbond:ARG:20>  (36) 
hbond:ARG:20    NaN
hbond:ARG:20     -1
Name: 34, dtype: object

>  <hydroph_interaction:ARG:20>  (36) 
hydroph_interaction:ARG:20    NaN
hydroph_interaction:ARG:20     -1
Name: 34, dtype: object

>  <saltbridge:ARG:20>  (36) 
saltbridge:ARG:20    NaN
saltbridge:ARG:20     -1
Name: 34, dtype: object

>  <halogenbond:ARG:20>  (36) 
halogenbond:ARG:20    NaN
halogenbond:ARG:20     -1
Name: 34, dtype: object

>  <pication:ARG:20>  (36) 
pication:ARG:20    NaN
pication:ARG:20     -1
Name: 34, dtype: object

>  <hbond:HIS:21>  (36) 
hbond:HIS:21    0.0
hbond:HIS:21      0
Name: 34, dtype: object

>  <hydroph_interaction:HIS:21>  (36) 
hydroph_interaction:HIS:21    NaN
hydroph_interaction:HIS:21     -1
Name: 34, dtype: object

>  <pistack:HIS:21>  (36) 
pistack:HIS:21    NaN
pistack:HIS:21     -1
Name: 34, dtype: object

>  <pication:HIS:21>  (36) 
pication:HIS:21    NaN
pication:HIS:21     -1
Name: 34, dtype: object

>  <saltbridge:HIS:21>  (36) 
saltbridge:HIS:21    0.0
saltbridge:HIS:21      0
Name: 34, dtype: object

>  <halogenbond:HIS:21>  (36) 
halogenbond:HIS:21    NaN
halogenbond:HIS:21     -1
Name: 34, dtype: object

>  <hydroph_interaction:LEU:22>  (36) 
hydroph_interaction:LEU:22    NaN
hydroph_interaction:LEU:22     -1
Name: 34, dtype: object

>  <hbond:LEU:22>  (36) 
hbond:LEU:22    NaN
hbond:LEU:22     -1
Name: 34, dtype: object

>  <hydroph_interaction:TRP:28>  (36) 
hydroph_interaction:TRP:28    NaN
hydroph_interaction:TRP:28     -1
Name: 34, dtype: object

>  <hbond:SER:36>  (36) 
hbond:SER:36    NaN
hbond:SER:36     -1
Name: 34, dtype: object

>  <halogenbond:SER:36>  (36) 
halogenbond:SER:36    NaN
halogenbond:SER:36     -1
Name: 34, dtype: object

>  <hbond:SER:37>  (36) 
hbond:SER:37    NaN
hbond:SER:37     -1
Name: 34, dtype: object

>  <hbond:ARG:38>  (36) 
hbond:ARG:38    NaN
hbond:ARG:38     -1
Name: 34, dtype: object

>  <halogenbond:ARG:38>  (36) 
halogenbond:ARG:38    NaN
halogenbond:ARG:38     -1
Name: 34, dtype: object

>  <saltbridge:ASP:39>  (36) 
saltbridge:ASP:39    NaN
saltbridge:ASP:39     -1
Name: 34, dtype: object

>  <halogenbond:ASP:39>  (36) 
halogenbond:ASP:39    NaN
halogenbond:ASP:39     -1
Name: 34, dtype: object

>  <hbond:ASP:39>  (36) 
hbond:ASP:39    NaN
hbond:ASP:39     -1
Name: 34, dtype: object

>  <hydroph_interaction:ASP:39>  (36) 
hydroph_interaction:ASP:39    NaN
hydroph_interaction:ASP:39     -1
Name: 34, dtype: object

>  <hydroph_interaction:LEU:40>  (36) 
hydroph_interaction:LEU:40    NaN
hydroph_interaction:LEU:40     -1
Name: 34, dtype: object

>  <hydroph_interaction:TYR:63>  (36) 
hydroph_interaction:TYR:63    NaN
hydroph_interaction:TYR:63     -1
Name: 34, dtype: object

>  <hbond:TYR:63>  (36) 
hbond:TYR:63    NaN
hbond:TYR:63     -1
Name: 34, dtype: object

>  <pistack:TYR:63>  (36) 
pistack:TYR:63    NaN
pistack:TYR:63     -1
Name: 34, dtype: object

>  <pication:TYR:63>  (36) 
pication:TYR:63    NaN
pication:TYR:63     -1
Name: 34, dtype: object

>  <halogenbond:TYR:64>  (36) 
halogenbond:TYR:64    NaN
halogenbond:TYR:64     -1
Name: 34, dtype: object

>  <hbond:TYR:64>  (36) 
hbond:TYR:64    NaN
hbond:TYR:64     -1
Name: 34, dtype: object

>  <hydroph_interaction:TYR:64>  (36) 
hydroph_interaction:TYR:64    NaN
hydroph_interaction:TYR:64     -1
Name: 34, dtype: object

>  <halogenbond:CYS:65>  (36) 
halogenbond:CYS:65    NaN
halogenbond:CYS:65     -1
Name: 34, dtype: object

>  <hbond:CYS:65>  (36) 
hbond:CYS:65    NaN
hbond:CYS:65     -1
Name: 34, dtype: object

>  <hbond:SER:66>  (36) 
hbond:SER:66    NaN
hbond:SER:66     -1
Name: 34, dtype: object

>  <halogenbond:SER:66>  (36) 
halogenbond:SER:66    NaN
halogenbond:SER:66     -1
Name: 34, dtype: object

>  <hbond:SER:67>  (36) 
hbond:SER:67    NaN
hbond:SER:67     -1
Name: 34, dtype: object

>  <halogenbond:SER:67>  (36) 
halogenbond:SER:67    NaN
halogenbond:SER:67     -1
Name: 34, dtype: object

>  <hbond:ARG:68>  (36) 
hbond:ARG:68    NaN
hbond:ARG:68     -1
Name: 34, dtype: object

>  <saltbridge:ARG:68>  (36) 
saltbridge:ARG:68    NaN
saltbridge:ARG:68     -1
Name: 34, dtype: object

>  <hydroph_interaction:ARG:68>  (36) 
hydroph_interaction:ARG:68    NaN
hydroph_interaction:ARG:68     -1
Name: 34, dtype: object

>  <pication:ARG:68>  (36) 
pication:ARG:68    NaN
pication:ARG:68     -1
Name: 34, dtype: object

>  <hydroph_interaction:TYR:72>  (36) 
hydroph_interaction:TYR:72    NaN
hydroph_interaction:TYR:72     -1
Name: 34, dtype: object

>  <hydroph_interaction:VAL:74>  (36) 
hydroph_interaction:VAL:74    NaN
hydroph_interaction:VAL:74     -1
Name: 34, dtype: object

>  <hydroph_interaction:PHE:76>  (36) 
hydroph_interaction:PHE:76    NaN
hydroph_interaction:PHE:76     -1
Name: 34, dtype: object

>  <hbond:SER:77>  (36) 
hbond:SER:77    NaN
hbond:SER:77     -1
Name: 34, dtype: object

>  <hbond:SER:80>  (36) 
hbond:SER:80    NaN
hbond:SER:80     -1
Name: 34, dtype: object

>  <hbond:LEU:81>  (36) 
hbond:LEU:81    NaN
hbond:LEU:81     -1
Name: 34, dtype: object

>  <halogenbond:LEU:81>  (36) 
halogenbond:LEU:81    NaN
halogenbond:LEU:81     -1
Name: 34, dtype: object

>  <hydroph_interaction:LEU:81>  (36) 
hydroph_interaction:LEU:81    NaN
hydroph_interaction:LEU:81     -1
Name: 34, dtype: object

>  <hydroph_interaction:ILE:82>  (36) 
hydroph_interaction:ILE:82    NaN
hydroph_interaction:ILE:82     -1
Name: 34, dtype: object

>  <halogenbond:ILE:82>  (36) 
halogenbond:ILE:82    NaN
halogenbond:ILE:82     -1
Name: 34, dtype: object

>  <hbond:ILE:82>  (36) 
hbond:ILE:82    NaN
hbond:ILE:82     -1
Name: 34, dtype: object

>  <hbond:PHE:83>  (36) 
hbond:PHE:83    NaN
hbond:PHE:83     -1
Name: 34, dtype: object

>  <hydroph_interaction:PHE:83>  (36) 
hydroph_interaction:PHE:83    NaN
hydroph_interaction:PHE:83     -1
Name: 34, dtype: object

>  <halogenbond:PHE:83>  (36) 
halogenbond:PHE:83    NaN
halogenbond:PHE:83     -1
Name: 34, dtype: object

>  <pistack:PHE:83>  (36) 
pistack:PHE:83    NaN
pistack:PHE:83     -1
Name: 34, dtype: object

>  <pication:PHE:83>  (36) 
pication:PHE:83    NaN
pication:PHE:83     -1
Name: 34, dtype: object

>  <hydroph_interaction:VAL:84>  (36) 
hydroph_interaction:VAL:84    0.0
hydroph_interaction:VAL:84      0
Name: 34, dtype: object

>  <halogenbond:VAL:84>  (36) 
halogenbond:VAL:84    NaN
halogenbond:VAL:84     -1
Name: 34, dtype: object

>  <hbond:VAL:84>  (36) 
hbond:VAL:84    NaN
hbond:VAL:84     -1
Name: 34, dtype: object

>  <hydroph_interaction:GLU:85>  (36) 
hydroph_interaction:GLU:85    NaN
hydroph_interaction:GLU:85     -1
Name: 34, dtype: object

>  <hbond:GLU:85>  (36) 
hbond:GLU:85    NaN
hbond:GLU:85     -1
Name: 34, dtype: object

>  <halogenbond:GLU:85>  (36) 
halogenbond:GLU:85    NaN
halogenbond:GLU:85     -1
Name: 34, dtype: object

>  <saltbridge:GLU:85>  (36) 
saltbridge:GLU:85    NaN
saltbridge:GLU:85     -1
Name: 34, dtype: object

>  <halogenbond:ALA:86>  (36) 
halogenbond:ALA:86    0.0
halogenbond:ALA:86      0
Name: 34, dtype: object

>  <hbond:ALA:86>  (36) 
hbond:ALA:86    NaN
hbond:ALA:86     -1
Name: 34, dtype: object

>  <hydroph_interaction:ALA:86>  (36) 
hydroph_interaction:ALA:86    NaN
hydroph_interaction:ALA:86     -1
Name: 34, dtype: object

>  <hbond:SER:87>  (36) 
hbond:SER:87    0
hbond:SER:87    0
Name: 34, dtype: object

>  <halogenbond:SER:87>  (36) 
halogenbond:SER:87    NaN
halogenbond:SER:87     -1
Name: 34, dtype: object

>  <hbond:GLU:88>  (36) 
hbond:GLU:88    0.0
hbond:GLU:88      0
Name: 34, dtype: object

>  <hydroph_interaction:GLU:88>  (36) 
hydroph_interaction:GLU:88    0.0
hydroph_interaction:GLU:88      0
Name: 34, dtype: object

>  <halogenbond:GLU:88>  (36) 
halogenbond:GLU:88    NaN
halogenbond:GLU:88     -1
Name: 34, dtype: object

>  <saltbridge:GLU:88>  (36) 
saltbridge:GLU:88    NaN
saltbridge:GLU:88     -1
Name: 34, dtype: object

>  <hydroph_interaction:TYR:89>  (36) 
hydroph_interaction:TYR:89    0.0
hydroph_interaction:TYR:89      0
Name: 34, dtype: object

>  <pistack:TYR:89>  (36) 
pistack:TYR:89    NaN
pistack:TYR:89     -1
Name: 34, dtype: object

>  <hbond:TYR:89>  (36) 
hbond:TYR:89    NaN
hbond:TYR:89     -1
Name: 34, dtype: object

>  <halogenbond:TYR:89>  (36) 
halogenbond:TYR:89    NaN
halogenbond:TYR:89     -1
Name: 34, dtype: object

>  <hydroph_interaction:TYR:90>  (36) 
hydroph_interaction:TYR:90    1.0
hydroph_interaction:TYR:90      1
Name: 34, dtype: object

>  <hbond:TYR:90>  (36) 
hbond:TYR:90    0.0
hbond:TYR:90      0
Name: 34, dtype: object

>  <pistack:TYR:90>  (36) 
pistack:TYR:90    NaN
pistack:TYR:90     -1
Name: 34, dtype: object

>  <halogenbond:TYR:90>  (36) 
halogenbond:TYR:90    NaN
halogenbond:TYR:90     -1
Name: 34, dtype: object

>  <pication:TYR:90>  (36) 
pication:TYR:90    NaN
pication:TYR:90     -1
Name: 34, dtype: object

>  <hbond:PRO:91>  (36) 
hbond:PRO:91    NaN
hbond:PRO:91     -1
Name: 34, dtype: object

>  <hydroph_interaction:PRO:91>  (36) 
hydroph_interaction:PRO:91    NaN
hydroph_interaction:PRO:91     -1
Name: 34, dtype: object

>  <halogenbond:PRO:91>  (36) 
halogenbond:PRO:91    NaN
halogenbond:PRO:91     -1
Name: 34, dtype: object

>  <hbond:ALA:92>  (36) 
hbond:ALA:92    NaN
hbond:ALA:92     -1
Name: 34, dtype: object

>  <hydroph_interaction:ALA:92>  (36) 
hydroph_interaction:ALA:92    NaN
hydroph_interaction:ALA:92     -1
Name: 34, dtype: object

>  <saltbridge:ARG:93>  (36) 
saltbridge:ARG:93    NaN
saltbridge:ARG:93     -1
Name: 34, dtype: object

>  <hbond:ARG:93>  (36) 
hbond:ARG:93    NaN
hbond:ARG:93     -1
Name: 34, dtype: object

>  <hydroph_interaction:ARG:93>  (36) 
hydroph_interaction:ARG:93    NaN
hydroph_interaction:ARG:93     -1
Name: 34, dtype: object

>  <halogenbond:ARG:93>  (36) 
halogenbond:ARG:93    NaN
halogenbond:ARG:93     -1
Name: 34, dtype: object

>  <pication:ARG:93>  (36) 
pication:ARG:93    NaN
pication:ARG:93     -1
Name: 34, dtype: object

>  <hydroph_interaction:TYR:94>  (36) 
hydroph_interaction:TYR:94    NaN
hydroph_interaction:TYR:94     -1
Name: 34, dtype: object

>  <pistack:TYR:94>  (36) 
pistack:TYR:94    NaN
pistack:TYR:94     -1
Name: 34, dtype: object

>  <hbond:TYR:94>  (36) 
hbond:TYR:94    NaN
hbond:TYR:94     -1
Name: 34, dtype: object

>  <hbond:GLN:95>  (36) 
hbond:GLN:95    NaN
hbond:GLN:95     -1
Name: 34, dtype: object

>  <hydroph_interaction:GLN:95>  (36) 
hydroph_interaction:GLN:95    NaN
hydroph_interaction:GLN:95     -1
Name: 34, dtype: object

>  <halogenbond:GLN:95>  (36) 
halogenbond:GLN:95    NaN
halogenbond:GLN:95     -1
Name: 34, dtype: object

>  <hbond:SER:96>  (36) 
hbond:SER:96    NaN
hbond:SER:96     -1
Name: 34, dtype: object

>  <halogenbond:HIS:97>  (36) 
halogenbond:HIS:97    NaN
halogenbond:HIS:97     -1
Name: 34, dtype: object

>  <hydroph_interaction:LEU:98>  (36) 
hydroph_interaction:LEU:98    NaN
hydroph_interaction:LEU:98     -1
Name: 34, dtype: object

>  <hbond:LEU:98>  (36) 
hbond:LEU:98    NaN
hbond:LEU:98     -1
Name: 34, dtype: object

>  <halogenbond:LEU:98>  (36) 
halogenbond:LEU:98    NaN
halogenbond:LEU:98     -1
Name: 34, dtype: object

>  <hbond:MET:99>  (36) 
hbond:MET:99    NaN
hbond:MET:99     -1
Name: 34, dtype: object

>  <hydroph_interaction:MET:99>  (36) 
hydroph_interaction:MET:99    NaN
hydroph_interaction:MET:99     -1
Name: 34, dtype: object

>  <halogenbond:MET:99>  (36) 
halogenbond:MET:99    NaN
halogenbond:MET:99     -1
Name: 34, dtype: object

>  <hydroph_interaction:LEU:100>  (36) 
hydroph_interaction:LEU:100    NaN
hydroph_interaction:LEU:100     -1
Name: 34, dtype: object

>  <hbond:LEU:100>  (36) 
hbond:LEU:100    NaN
hbond:LEU:100     -1
Name: 34, dtype: object

>  <hbond:ALA:101>  (36) 
hbond:ALA:101    NaN
hbond:ALA:101     -1
Name: 34, dtype: object

>  <hydroph_interaction:ALA:101>  (36) 
hydroph_interaction:ALA:101    NaN
hydroph_interaction:ALA:101     -1
Name: 34, dtype: object

>  <hydroph_interaction:VAL:102>  (36) 
hydroph_interaction:VAL:102    NaN
hydroph_interaction:VAL:102     -1
Name: 34, dtype: object

>  <hbond:VAL:102>  (36) 
hbond:VAL:102    NaN
hbond:VAL:102     -1
Name: 34, dtype: object

>  <hbond:GLY:103>  (36) 
hbond:GLY:103    NaN
hbond:GLY:103     -1
Name: 34, dtype: object

>  <halogenbond:GLY:103>  (36) 
halogenbond:GLY:103    NaN
halogenbond:GLY:103     -1
Name: 34, dtype: object

>  <hbond:HIS:104>  (36) 
hbond:HIS:104    NaN
hbond:HIS:104     -1
Name: 34, dtype: object

>  <saltbridge:HIS:104>  (36) 
saltbridge:HIS:104    NaN
saltbridge:HIS:104     -1
Name: 34, dtype: object

>  <pication:HIS:104>  (36) 
pication:HIS:104    NaN
pication:HIS:104     -1
Name: 34, dtype: object

>  <halogenbond:HIS:104>  (36) 
halogenbond:HIS:104    NaN
halogenbond:HIS:104     -1
Name: 34, dtype: object

>  <hydroph_interaction:HIS:104>  (36) 
hydroph_interaction:HIS:104    NaN
hydroph_interaction:HIS:104     -1
Name: 34, dtype: object

>  <pistack:HIS:104>  (36) 
pistack:HIS:104    NaN
pistack:HIS:104     -1
Name: 34, dtype: object

>  <halogenbond:SER:105>  (36) 
halogenbond:SER:105    0.0
halogenbond:SER:105      0
Name: 34, dtype: object

>  <hbond:SER:105>  (36) 
hbond:SER:105    1.0
hbond:SER:105      1
Name: 34, dtype: object

>  <hbond:GLU:106>  (36) 
hbond:GLU:106    0.0
hbond:GLU:106      0
Name: 34, dtype: object

>  <hydroph_interaction:GLU:106>  (36) 
hydroph_interaction:GLU:106    NaN
hydroph_interaction:GLU:106     -1
Name: 34, dtype: object

>  <saltbridge:GLU:106>  (36) 
saltbridge:GLU:106    NaN
saltbridge:GLU:106     -1
Name: 34, dtype: object

>  <halogenbond:GLU:106>  (36) 
halogenbond:GLU:106    NaN
halogenbond:GLU:106     -1
Name: 34, dtype: object

>  <hydroph_interaction:PRO:107>  (36) 
hydroph_interaction:PRO:107    2
hydroph_interaction:PRO:107    2
Name: 34, dtype: object

>  <hbond:PRO:107>  (36) 
hbond:PRO:107    0.0
hbond:PRO:107      0
Name: 34, dtype: object

>  <halogenbond:PRO:107>  (36) 
halogenbond:PRO:107    NaN
halogenbond:PRO:107     -1
Name: 34, dtype: object

>  <hbond:GLY:108>  (36) 
hbond:GLY:108    NaN
hbond:GLY:108     -1
Name: 34, dtype: object

>  <halogenbond:GLY:108>  (36) 
halogenbond:GLY:108    NaN
halogenbond:GLY:108     -1
Name: 34, dtype: object

>  <hbond:ASP:109>  (36) 
hbond:ASP:109    0.0
hbond:ASP:109      0
Name: 34, dtype: object

>  <hydroph_interaction:ASP:109>  (36) 
hydroph_interaction:ASP:109    0.0
hydroph_interaction:ASP:109      0
Name: 34, dtype: object

>  <saltbridge:ASP:109>  (36) 
saltbridge:ASP:109    NaN
saltbridge:ASP:109     -1
Name: 34, dtype: object

>  <halogenbond:CYS:110>  (36) 
halogenbond:CYS:110    0.0
halogenbond:CYS:110      0
Name: 34, dtype: object

>  <hbond:CYS:110>  (36) 
hbond:CYS:110    0.0
hbond:CYS:110      0
Name: 34, dtype: object

>  <hbond:GLY:111>  (36) 
hbond:GLY:111    NaN
hbond:GLY:111     -1
Name: 34, dtype: object

>  <hbond:GLY:112>  (36) 
hbond:GLY:112    NaN
hbond:GLY:112     -1
Name: 34, dtype: object

>  <hbond:ILE:113>  (36) 
hbond:ILE:113    NaN
hbond:ILE:113     -1
Name: 34, dtype: object

>  <hydroph_interaction:LEU:114>  (36) 
hydroph_interaction:LEU:114    NaN
hydroph_interaction:LEU:114     -1
Name: 34, dtype: object

>  <hbond:LEU:114>  (36) 
hbond:LEU:114    NaN
hbond:LEU:114     -1
Name: 34, dtype: object

>  <hydroph_interaction:ILE:123>  (36) 
hydroph_interaction:ILE:123    NaN
hydroph_interaction:ILE:123     -1
Name: 34, dtype: object

>  <hbond:ILE:123>  (36) 
hbond:ILE:123    NaN
hbond:ILE:123     -1
Name: 34, dtype: object

>  <hydroph_interaction:VAL:124>  (36) 
hydroph_interaction:VAL:124    1.0
hydroph_interaction:VAL:124      1
Name: 34, dtype: object

>  <hbond:VAL:124>  (36) 
hbond:VAL:124    0.0
hbond:VAL:124      0
Name: 34, dtype: object

>  <halogenbond:VAL:124>  (36) 
halogenbond:VAL:124    NaN
halogenbond:VAL:124     -1
Name: 34, dtype: object

>  <hbond:SER:125>  (36) 
hbond:SER:125    0
hbond:SER:125    0
Name: 34, dtype: object

>  <halogenbond:SER:125>  (36) 
halogenbond:SER:125    0.0
halogenbond:SER:125      0
Name: 34, dtype: object

>  <hydroph_interaction:THR:126>  (36) 
hydroph_interaction:THR:126    0.0
hydroph_interaction:THR:126      0
Name: 34, dtype: object

>  <hbond:THR:126>  (36) 
hbond:THR:126    0.0
hbond:THR:126      0
Name: 34, dtype: object

>  <halogenbond:THR:126>  (36) 
halogenbond:THR:126    NaN
halogenbond:THR:126     -1
Name: 34, dtype: object

>  <hbond:GLY:127>  (36) 
hbond:GLY:127    0
hbond:GLY:127    0
Name: 34, dtype: object

>  <halogenbond:GLY:127>  (36) 
halogenbond:GLY:127    NaN
halogenbond:GLY:127     -1
Name: 34, dtype: object

>  <hydroph_interaction:GLY:127>  (36) 
hydroph_interaction:GLY:127    NaN
hydroph_interaction:GLY:127     -1
Name: 34, dtype: object

>  <hbond:GLY:128>  (36) 
hbond:GLY:128    NaN
hbond:GLY:128     -1
Name: 34, dtype: object

>  <halogenbond:GLY:128>  (36) 
halogenbond:GLY:128    NaN
halogenbond:GLY:128     -1
Name: 34, dtype: object

>  <hydroph_interaction:GLY:128>  (36) 
hydroph_interaction:GLY:128    NaN
hydroph_interaction:GLY:128     -1
Name: 34, dtype: object

>  <hbond:ASN:129>  (36) 
hbond:ASN:129    NaN
hbond:ASN:129     -1
Name: 34, dtype: object

>  <hydroph_interaction:ASN:129>  (36) 
hydroph_interaction:ASN:129    NaN
hydroph_interaction:ASN:129     -1
Name: 34, dtype: object

>  <halogenbond:ASN:129>  (36) 
halogenbond:ASN:129    NaN
halogenbond:ASN:129     -1
Name: 34, dtype: object

>  <hbond:GLY:130>  (36) 
hbond:GLY:130    NaN
hbond:GLY:130     -1
Name: 34, dtype: object

>  <hbond:LEU:131>  (36) 
hbond:LEU:131    NaN
hbond:LEU:131     -1
Name: 34, dtype: object

>  <hydroph_interaction:LEU:131>  (36) 
hydroph_interaction:LEU:131    NaN
hydroph_interaction:LEU:131     -1
Name: 34, dtype: object

>  <halogenbond:LEU:131>  (36) 
halogenbond:LEU:131    NaN
halogenbond:LEU:131     -1
Name: 34, dtype: object

>  <hydroph_interaction:VAL:132>  (36) 
hydroph_interaction:VAL:132    NaN
hydroph_interaction:VAL:132     -1
Name: 34, dtype: object

>  <hbond:VAL:132>  (36) 
hbond:VAL:132    NaN
hbond:VAL:132     -1
Name: 34, dtype: object

>  <hbond:GLY:133>  (36) 
hbond:GLY:133    NaN
hbond:GLY:133     -1
Name: 34, dtype: object

>  <halogenbond:GLY:133>  (36) 
halogenbond:GLY:133    NaN
halogenbond:GLY:133     -1
Name: 34, dtype: object

>  <hydroph_interaction:PHE:134>  (36) 
hydroph_interaction:PHE:134    NaN
hydroph_interaction:PHE:134     -1
Name: 34, dtype: object

>  <hbond:PHE:134>  (36) 
hbond:PHE:134    NaN
hbond:PHE:134     -1
Name: 34, dtype: object

>  <pistack:PHE:134>  (36) 
pistack:PHE:134    NaN
pistack:PHE:134     -1
Name: 34, dtype: object

>  <pication:PHE:134>  (36) 
pication:PHE:134    NaN
pication:PHE:134     -1
Name: 34, dtype: object

>  <halogenbond:PHE:134>  (36) 
halogenbond:PHE:134    NaN
halogenbond:PHE:134     -1
Name: 34, dtype: object

>  <hydroph_interaction:ALA:135>  (36) 
hydroph_interaction:ALA:135    NaN
hydroph_interaction:ALA:135     -1
Name: 34, dtype: object

>  <hbond:ALA:135>  (36) 
hbond:ALA:135    NaN
hbond:ALA:135     -1
Name: 34, dtype: object

$$$$
Z1592908376
     RDKit          3D

 21 22  0  0  0  0  0  0  0  0999 V2000
   28.7431   13.8641    5.5053 C   0  0  0  0  0  0  0  0  0  0  0  0
   28.1853   13.4354    6.8612 C   0  0  1  0  0  0  0  0  0  0  0  0
   29.2525   12.6642    7.6631 C   0  0  0  0  0  0  0  0  0  0  0  0
   30.7209   12.9037    7.3173 C   0  0  0  0  0  0  0  0  0  0  0  0
   31.3638   11.5938    7.0766 C   0  0  0  0  0  0  0  0  0  0  0  0
   32.3895   11.4541    6.1472 C   0  0  0  0  0  0  0  0  0  0  0  0
   32.9547   10.2132    5.9422 C   0  0  0  0  0  0  0  0  0  0  0  0
   32.4889    9.1283    6.6654 C   0  0  0  0  0  0  0  0  0  0  0  0
   31.4717    9.2558    7.5961 C   0  0  0  0  0  0  0  0  0  0  0  0
   30.9094   10.4950    7.8035 C   0  0  0  0  0  0  0  0  0  0  0  0
   27.7810   14.6281    7.7211 C   0  0  0  0  0  0  0  0  0  0  0  0
   28.3887   14.7472    9.0288 N   0  0  0  0  0  0  0  0  0  0  0  0
   27.9230   15.8932    9.7443 C   0  0  0  0  0  0  0  0  0  0  0  0
   28.1253   15.6839   11.2307 C   0  0  0  0  0  0  0  0  0  0  0  0
   29.4940   15.9380   11.8416 C   0  0  0  0  0  0  0  0  0  0  0  0
   30.6173   16.0654   10.9194 N   0  0  0  0  0  0  0  0  0  0  0  0
   31.6420   16.9480   11.2147 C   0  0  0  0  0  0  0  0  0  0  0  0
   31.6638   17.4653   12.4632 N   0  0  0  0  0  0  0  0  0  0  0  0
   32.5106   17.2901   10.4246 O   0  0  0  0  0  0  0  0  0  0  0  0
   30.7412   14.9446    9.9947 C   0  0  0  0  0  0  0  0  0  0  0  0
   29.7779   15.0202    8.8124 C   0  0  0  0  0  0  0  0  0  0  0  0
  2  1  1  6
  2  3  1  0
  3  4  1  0
  4  5  1  0
  5  6  2  0
  6  7  1  0
  7  8  2  0
  8  9  1  0
  9 10  2  0
  2 11  1  0
 11 12  1  0
 12 13  1  0
 13 14  1  0
 14 15  1  0
 15 16  1  0
 16 17  1  0
 17 18  1  0
 17 19  2  0
 16 20  1  0
 20 21  1  0
 10  5  1  0
 21 12  1  0
A    1
 C1 
A    2
 C2 
A    3
 C3 
A    4
 C4 
A    5
 C5 
A    6
 C6 
A    7
 C7 
A    8
 C8 
A    9
 C9 
A   10
 C10
A   11
 C11
A   12
 N1 
A   13
 C12
A   14
 C13
A   15
 C14
A   16
 N2 
A   17
 C15
A   18
 N3 
A   19
 O1 
A   20
 C16
A   21
 C17
M  END
>  <ref_pdb>  (37) 
Ax0310a

>  <ref_mols>  (37) 
Ax0528a,Ax0554a

>  <original SMILES>  (37) 
CC(CCc1ccccc1)CN1CCCN(C(N)=O)CC1

>  <rationale>  (37) 
info halogenbond:C110+G127+A86+E85+Q95+E106+E88+T126+P107+H104+Y64+C65+S87+N129+F83+R93+L131+I82+G128+P91+N19+H21+V84+G133+Y90+Y89+H97+L81+F134+L98+R20+G103+S66+S67+S7+G108+R38+V124+M99+S36; hbond:Q95+G108+G103+G130+L131+H104+R68+V124+P91+F83+S67+S7+S66+G112+V132+S77+A135+Y63+A92+A101+M99+F134+L100+I82+Y64+S36+L98+V84+L81+Y94+S80+R38+S37+V102+G8+I123+G111+I113+L114+C65+L22+S96; hydroph_interaction:Y90+P107+N129+D39+L40+I123+A135+I82+L100+L98+L131+F83+F134+H104+A86+V74+P91+A101+F76+M99+L114+A92+Y94+R68+Y72+Y64+V18+V102+W28+G127+G128+L81; pication:H104+R93+Y63+F134+Y90+R68+F83+R20; pistack:H21+H104+F134+Y63+F83+Y94; saltbridge:D39+R93+H104+E106+D109+E88+R68+R20; 

>  <intxn_cluster>  (37) 
-1

>  <intxn_cluster_rank>  (37) 
-1

>  <N_interactions>  (37) 
6

>  <∆∆G>  (37) 
-10.161446

>  <$/mg>  (37) 
163.0

>  <comRMSD>  (37) 
0.847363

>  <N_rotatable_bonds>  (37) 
6

>  <deep_P1_sidechain>  (37) 
nan

>  <farthest_distance_to_substrate>  (37) 
2.620618

>  <hbond:SER:7>  (37) 
hbond:SER:7    NaN
hbond:SER:7     -1
Name: 35, dtype: object

>  <halogenbond:SER:7>  (37) 
halogenbond:SER:7    NaN
halogenbond:SER:7     -1
Name: 35, dtype: object

>  <hbond:GLY:8>  (37) 
hbond:GLY:8    NaN
hbond:GLY:8     -1
Name: 35, dtype: object

>  <hydroph_interaction:VAL:18>  (37) 
hydroph_interaction:VAL:18    NaN
hydroph_interaction:VAL:18     -1
Name: 35, dtype: object

>  <hbond:ASN:19>  (37) 
hbond:ASN:19    0.0
hbond:ASN:19      0
Name: 35, dtype: object

>  <hydroph_interaction:ASN:19>  (37) 
hydroph_interaction:ASN:19    0.0
hydroph_interaction:ASN:19      0
Name: 35, dtype: object

>  <halogenbond:ASN:19>  (37) 
halogenbond:ASN:19    NaN
halogenbond:ASN:19     -1
Name: 35, dtype: object

>  <hbond:ARG:20>  (37) 
hbond:ARG:20    0.0
hbond:ARG:20      0
Name: 35, dtype: object

>  <hydroph_interaction:ARG:20>  (37) 
hydroph_interaction:ARG:20    0.0
hydroph_interaction:ARG:20      0
Name: 35, dtype: object

>  <saltbridge:ARG:20>  (37) 
saltbridge:ARG:20    NaN
saltbridge:ARG:20     -1
Name: 35, dtype: object

>  <halogenbond:ARG:20>  (37) 
halogenbond:ARG:20    NaN
halogenbond:ARG:20     -1
Name: 35, dtype: object

>  <pication:ARG:20>  (37) 
pication:ARG:20    NaN
pication:ARG:20     -1
Name: 35, dtype: object

>  <hbond:HIS:21>  (37) 
hbond:HIS:21    0.0
hbond:HIS:21      0
Name: 35, dtype: object

>  <hydroph_interaction:HIS:21>  (37) 
hydroph_interaction:HIS:21    0.0
hydroph_interaction:HIS:21      0
Name: 35, dtype: object

>  <pistack:HIS:21>  (37) 
pistack:HIS:21    NaN
pistack:HIS:21     -1
Name: 35, dtype: object

>  <pication:HIS:21>  (37) 
pication:HIS:21    0.0
pication:HIS:21      0
Name: 35, dtype: object

>  <saltbridge:HIS:21>  (37) 
saltbridge:HIS:21    0.0
saltbridge:HIS:21      0
Name: 35, dtype: object

>  <halogenbond:HIS:21>  (37) 
halogenbond:HIS:21    NaN
halogenbond:HIS:21     -1
Name: 35, dtype: object

>  <hydroph_interaction:LEU:22>  (37) 
hydroph_interaction:LEU:22    0.0
hydroph_interaction:LEU:22      0
Name: 35, dtype: object

>  <hbond:LEU:22>  (37) 
hbond:LEU:22    NaN
hbond:LEU:22     -1
Name: 35, dtype: object

>  <hydroph_interaction:TRP:28>  (37) 
hydroph_interaction:TRP:28    NaN
hydroph_interaction:TRP:28     -1
Name: 35, dtype: object

>  <hbond:SER:36>  (37) 
hbond:SER:36    NaN
hbond:SER:36     -1
Name: 35, dtype: object

>  <halogenbond:SER:36>  (37) 
halogenbond:SER:36    NaN
halogenbond:SER:36     -1
Name: 35, dtype: object

>  <hbond:SER:37>  (37) 
hbond:SER:37    NaN
hbond:SER:37     -1
Name: 35, dtype: object

>  <hbond:ARG:38>  (37) 
hbond:ARG:38    NaN
hbond:ARG:38     -1
Name: 35, dtype: object

>  <halogenbond:ARG:38>  (37) 
halogenbond:ARG:38    NaN
halogenbond:ARG:38     -1
Name: 35, dtype: object

>  <saltbridge:ASP:39>  (37) 
saltbridge:ASP:39    1.0
saltbridge:ASP:39      1
Name: 35, dtype: object

>  <halogenbond:ASP:39>  (37) 
halogenbond:ASP:39    0.0
halogenbond:ASP:39      0
Name: 35, dtype: object

>  <hbond:ASP:39>  (37) 
hbond:ASP:39    0.0
hbond:ASP:39      0
Name: 35, dtype: object

>  <hydroph_interaction:ASP:39>  (37) 
hydroph_interaction:ASP:39    1.0
hydroph_interaction:ASP:39      1
Name: 35, dtype: object

>  <hydroph_interaction:LEU:40>  (37) 
hydroph_interaction:LEU:40    NaN
hydroph_interaction:LEU:40     -1
Name: 35, dtype: object

>  <hydroph_interaction:TYR:63>  (37) 
hydroph_interaction:TYR:63    0.0
hydroph_interaction:TYR:63      0
Name: 35, dtype: object

>  <hbond:TYR:63>  (37) 
hbond:TYR:63    NaN
hbond:TYR:63     -1
Name: 35, dtype: object

>  <pistack:TYR:63>  (37) 
pistack:TYR:63    NaN
pistack:TYR:63     -1
Name: 35, dtype: object

>  <pication:TYR:63>  (37) 
pication:TYR:63    NaN
pication:TYR:63     -1
Name: 35, dtype: object

>  <halogenbond:TYR:64>  (37) 
halogenbond:TYR:64    NaN
halogenbond:TYR:64     -1
Name: 35, dtype: object

>  <hbond:TYR:64>  (37) 
hbond:TYR:64    NaN
hbond:TYR:64     -1
Name: 35, dtype: object

>  <hydroph_interaction:TYR:64>  (37) 
hydroph_interaction:TYR:64    NaN
hydroph_interaction:TYR:64     -1
Name: 35, dtype: object

>  <halogenbond:CYS:65>  (37) 
halogenbond:CYS:65    NaN
halogenbond:CYS:65     -1
Name: 35, dtype: object

>  <hbond:CYS:65>  (37) 
hbond:CYS:65    NaN
hbond:CYS:65     -1
Name: 35, dtype: object

>  <hbond:SER:66>  (37) 
hbond:SER:66    NaN
hbond:SER:66     -1
Name: 35, dtype: object

>  <halogenbond:SER:66>  (37) 
halogenbond:SER:66    NaN
halogenbond:SER:66     -1
Name: 35, dtype: object

>  <hbond:SER:67>  (37) 
hbond:SER:67    NaN
hbond:SER:67     -1
Name: 35, dtype: object

>  <halogenbond:SER:67>  (37) 
halogenbond:SER:67    NaN
halogenbond:SER:67     -1
Name: 35, dtype: object

>  <hbond:ARG:68>  (37) 
hbond:ARG:68    NaN
hbond:ARG:68     -1
Name: 35, dtype: object

>  <saltbridge:ARG:68>  (37) 
saltbridge:ARG:68    NaN
saltbridge:ARG:68     -1
Name: 35, dtype: object

>  <hydroph_interaction:ARG:68>  (37) 
hydroph_interaction:ARG:68    NaN
hydroph_interaction:ARG:68     -1
Name: 35, dtype: object

>  <pication:ARG:68>  (37) 
pication:ARG:68    NaN
pication:ARG:68     -1
Name: 35, dtype: object

>  <hydroph_interaction:TYR:72>  (37) 
hydroph_interaction:TYR:72    NaN
hydroph_interaction:TYR:72     -1
Name: 35, dtype: object

>  <hydroph_interaction:VAL:74>  (37) 
hydroph_interaction:VAL:74    NaN
hydroph_interaction:VAL:74     -1
Name: 35, dtype: object

>  <hydroph_interaction:PHE:76>  (37) 
hydroph_interaction:PHE:76    NaN
hydroph_interaction:PHE:76     -1
Name: 35, dtype: object

>  <hbond:SER:77>  (37) 
hbond:SER:77    NaN
hbond:SER:77     -1
Name: 35, dtype: object

>  <hbond:SER:80>  (37) 
hbond:SER:80    NaN
hbond:SER:80     -1
Name: 35, dtype: object

>  <hbond:LEU:81>  (37) 
hbond:LEU:81    NaN
hbond:LEU:81     -1
Name: 35, dtype: object

>  <halogenbond:LEU:81>  (37) 
halogenbond:LEU:81    NaN
halogenbond:LEU:81     -1
Name: 35, dtype: object

>  <hydroph_interaction:LEU:81>  (37) 
hydroph_interaction:LEU:81    NaN
hydroph_interaction:LEU:81     -1
Name: 35, dtype: object

>  <hydroph_interaction:ILE:82>  (37) 
hydroph_interaction:ILE:82    NaN
hydroph_interaction:ILE:82     -1
Name: 35, dtype: object

>  <halogenbond:ILE:82>  (37) 
halogenbond:ILE:82    NaN
halogenbond:ILE:82     -1
Name: 35, dtype: object

>  <hbond:ILE:82>  (37) 
hbond:ILE:82    NaN
hbond:ILE:82     -1
Name: 35, dtype: object

>  <hbond:PHE:83>  (37) 
hbond:PHE:83    NaN
hbond:PHE:83     -1
Name: 35, dtype: object

>  <hydroph_interaction:PHE:83>  (37) 
hydroph_interaction:PHE:83    NaN
hydroph_interaction:PHE:83     -1
Name: 35, dtype: object

>  <halogenbond:PHE:83>  (37) 
halogenbond:PHE:83    NaN
halogenbond:PHE:83     -1
Name: 35, dtype: object

>  <pistack:PHE:83>  (37) 
pistack:PHE:83    NaN
pistack:PHE:83     -1
Name: 35, dtype: object

>  <pication:PHE:83>  (37) 
pication:PHE:83    NaN
pication:PHE:83     -1
Name: 35, dtype: object

>  <hydroph_interaction:VAL:84>  (37) 
hydroph_interaction:VAL:84    0.0
hydroph_interaction:VAL:84      0
Name: 35, dtype: object

>  <halogenbond:VAL:84>  (37) 
halogenbond:VAL:84    NaN
halogenbond:VAL:84     -1
Name: 35, dtype: object

>  <hbond:VAL:84>  (37) 
hbond:VAL:84    NaN
hbond:VAL:84     -1
Name: 35, dtype: object

>  <hydroph_interaction:GLU:85>  (37) 
hydroph_interaction:GLU:85    0.0
hydroph_interaction:GLU:85      0
Name: 35, dtype: object

>  <hbond:GLU:85>  (37) 
hbond:GLU:85    0.0
hbond:GLU:85      0
Name: 35, dtype: object

>  <halogenbond:GLU:85>  (37) 
halogenbond:GLU:85    NaN
halogenbond:GLU:85     -1
Name: 35, dtype: object

>  <saltbridge:GLU:85>  (37) 
saltbridge:GLU:85    0.0
saltbridge:GLU:85      0
Name: 35, dtype: object

>  <halogenbond:ALA:86>  (37) 
halogenbond:ALA:86    NaN
halogenbond:ALA:86     -1
Name: 35, dtype: object

>  <hbond:ALA:86>  (37) 
hbond:ALA:86    0.0
hbond:ALA:86      0
Name: 35, dtype: object

>  <hydroph_interaction:ALA:86>  (37) 
hydroph_interaction:ALA:86    NaN
hydroph_interaction:ALA:86     -1
Name: 35, dtype: object

>  <hbond:SER:87>  (37) 
hbond:SER:87    0
hbond:SER:87    0
Name: 35, dtype: object

>  <halogenbond:SER:87>  (37) 
halogenbond:SER:87    NaN
halogenbond:SER:87     -1
Name: 35, dtype: object

>  <hbond:GLU:88>  (37) 
hbond:GLU:88    0.0
hbond:GLU:88      0
Name: 35, dtype: object

>  <hydroph_interaction:GLU:88>  (37) 
hydroph_interaction:GLU:88    0.0
hydroph_interaction:GLU:88      0
Name: 35, dtype: object

>  <halogenbond:GLU:88>  (37) 
halogenbond:GLU:88    NaN
halogenbond:GLU:88     -1
Name: 35, dtype: object

>  <saltbridge:GLU:88>  (37) 
saltbridge:GLU:88    NaN
saltbridge:GLU:88     -1
Name: 35, dtype: object

>  <hydroph_interaction:TYR:89>  (37) 
hydroph_interaction:TYR:89    0.0
hydroph_interaction:TYR:89      0
Name: 35, dtype: object

>  <pistack:TYR:89>  (37) 
pistack:TYR:89    0.0
pistack:TYR:89      0
Name: 35, dtype: object

>  <hbond:TYR:89>  (37) 
hbond:TYR:89    0.0
hbond:TYR:89      0
Name: 35, dtype: object

>  <halogenbond:TYR:89>  (37) 
halogenbond:TYR:89    NaN
halogenbond:TYR:89     -1
Name: 35, dtype: object

>  <hydroph_interaction:TYR:90>  (37) 
hydroph_interaction:TYR:90    1.0
hydroph_interaction:TYR:90      1
Name: 35, dtype: object

>  <hbond:TYR:90>  (37) 
hbond:TYR:90    0.0
hbond:TYR:90      0
Name: 35, dtype: object

>  <pistack:TYR:90>  (37) 
pistack:TYR:90    0.0
pistack:TYR:90      0
Name: 35, dtype: object

>  <halogenbond:TYR:90>  (37) 
halogenbond:TYR:90    NaN
halogenbond:TYR:90     -1
Name: 35, dtype: object

>  <pication:TYR:90>  (37) 
pication:TYR:90    NaN
pication:TYR:90     -1
Name: 35, dtype: object

>  <hbond:PRO:91>  (37) 
hbond:PRO:91    NaN
hbond:PRO:91     -1
Name: 35, dtype: object

>  <hydroph_interaction:PRO:91>  (37) 
hydroph_interaction:PRO:91    NaN
hydroph_interaction:PRO:91     -1
Name: 35, dtype: object

>  <halogenbond:PRO:91>  (37) 
halogenbond:PRO:91    NaN
halogenbond:PRO:91     -1
Name: 35, dtype: object

>  <hbond:ALA:92>  (37) 
hbond:ALA:92    NaN
hbond:ALA:92     -1
Name: 35, dtype: object

>  <hydroph_interaction:ALA:92>  (37) 
hydroph_interaction:ALA:92    NaN
hydroph_interaction:ALA:92     -1
Name: 35, dtype: object

>  <saltbridge:ARG:93>  (37) 
saltbridge:ARG:93    NaN
saltbridge:ARG:93     -1
Name: 35, dtype: object

>  <hbond:ARG:93>  (37) 
hbond:ARG:93    0.0
hbond:ARG:93      0
Name: 35, dtype: object

>  <hydroph_interaction:ARG:93>  (37) 
hydroph_interaction:ARG:93    0.0
hydroph_interaction:ARG:93      0
Name: 35, dtype: object

>  <halogenbond:ARG:93>  (37) 
halogenbond:ARG:93    NaN
halogenbond:ARG:93     -1
Name: 35, dtype: object

>  <pication:ARG:93>  (37) 
pication:ARG:93    NaN
pication:ARG:93     -1
Name: 35, dtype: object

>  <hydroph_interaction:TYR:94>  (37) 
hydroph_interaction:TYR:94    NaN
hydroph_interaction:TYR:94     -1
Name: 35, dtype: object

>  <pistack:TYR:94>  (37) 
pistack:TYR:94    NaN
pistack:TYR:94     -1
Name: 35, dtype: object

>  <hbond:TYR:94>  (37) 
hbond:TYR:94    NaN
hbond:TYR:94     -1
Name: 35, dtype: object

>  <hbond:GLN:95>  (37) 
hbond:GLN:95    1.0
hbond:GLN:95      1
Name: 35, dtype: object

>  <hydroph_interaction:GLN:95>  (37) 
hydroph_interaction:GLN:95    0.0
hydroph_interaction:GLN:95      0
Name: 35, dtype: object

>  <halogenbond:GLN:95>  (37) 
halogenbond:GLN:95    NaN
halogenbond:GLN:95     -1
Name: 35, dtype: object

>  <hbond:SER:96>  (37) 
hbond:SER:96    NaN
hbond:SER:96     -1
Name: 35, dtype: object

>  <halogenbond:HIS:97>  (37) 
halogenbond:HIS:97    NaN
halogenbond:HIS:97     -1
Name: 35, dtype: object

>  <hydroph_interaction:LEU:98>  (37) 
hydroph_interaction:LEU:98    NaN
hydroph_interaction:LEU:98     -1
Name: 35, dtype: object

>  <hbond:LEU:98>  (37) 
hbond:LEU:98    NaN
hbond:LEU:98     -1
Name: 35, dtype: object

>  <halogenbond:LEU:98>  (37) 
halogenbond:LEU:98    NaN
halogenbond:LEU:98     -1
Name: 35, dtype: object

>  <hbond:MET:99>  (37) 
hbond:MET:99    NaN
hbond:MET:99     -1
Name: 35, dtype: object

>  <hydroph_interaction:MET:99>  (37) 
hydroph_interaction:MET:99    NaN
hydroph_interaction:MET:99     -1
Name: 35, dtype: object

>  <halogenbond:MET:99>  (37) 
halogenbond:MET:99    NaN
halogenbond:MET:99     -1
Name: 35, dtype: object

>  <hydroph_interaction:LEU:100>  (37) 
hydroph_interaction:LEU:100    NaN
hydroph_interaction:LEU:100     -1
Name: 35, dtype: object

>  <hbond:LEU:100>  (37) 
hbond:LEU:100    NaN
hbond:LEU:100     -1
Name: 35, dtype: object

>  <hbond:ALA:101>  (37) 
hbond:ALA:101    NaN
hbond:ALA:101     -1
Name: 35, dtype: object

>  <hydroph_interaction:ALA:101>  (37) 
hydroph_interaction:ALA:101    NaN
hydroph_interaction:ALA:101     -1
Name: 35, dtype: object

>  <hydroph_interaction:VAL:102>  (37) 
hydroph_interaction:VAL:102    NaN
hydroph_interaction:VAL:102     -1
Name: 35, dtype: object

>  <hbond:VAL:102>  (37) 
hbond:VAL:102    NaN
hbond:VAL:102     -1
Name: 35, dtype: object

>  <hbond:GLY:103>  (37) 
hbond:GLY:103    NaN
hbond:GLY:103     -1
Name: 35, dtype: object

>  <halogenbond:GLY:103>  (37) 
halogenbond:GLY:103    NaN
halogenbond:GLY:103     -1
Name: 35, dtype: object

>  <hbond:HIS:104>  (37) 
hbond:HIS:104    NaN
hbond:HIS:104     -1
Name: 35, dtype: object

>  <saltbridge:HIS:104>  (37) 
saltbridge:HIS:104    NaN
saltbridge:HIS:104     -1
Name: 35, dtype: object

>  <pication:HIS:104>  (37) 
pication:HIS:104    NaN
pication:HIS:104     -1
Name: 35, dtype: object

>  <halogenbond:HIS:104>  (37) 
halogenbond:HIS:104    NaN
halogenbond:HIS:104     -1
Name: 35, dtype: object

>  <hydroph_interaction:HIS:104>  (37) 
hydroph_interaction:HIS:104    NaN
hydroph_interaction:HIS:104     -1
Name: 35, dtype: object

>  <pistack:HIS:104>  (37) 
pistack:HIS:104    NaN
pistack:HIS:104     -1
Name: 35, dtype: object

>  <halogenbond:SER:105>  (37) 
halogenbond:SER:105    0.0
halogenbond:SER:105      0
Name: 35, dtype: object

>  <hbond:SER:105>  (37) 
hbond:SER:105    0.0
hbond:SER:105      0
Name: 35, dtype: object

>  <hbond:GLU:106>  (37) 
hbond:GLU:106    0.0
hbond:GLU:106      0
Name: 35, dtype: object

>  <hydroph_interaction:GLU:106>  (37) 
hydroph_interaction:GLU:106    0.0
hydroph_interaction:GLU:106      0
Name: 35, dtype: object

>  <saltbridge:GLU:106>  (37) 
saltbridge:GLU:106    NaN
saltbridge:GLU:106     -1
Name: 35, dtype: object

>  <halogenbond:GLU:106>  (37) 
halogenbond:GLU:106    NaN
halogenbond:GLU:106     -1
Name: 35, dtype: object

>  <hydroph_interaction:PRO:107>  (37) 
hydroph_interaction:PRO:107    2
hydroph_interaction:PRO:107    2
Name: 35, dtype: object

>  <hbond:PRO:107>  (37) 
hbond:PRO:107    0.0
hbond:PRO:107      0
Name: 35, dtype: object

>  <halogenbond:PRO:107>  (37) 
halogenbond:PRO:107    NaN
halogenbond:PRO:107     -1
Name: 35, dtype: object

>  <hbond:GLY:108>  (37) 
hbond:GLY:108    NaN
hbond:GLY:108     -1
Name: 35, dtype: object

>  <halogenbond:GLY:108>  (37) 
halogenbond:GLY:108    NaN
halogenbond:GLY:108     -1
Name: 35, dtype: object

>  <hbond:ASP:109>  (37) 
hbond:ASP:109    0.0
hbond:ASP:109      0
Name: 35, dtype: object

>  <hydroph_interaction:ASP:109>  (37) 
hydroph_interaction:ASP:109    0.0
hydroph_interaction:ASP:109      0
Name: 35, dtype: object

>  <saltbridge:ASP:109>  (37) 
saltbridge:ASP:109    NaN
saltbridge:ASP:109     -1
Name: 35, dtype: object

>  <halogenbond:CYS:110>  (37) 
halogenbond:CYS:110    NaN
halogenbond:CYS:110     -1
Name: 35, dtype: object

>  <hbond:CYS:110>  (37) 
hbond:CYS:110    0.0
hbond:CYS:110      0
Name: 35, dtype: object

>  <hbond:GLY:111>  (37) 
hbond:GLY:111    NaN
hbond:GLY:111     -1
Name: 35, dtype: object

>  <hbond:GLY:112>  (37) 
hbond:GLY:112    NaN
hbond:GLY:112     -1
Name: 35, dtype: object

>  <hbond:ILE:113>  (37) 
hbond:ILE:113    NaN
hbond:ILE:113     -1
Name: 35, dtype: object

>  <hydroph_interaction:LEU:114>  (37) 
hydroph_interaction:LEU:114    NaN
hydroph_interaction:LEU:114     -1
Name: 35, dtype: object

>  <hbond:LEU:114>  (37) 
hbond:LEU:114    NaN
hbond:LEU:114     -1
Name: 35, dtype: object

>  <hydroph_interaction:ILE:123>  (37) 
hydroph_interaction:ILE:123    NaN
hydroph_interaction:ILE:123     -1
Name: 35, dtype: object

>  <hbond:ILE:123>  (37) 
hbond:ILE:123    NaN
hbond:ILE:123     -1
Name: 35, dtype: object

>  <hydroph_interaction:VAL:124>  (37) 
hydroph_interaction:VAL:124    0.0
hydroph_interaction:VAL:124      0
Name: 35, dtype: object

>  <hbond:VAL:124>  (37) 
hbond:VAL:124    NaN
hbond:VAL:124     -1
Name: 35, dtype: object

>  <halogenbond:VAL:124>  (37) 
halogenbond:VAL:124    NaN
halogenbond:VAL:124     -1
Name: 35, dtype: object

>  <hbond:SER:125>  (37) 
hbond:SER:125    0
hbond:SER:125    0
Name: 35, dtype: object

>  <halogenbond:SER:125>  (37) 
halogenbond:SER:125    0.0
halogenbond:SER:125      0
Name: 35, dtype: object

>  <hydroph_interaction:THR:126>  (37) 
hydroph_interaction:THR:126    0.0
hydroph_interaction:THR:126      0
Name: 35, dtype: object

>  <hbond:THR:126>  (37) 
hbond:THR:126    0.0
hbond:THR:126      0
Name: 35, dtype: object

>  <halogenbond:THR:126>  (37) 
halogenbond:THR:126    NaN
halogenbond:THR:126     -1
Name: 35, dtype: object

>  <hbond:GLY:127>  (37) 
hbond:GLY:127    0
hbond:GLY:127    0
Name: 35, dtype: object

>  <halogenbond:GLY:127>  (37) 
halogenbond:GLY:127    NaN
halogenbond:GLY:127     -1
Name: 35, dtype: object

>  <hydroph_interaction:GLY:127>  (37) 
hydroph_interaction:GLY:127    NaN
hydroph_interaction:GLY:127     -1
Name: 35, dtype: object

>  <hbond:GLY:128>  (37) 
hbond:GLY:128    0.0
hbond:GLY:128      0
Name: 35, dtype: object

>  <halogenbond:GLY:128>  (37) 
halogenbond:GLY:128    NaN
halogenbond:GLY:128     -1
Name: 35, dtype: object

>  <hydroph_interaction:GLY:128>  (37) 
hydroph_interaction:GLY:128    NaN
hydroph_interaction:GLY:128     -1
Name: 35, dtype: object

>  <hbond:ASN:129>  (37) 
hbond:ASN:129    0.0
hbond:ASN:129      0
Name: 35, dtype: object

>  <hydroph_interaction:ASN:129>  (37) 
hydroph_interaction:ASN:129    NaN
hydroph_interaction:ASN:129     -1
Name: 35, dtype: object

>  <halogenbond:ASN:129>  (37) 
halogenbond:ASN:129    NaN
halogenbond:ASN:129     -1
Name: 35, dtype: object

>  <hbond:GLY:130>  (37) 
hbond:GLY:130    NaN
hbond:GLY:130     -1
Name: 35, dtype: object

>  <hbond:LEU:131>  (37) 
hbond:LEU:131    NaN
hbond:LEU:131     -1
Name: 35, dtype: object

>  <hydroph_interaction:LEU:131>  (37) 
hydroph_interaction:LEU:131    NaN
hydroph_interaction:LEU:131     -1
Name: 35, dtype: object

>  <halogenbond:LEU:131>  (37) 
halogenbond:LEU:131    NaN
halogenbond:LEU:131     -1
Name: 35, dtype: object

>  <hydroph_interaction:VAL:132>  (37) 
hydroph_interaction:VAL:132    0.0
hydroph_interaction:VAL:132      0
Name: 35, dtype: object

>  <hbond:VAL:132>  (37) 
hbond:VAL:132    NaN
hbond:VAL:132     -1
Name: 35, dtype: object

>  <hbond:GLY:133>  (37) 
hbond:GLY:133    0.0
hbond:GLY:133      0
Name: 35, dtype: object

>  <halogenbond:GLY:133>  (37) 
halogenbond:GLY:133    NaN
halogenbond:GLY:133     -1
Name: 35, dtype: object

>  <hydroph_interaction:PHE:134>  (37) 
hydroph_interaction:PHE:134    NaN
hydroph_interaction:PHE:134     -1
Name: 35, dtype: object

>  <hbond:PHE:134>  (37) 
hbond:PHE:134    NaN
hbond:PHE:134     -1
Name: 35, dtype: object

>  <pistack:PHE:134>  (37) 
pistack:PHE:134    NaN
pistack:PHE:134     -1
Name: 35, dtype: object

>  <pication:PHE:134>  (37) 
pication:PHE:134    NaN
pication:PHE:134     -1
Name: 35, dtype: object

>  <halogenbond:PHE:134>  (37) 
halogenbond:PHE:134    NaN
halogenbond:PHE:134     -1
Name: 35, dtype: object

>  <hydroph_interaction:ALA:135>  (37) 
hydroph_interaction:ALA:135    NaN
hydroph_interaction:ALA:135     -1
Name: 35, dtype: object

>  <hbond:ALA:135>  (37) 
hbond:ALA:135    NaN
hbond:ALA:135     -1
Name: 35, dtype: object

$$$$
Z1595825242
     RDKit          3D

 13 13  0  0  0  0  0  0  0  0999 V2000
   33.3650   13.4804    5.1874 C   0  0  0  0  0  0  0  0  0  0  0  0
   33.8399   11.7952    4.7186 S   0  0  0  0  0  0  0  0  0  0  0  0
   32.8094   10.9292    5.9315 C   0  0  0  0  0  0  0  0  0  0  0  0
   33.0553    9.5117    6.0603 C   0  0  0  0  0  0  0  0  0  0  0  0
   32.1856    8.7611    7.0805 C   0  0  0  0  0  0  0  0  0  0  0  0
   31.1626    9.5528    7.8511 C   0  0  0  0  0  0  0  0  0  0  0  0
   30.3201    8.8089    8.8433 C   0  0  0  0  0  0  0  0  0  0  0  0
   31.0494   10.9254    7.6071 C   0  0  0  0  0  0  0  0  0  0  0  0
   30.1192   11.7027    8.2750 N   0  0  0  0  0  0  0  0  0  0  0  0
   29.4533   12.7408    7.7163 C   0  0  0  0  0  0  0  0  0  0  0  0
   28.6055   13.2914    8.6211 N   0  0  0  0  0  0  0  0  0  0  0  0
   29.5478   13.1835    6.5790 O   0  0  0  0  0  0  0  0  0  0  0  0
   31.8539   11.5653    6.6803 C   0  0  0  0  0  0  0  0  0  0  0  0
  1  2  1  0
  2  3  1  0
  3  4  2  0
  4  5  1  0
  5  6  2  0
  6  7  1  0
  6  8  1  0
  8  9  1  0
  9 10  1  0
 10 11  1  0
 10 12  2  0
  8 13  2  0
 13  3  1  0
A    1
 C1 
A    2
 S1 
A    3
 C2 
A    4
 C3 
A    5
 C4 
A    6
 C5 
A    7
 C6 
A    8
 C7 
A    9
 N1 
A   10
 C8 
A   11
 N2 
A   12
 O1 
A   13
 C9 
M  END
>  <ref_pdb>  (38) 
Ax0310a

>  <ref_mols>  (38) 
Ax0310a,Ax0416a,Ax0416a

>  <original SMILES>  (38) 
CSc1ccc(C)c(NC(N)=O)c1

>  <rationale>  (38) 
info halogenbond:G127+D39+E85+Q95+E106+E88+T126+P107+H104+Y64+C65+S87+N129+F83+R93+L131+I82+G128+P91+N19+H21+V84+G133+Y90+Y89+H97+L81+F134+L98+R20+G103+S66+S67+S7+G108+R38+V124+M99+S36; hbond:S125+E85+G108+G103+G128+L131+N129+R68+V124+P91+F83+S67+S7+S66+G112+G133+V132+R20+Y89+S77+A135+Y63+A92+A101+M99+F134+L100+I82+Y64+S36+L98+V84+L81+Y94+S80+R38+S37+V102+G8+I123+G111+I113+L114+C65+L22+S96; hydroph_interaction:V84+V124+T126+P107+L22+E85+N129+N19+L40+I123+A135+Q95+I82+L100+L98+L131+F83+R93+V132+Y63+F134+R20+A86+V74+P91+A101+F76+M99+L114+A92+Y94+R68+Y72+Y64+V18+V102+W28+G127+G128+L81; pication:H104+R93+Y63+F134+Y90+R68+F83+R20; pistack:H21+Y89+Y90+H104+F134+Y63+F83+Y94; saltbridge:R93+H104+E106+D109+E85+R68+R20; 

>  <intxn_cluster>  (38) 
-1

>  <intxn_cluster_rank>  (38) 
-1

>  <N_interactions>  (38) 
4

>  <∆∆G>  (38) 
-9.756677

>  <$/mg>  (38) 
0.0

>  <comRMSD>  (38) 
0.828987

>  <N_rotatable_bonds>  (38) 
4

>  <deep_P1_sidechain>  (38) 
nan

>  <farthest_distance_to_substrate>  (38) 
2.453621

>  <hbond:SER:7>  (38) 
hbond:SER:7    NaN
hbond:SER:7     -1
Name: 36, dtype: object

>  <halogenbond:SER:7>  (38) 
halogenbond:SER:7    NaN
halogenbond:SER:7     -1
Name: 36, dtype: object

>  <hbond:GLY:8>  (38) 
hbond:GLY:8    NaN
hbond:GLY:8     -1
Name: 36, dtype: object

>  <hydroph_interaction:VAL:18>  (38) 
hydroph_interaction:VAL:18    NaN
hydroph_interaction:VAL:18     -1
Name: 36, dtype: object

>  <hbond:ASN:19>  (38) 
hbond:ASN:19    0.0
hbond:ASN:19      0
Name: 36, dtype: object

>  <hydroph_interaction:ASN:19>  (38) 
hydroph_interaction:ASN:19    NaN
hydroph_interaction:ASN:19     -1
Name: 36, dtype: object

>  <halogenbond:ASN:19>  (38) 
halogenbond:ASN:19    NaN
halogenbond:ASN:19     -1
Name: 36, dtype: object

>  <hbond:ARG:20>  (38) 
hbond:ARG:20    NaN
hbond:ARG:20     -1
Name: 36, dtype: object

>  <hydroph_interaction:ARG:20>  (38) 
hydroph_interaction:ARG:20    NaN
hydroph_interaction:ARG:20     -1
Name: 36, dtype: object

>  <saltbridge:ARG:20>  (38) 
saltbridge:ARG:20    NaN
saltbridge:ARG:20     -1
Name: 36, dtype: object

>  <halogenbond:ARG:20>  (38) 
halogenbond:ARG:20    NaN
halogenbond:ARG:20     -1
Name: 36, dtype: object

>  <pication:ARG:20>  (38) 
pication:ARG:20    NaN
pication:ARG:20     -1
Name: 36, dtype: object

>  <hbond:HIS:21>  (38) 
hbond:HIS:21    0.0
hbond:HIS:21      0
Name: 36, dtype: object

>  <hydroph_interaction:HIS:21>  (38) 
hydroph_interaction:HIS:21    0.0
hydroph_interaction:HIS:21      0
Name: 36, dtype: object

>  <pistack:HIS:21>  (38) 
pistack:HIS:21    NaN
pistack:HIS:21     -1
Name: 36, dtype: object

>  <pication:HIS:21>  (38) 
pication:HIS:21    0.0
pication:HIS:21      0
Name: 36, dtype: object

>  <saltbridge:HIS:21>  (38) 
saltbridge:HIS:21    0.0
saltbridge:HIS:21      0
Name: 36, dtype: object

>  <halogenbond:HIS:21>  (38) 
halogenbond:HIS:21    NaN
halogenbond:HIS:21     -1
Name: 36, dtype: object

>  <hydroph_interaction:LEU:22>  (38) 
hydroph_interaction:LEU:22    NaN
hydroph_interaction:LEU:22     -1
Name: 36, dtype: object

>  <hbond:LEU:22>  (38) 
hbond:LEU:22    NaN
hbond:LEU:22     -1
Name: 36, dtype: object

>  <hydroph_interaction:TRP:28>  (38) 
hydroph_interaction:TRP:28    NaN
hydroph_interaction:TRP:28     -1
Name: 36, dtype: object

>  <hbond:SER:36>  (38) 
hbond:SER:36    NaN
hbond:SER:36     -1
Name: 36, dtype: object

>  <halogenbond:SER:36>  (38) 
halogenbond:SER:36    NaN
halogenbond:SER:36     -1
Name: 36, dtype: object

>  <hbond:SER:37>  (38) 
hbond:SER:37    NaN
hbond:SER:37     -1
Name: 36, dtype: object

>  <hbond:ARG:38>  (38) 
hbond:ARG:38    NaN
hbond:ARG:38     -1
Name: 36, dtype: object

>  <halogenbond:ARG:38>  (38) 
halogenbond:ARG:38    NaN
halogenbond:ARG:38     -1
Name: 36, dtype: object

>  <saltbridge:ASP:39>  (38) 
saltbridge:ASP:39    0.0
saltbridge:ASP:39      0
Name: 36, dtype: object

>  <halogenbond:ASP:39>  (38) 
halogenbond:ASP:39    NaN
halogenbond:ASP:39     -1
Name: 36, dtype: object

>  <hbond:ASP:39>  (38) 
hbond:ASP:39    0.0
hbond:ASP:39      0
Name: 36, dtype: object

>  <hydroph_interaction:ASP:39>  (38) 
hydroph_interaction:ASP:39    0.0
hydroph_interaction:ASP:39      0
Name: 36, dtype: object

>  <hydroph_interaction:LEU:40>  (38) 
hydroph_interaction:LEU:40    NaN
hydroph_interaction:LEU:40     -1
Name: 36, dtype: object

>  <hydroph_interaction:TYR:63>  (38) 
hydroph_interaction:TYR:63    NaN
hydroph_interaction:TYR:63     -1
Name: 36, dtype: object

>  <hbond:TYR:63>  (38) 
hbond:TYR:63    NaN
hbond:TYR:63     -1
Name: 36, dtype: object

>  <pistack:TYR:63>  (38) 
pistack:TYR:63    NaN
pistack:TYR:63     -1
Name: 36, dtype: object

>  <pication:TYR:63>  (38) 
pication:TYR:63    NaN
pication:TYR:63     -1
Name: 36, dtype: object

>  <halogenbond:TYR:64>  (38) 
halogenbond:TYR:64    NaN
halogenbond:TYR:64     -1
Name: 36, dtype: object

>  <hbond:TYR:64>  (38) 
hbond:TYR:64    NaN
hbond:TYR:64     -1
Name: 36, dtype: object

>  <hydroph_interaction:TYR:64>  (38) 
hydroph_interaction:TYR:64    NaN
hydroph_interaction:TYR:64     -1
Name: 36, dtype: object

>  <halogenbond:CYS:65>  (38) 
halogenbond:CYS:65    NaN
halogenbond:CYS:65     -1
Name: 36, dtype: object

>  <hbond:CYS:65>  (38) 
hbond:CYS:65    NaN
hbond:CYS:65     -1
Name: 36, dtype: object

>  <hbond:SER:66>  (38) 
hbond:SER:66    NaN
hbond:SER:66     -1
Name: 36, dtype: object

>  <halogenbond:SER:66>  (38) 
halogenbond:SER:66    NaN
halogenbond:SER:66     -1
Name: 36, dtype: object

>  <hbond:SER:67>  (38) 
hbond:SER:67    NaN
hbond:SER:67     -1
Name: 36, dtype: object

>  <halogenbond:SER:67>  (38) 
halogenbond:SER:67    NaN
halogenbond:SER:67     -1
Name: 36, dtype: object

>  <hbond:ARG:68>  (38) 
hbond:ARG:68    NaN
hbond:ARG:68     -1
Name: 36, dtype: object

>  <saltbridge:ARG:68>  (38) 
saltbridge:ARG:68    NaN
saltbridge:ARG:68     -1
Name: 36, dtype: object

>  <hydroph_interaction:ARG:68>  (38) 
hydroph_interaction:ARG:68    NaN
hydroph_interaction:ARG:68     -1
Name: 36, dtype: object

>  <pication:ARG:68>  (38) 
pication:ARG:68    NaN
pication:ARG:68     -1
Name: 36, dtype: object

>  <hydroph_interaction:TYR:72>  (38) 
hydroph_interaction:TYR:72    NaN
hydroph_interaction:TYR:72     -1
Name: 36, dtype: object

>  <hydroph_interaction:VAL:74>  (38) 
hydroph_interaction:VAL:74    NaN
hydroph_interaction:VAL:74     -1
Name: 36, dtype: object

>  <hydroph_interaction:PHE:76>  (38) 
hydroph_interaction:PHE:76    NaN
hydroph_interaction:PHE:76     -1
Name: 36, dtype: object

>  <hbond:SER:77>  (38) 
hbond:SER:77    NaN
hbond:SER:77     -1
Name: 36, dtype: object

>  <hbond:SER:80>  (38) 
hbond:SER:80    NaN
hbond:SER:80     -1
Name: 36, dtype: object

>  <hbond:LEU:81>  (38) 
hbond:LEU:81    NaN
hbond:LEU:81     -1
Name: 36, dtype: object

>  <halogenbond:LEU:81>  (38) 
halogenbond:LEU:81    NaN
halogenbond:LEU:81     -1
Name: 36, dtype: object

>  <hydroph_interaction:LEU:81>  (38) 
hydroph_interaction:LEU:81    NaN
hydroph_interaction:LEU:81     -1
Name: 36, dtype: object

>  <hydroph_interaction:ILE:82>  (38) 
hydroph_interaction:ILE:82    NaN
hydroph_interaction:ILE:82     -1
Name: 36, dtype: object

>  <halogenbond:ILE:82>  (38) 
halogenbond:ILE:82    NaN
halogenbond:ILE:82     -1
Name: 36, dtype: object

>  <hbond:ILE:82>  (38) 
hbond:ILE:82    NaN
hbond:ILE:82     -1
Name: 36, dtype: object

>  <hbond:PHE:83>  (38) 
hbond:PHE:83    NaN
hbond:PHE:83     -1
Name: 36, dtype: object

>  <hydroph_interaction:PHE:83>  (38) 
hydroph_interaction:PHE:83    NaN
hydroph_interaction:PHE:83     -1
Name: 36, dtype: object

>  <halogenbond:PHE:83>  (38) 
halogenbond:PHE:83    NaN
halogenbond:PHE:83     -1
Name: 36, dtype: object

>  <pistack:PHE:83>  (38) 
pistack:PHE:83    NaN
pistack:PHE:83     -1
Name: 36, dtype: object

>  <pication:PHE:83>  (38) 
pication:PHE:83    NaN
pication:PHE:83     -1
Name: 36, dtype: object

>  <hydroph_interaction:VAL:84>  (38) 
hydroph_interaction:VAL:84    NaN
hydroph_interaction:VAL:84     -1
Name: 36, dtype: object

>  <halogenbond:VAL:84>  (38) 
halogenbond:VAL:84    NaN
halogenbond:VAL:84     -1
Name: 36, dtype: object

>  <hbond:VAL:84>  (38) 
hbond:VAL:84    NaN
hbond:VAL:84     -1
Name: 36, dtype: object

>  <hydroph_interaction:GLU:85>  (38) 
hydroph_interaction:GLU:85    NaN
hydroph_interaction:GLU:85     -1
Name: 36, dtype: object

>  <hbond:GLU:85>  (38) 
hbond:GLU:85    NaN
hbond:GLU:85     -1
Name: 36, dtype: object

>  <halogenbond:GLU:85>  (38) 
halogenbond:GLU:85    NaN
halogenbond:GLU:85     -1
Name: 36, dtype: object

>  <saltbridge:GLU:85>  (38) 
saltbridge:GLU:85    NaN
saltbridge:GLU:85     -1
Name: 36, dtype: object

>  <halogenbond:ALA:86>  (38) 
halogenbond:ALA:86    0.0
halogenbond:ALA:86      0
Name: 36, dtype: object

>  <hbond:ALA:86>  (38) 
hbond:ALA:86    0.0
hbond:ALA:86      0
Name: 36, dtype: object

>  <hydroph_interaction:ALA:86>  (38) 
hydroph_interaction:ALA:86    NaN
hydroph_interaction:ALA:86     -1
Name: 36, dtype: object

>  <hbond:SER:87>  (38) 
hbond:SER:87    0
hbond:SER:87    0
Name: 36, dtype: object

>  <halogenbond:SER:87>  (38) 
halogenbond:SER:87    NaN
halogenbond:SER:87     -1
Name: 36, dtype: object

>  <hbond:GLU:88>  (38) 
hbond:GLU:88    0.0
hbond:GLU:88      0
Name: 36, dtype: object

>  <hydroph_interaction:GLU:88>  (38) 
hydroph_interaction:GLU:88    0.0
hydroph_interaction:GLU:88      0
Name: 36, dtype: object

>  <halogenbond:GLU:88>  (38) 
halogenbond:GLU:88    NaN
halogenbond:GLU:88     -1
Name: 36, dtype: object

>  <saltbridge:GLU:88>  (38) 
saltbridge:GLU:88    0.0
saltbridge:GLU:88      0
Name: 36, dtype: object

>  <hydroph_interaction:TYR:89>  (38) 
hydroph_interaction:TYR:89    0.0
hydroph_interaction:TYR:89      0
Name: 36, dtype: object

>  <pistack:TYR:89>  (38) 
pistack:TYR:89    NaN
pistack:TYR:89     -1
Name: 36, dtype: object

>  <hbond:TYR:89>  (38) 
hbond:TYR:89    NaN
hbond:TYR:89     -1
Name: 36, dtype: object

>  <halogenbond:TYR:89>  (38) 
halogenbond:TYR:89    NaN
halogenbond:TYR:89     -1
Name: 36, dtype: object

>  <hydroph_interaction:TYR:90>  (38) 
hydroph_interaction:TYR:90    0.0
hydroph_interaction:TYR:90      0
Name: 36, dtype: object

>  <hbond:TYR:90>  (38) 
hbond:TYR:90    0.0
hbond:TYR:90      0
Name: 36, dtype: object

>  <pistack:TYR:90>  (38) 
pistack:TYR:90    NaN
pistack:TYR:90     -1
Name: 36, dtype: object

>  <halogenbond:TYR:90>  (38) 
halogenbond:TYR:90    NaN
halogenbond:TYR:90     -1
Name: 36, dtype: object

>  <pication:TYR:90>  (38) 
pication:TYR:90    NaN
pication:TYR:90     -1
Name: 36, dtype: object

>  <hbond:PRO:91>  (38) 
hbond:PRO:91    NaN
hbond:PRO:91     -1
Name: 36, dtype: object

>  <hydroph_interaction:PRO:91>  (38) 
hydroph_interaction:PRO:91    NaN
hydroph_interaction:PRO:91     -1
Name: 36, dtype: object

>  <halogenbond:PRO:91>  (38) 
halogenbond:PRO:91    NaN
halogenbond:PRO:91     -1
Name: 36, dtype: object

>  <hbond:ALA:92>  (38) 
hbond:ALA:92    NaN
hbond:ALA:92     -1
Name: 36, dtype: object

>  <hydroph_interaction:ALA:92>  (38) 
hydroph_interaction:ALA:92    NaN
hydroph_interaction:ALA:92     -1
Name: 36, dtype: object

>  <saltbridge:ARG:93>  (38) 
saltbridge:ARG:93    NaN
saltbridge:ARG:93     -1
Name: 36, dtype: object

>  <hbond:ARG:93>  (38) 
hbond:ARG:93    0.0
hbond:ARG:93      0
Name: 36, dtype: object

>  <hydroph_interaction:ARG:93>  (38) 
hydroph_interaction:ARG:93    NaN
hydroph_interaction:ARG:93     -1
Name: 36, dtype: object

>  <halogenbond:ARG:93>  (38) 
halogenbond:ARG:93    NaN
halogenbond:ARG:93     -1
Name: 36, dtype: object

>  <pication:ARG:93>  (38) 
pication:ARG:93    NaN
pication:ARG:93     -1
Name: 36, dtype: object

>  <hydroph_interaction:TYR:94>  (38) 
hydroph_interaction:TYR:94    NaN
hydroph_interaction:TYR:94     -1
Name: 36, dtype: object

>  <pistack:TYR:94>  (38) 
pistack:TYR:94    NaN
pistack:TYR:94     -1
Name: 36, dtype: object

>  <hbond:TYR:94>  (38) 
hbond:TYR:94    NaN
hbond:TYR:94     -1
Name: 36, dtype: object

>  <hbond:GLN:95>  (38) 
hbond:GLN:95    0.0
hbond:GLN:95      0
Name: 36, dtype: object

>  <hydroph_interaction:GLN:95>  (38) 
hydroph_interaction:GLN:95    NaN
hydroph_interaction:GLN:95     -1
Name: 36, dtype: object

>  <halogenbond:GLN:95>  (38) 
halogenbond:GLN:95    NaN
halogenbond:GLN:95     -1
Name: 36, dtype: object

>  <hbond:SER:96>  (38) 
hbond:SER:96    NaN
hbond:SER:96     -1
Name: 36, dtype: object

>  <halogenbond:HIS:97>  (38) 
halogenbond:HIS:97    NaN
halogenbond:HIS:97     -1
Name: 36, dtype: object

>  <hydroph_interaction:LEU:98>  (38) 
hydroph_interaction:LEU:98    NaN
hydroph_interaction:LEU:98     -1
Name: 36, dtype: object

>  <hbond:LEU:98>  (38) 
hbond:LEU:98    NaN
hbond:LEU:98     -1
Name: 36, dtype: object

>  <halogenbond:LEU:98>  (38) 
halogenbond:LEU:98    NaN
halogenbond:LEU:98     -1
Name: 36, dtype: object

>  <hbond:MET:99>  (38) 
hbond:MET:99    NaN
hbond:MET:99     -1
Name: 36, dtype: object

>  <hydroph_interaction:MET:99>  (38) 
hydroph_interaction:MET:99    NaN
hydroph_interaction:MET:99     -1
Name: 36, dtype: object

>  <halogenbond:MET:99>  (38) 
halogenbond:MET:99    NaN
halogenbond:MET:99     -1
Name: 36, dtype: object

>  <hydroph_interaction:LEU:100>  (38) 
hydroph_interaction:LEU:100    NaN
hydroph_interaction:LEU:100     -1
Name: 36, dtype: object

>  <hbond:LEU:100>  (38) 
hbond:LEU:100    NaN
hbond:LEU:100     -1
Name: 36, dtype: object

>  <hbond:ALA:101>  (38) 
hbond:ALA:101    NaN
hbond:ALA:101     -1
Name: 36, dtype: object

>  <hydroph_interaction:ALA:101>  (38) 
hydroph_interaction:ALA:101    NaN
hydroph_interaction:ALA:101     -1
Name: 36, dtype: object

>  <hydroph_interaction:VAL:102>  (38) 
hydroph_interaction:VAL:102    NaN
hydroph_interaction:VAL:102     -1
Name: 36, dtype: object

>  <hbond:VAL:102>  (38) 
hbond:VAL:102    NaN
hbond:VAL:102     -1
Name: 36, dtype: object

>  <hbond:GLY:103>  (38) 
hbond:GLY:103    NaN
hbond:GLY:103     -1
Name: 36, dtype: object

>  <halogenbond:GLY:103>  (38) 
halogenbond:GLY:103    NaN
halogenbond:GLY:103     -1
Name: 36, dtype: object

>  <hbond:HIS:104>  (38) 
hbond:HIS:104    0.0
hbond:HIS:104      0
Name: 36, dtype: object

>  <saltbridge:HIS:104>  (38) 
saltbridge:HIS:104    NaN
saltbridge:HIS:104     -1
Name: 36, dtype: object

>  <pication:HIS:104>  (38) 
pication:HIS:104    NaN
pication:HIS:104     -1
Name: 36, dtype: object

>  <halogenbond:HIS:104>  (38) 
halogenbond:HIS:104    NaN
halogenbond:HIS:104     -1
Name: 36, dtype: object

>  <hydroph_interaction:HIS:104>  (38) 
hydroph_interaction:HIS:104    0.0
hydroph_interaction:HIS:104      0
Name: 36, dtype: object

>  <pistack:HIS:104>  (38) 
pistack:HIS:104    NaN
pistack:HIS:104     -1
Name: 36, dtype: object

>  <halogenbond:SER:105>  (38) 
halogenbond:SER:105    0.0
halogenbond:SER:105      0
Name: 36, dtype: object

>  <hbond:SER:105>  (38) 
hbond:SER:105    0.0
hbond:SER:105      0
Name: 36, dtype: object

>  <hbond:GLU:106>  (38) 
hbond:GLU:106    0.0
hbond:GLU:106      0
Name: 36, dtype: object

>  <hydroph_interaction:GLU:106>  (38) 
hydroph_interaction:GLU:106    0.0
hydroph_interaction:GLU:106      0
Name: 36, dtype: object

>  <saltbridge:GLU:106>  (38) 
saltbridge:GLU:106    NaN
saltbridge:GLU:106     -1
Name: 36, dtype: object

>  <halogenbond:GLU:106>  (38) 
halogenbond:GLU:106    NaN
halogenbond:GLU:106     -1
Name: 36, dtype: object

>  <hydroph_interaction:PRO:107>  (38) 
hydroph_interaction:PRO:107    1
hydroph_interaction:PRO:107    1
Name: 36, dtype: object

>  <hbond:PRO:107>  (38) 
hbond:PRO:107    0.0
hbond:PRO:107      0
Name: 36, dtype: object

>  <halogenbond:PRO:107>  (38) 
halogenbond:PRO:107    NaN
halogenbond:PRO:107     -1
Name: 36, dtype: object

>  <hbond:GLY:108>  (38) 
hbond:GLY:108    NaN
hbond:GLY:108     -1
Name: 36, dtype: object

>  <halogenbond:GLY:108>  (38) 
halogenbond:GLY:108    NaN
halogenbond:GLY:108     -1
Name: 36, dtype: object

>  <hbond:ASP:109>  (38) 
hbond:ASP:109    0.0
hbond:ASP:109      0
Name: 36, dtype: object

>  <hydroph_interaction:ASP:109>  (38) 
hydroph_interaction:ASP:109    0.0
hydroph_interaction:ASP:109      0
Name: 36, dtype: object

>  <saltbridge:ASP:109>  (38) 
saltbridge:ASP:109    NaN
saltbridge:ASP:109     -1
Name: 36, dtype: object

>  <halogenbond:CYS:110>  (38) 
halogenbond:CYS:110    0.0
halogenbond:CYS:110      0
Name: 36, dtype: object

>  <hbond:CYS:110>  (38) 
hbond:CYS:110    0.0
hbond:CYS:110      0
Name: 36, dtype: object

>  <hbond:GLY:111>  (38) 
hbond:GLY:111    NaN
hbond:GLY:111     -1
Name: 36, dtype: object

>  <hbond:GLY:112>  (38) 
hbond:GLY:112    NaN
hbond:GLY:112     -1
Name: 36, dtype: object

>  <hbond:ILE:113>  (38) 
hbond:ILE:113    NaN
hbond:ILE:113     -1
Name: 36, dtype: object

>  <hydroph_interaction:LEU:114>  (38) 
hydroph_interaction:LEU:114    NaN
hydroph_interaction:LEU:114     -1
Name: 36, dtype: object

>  <hbond:LEU:114>  (38) 
hbond:LEU:114    NaN
hbond:LEU:114     -1
Name: 36, dtype: object

>  <hydroph_interaction:ILE:123>  (38) 
hydroph_interaction:ILE:123    NaN
hydroph_interaction:ILE:123     -1
Name: 36, dtype: object

>  <hbond:ILE:123>  (38) 
hbond:ILE:123    NaN
hbond:ILE:123     -1
Name: 36, dtype: object

>  <hydroph_interaction:VAL:124>  (38) 
hydroph_interaction:VAL:124    1.0
hydroph_interaction:VAL:124      1
Name: 36, dtype: object

>  <hbond:VAL:124>  (38) 
hbond:VAL:124    NaN
hbond:VAL:124     -1
Name: 36, dtype: object

>  <halogenbond:VAL:124>  (38) 
halogenbond:VAL:124    NaN
halogenbond:VAL:124     -1
Name: 36, dtype: object

>  <hbond:SER:125>  (38) 
hbond:SER:125    2
hbond:SER:125    2
Name: 36, dtype: object

>  <halogenbond:SER:125>  (38) 
halogenbond:SER:125    0.0
halogenbond:SER:125      0
Name: 36, dtype: object

>  <hydroph_interaction:THR:126>  (38) 
hydroph_interaction:THR:126    NaN
hydroph_interaction:THR:126     -1
Name: 36, dtype: object

>  <hbond:THR:126>  (38) 
hbond:THR:126    0.0
hbond:THR:126      0
Name: 36, dtype: object

>  <halogenbond:THR:126>  (38) 
halogenbond:THR:126    NaN
halogenbond:THR:126     -1
Name: 36, dtype: object

>  <hbond:GLY:127>  (38) 
hbond:GLY:127    0
hbond:GLY:127    0
Name: 36, dtype: object

>  <halogenbond:GLY:127>  (38) 
halogenbond:GLY:127    NaN
halogenbond:GLY:127     -1
Name: 36, dtype: object

>  <hydroph_interaction:GLY:127>  (38) 
hydroph_interaction:GLY:127    NaN
hydroph_interaction:GLY:127     -1
Name: 36, dtype: object

>  <hbond:GLY:128>  (38) 
hbond:GLY:128    NaN
hbond:GLY:128     -1
Name: 36, dtype: object

>  <halogenbond:GLY:128>  (38) 
halogenbond:GLY:128    NaN
halogenbond:GLY:128     -1
Name: 36, dtype: object

>  <hydroph_interaction:GLY:128>  (38) 
hydroph_interaction:GLY:128    NaN
hydroph_interaction:GLY:128     -1
Name: 36, dtype: object

>  <hbond:ASN:129>  (38) 
hbond:ASN:129    NaN
hbond:ASN:129     -1
Name: 36, dtype: object

>  <hydroph_interaction:ASN:129>  (38) 
hydroph_interaction:ASN:129    NaN
hydroph_interaction:ASN:129     -1
Name: 36, dtype: object

>  <halogenbond:ASN:129>  (38) 
halogenbond:ASN:129    NaN
halogenbond:ASN:129     -1
Name: 36, dtype: object

>  <hbond:GLY:130>  (38) 
hbond:GLY:130    0.0
hbond:GLY:130      0
Name: 36, dtype: object

>  <hbond:LEU:131>  (38) 
hbond:LEU:131    NaN
hbond:LEU:131     -1
Name: 36, dtype: object

>  <hydroph_interaction:LEU:131>  (38) 
hydroph_interaction:LEU:131    NaN
hydroph_interaction:LEU:131     -1
Name: 36, dtype: object

>  <halogenbond:LEU:131>  (38) 
halogenbond:LEU:131    NaN
halogenbond:LEU:131     -1
Name: 36, dtype: object

>  <hydroph_interaction:VAL:132>  (38) 
hydroph_interaction:VAL:132    NaN
hydroph_interaction:VAL:132     -1
Name: 36, dtype: object

>  <hbond:VAL:132>  (38) 
hbond:VAL:132    NaN
hbond:VAL:132     -1
Name: 36, dtype: object

>  <hbond:GLY:133>  (38) 
hbond:GLY:133    NaN
hbond:GLY:133     -1
Name: 36, dtype: object

>  <halogenbond:GLY:133>  (38) 
halogenbond:GLY:133    NaN
halogenbond:GLY:133     -1
Name: 36, dtype: object

>  <hydroph_interaction:PHE:134>  (38) 
hydroph_interaction:PHE:134    NaN
hydroph_interaction:PHE:134     -1
Name: 36, dtype: object

>  <hbond:PHE:134>  (38) 
hbond:PHE:134    NaN
hbond:PHE:134     -1
Name: 36, dtype: object

>  <pistack:PHE:134>  (38) 
pistack:PHE:134    NaN
pistack:PHE:134     -1
Name: 36, dtype: object

>  <pication:PHE:134>  (38) 
pication:PHE:134    NaN
pication:PHE:134     -1
Name: 36, dtype: object

>  <halogenbond:PHE:134>  (38) 
halogenbond:PHE:134    NaN
halogenbond:PHE:134     -1
Name: 36, dtype: object

>  <hydroph_interaction:ALA:135>  (38) 
hydroph_interaction:ALA:135    NaN
hydroph_interaction:ALA:135     -1
Name: 36, dtype: object

>  <hbond:ALA:135>  (38) 
hbond:ALA:135    NaN
hbond:ALA:135     -1
Name: 36, dtype: object

$$$$
Z4387276072
     RDKit          3D

 16 17  0  0  0  0  0  0  0  0999 V2000
   28.7667   15.3659    8.3508 C   0  0  0  0  0  0  0  0  0  0  0  0
   29.8155   14.2672    8.5537 C   0  0  0  0  0  0  0  0  0  0  0  0
   30.7585   14.2692    9.7687 C   0  0  0  0  0  0  0  0  0  0  0  0
   29.8864   13.1972    7.5348 C   0  0  0  0  0  0  0  0  0  0  0  0
   29.0254   13.2857    6.4371 C   0  0  0  0  0  0  0  0  0  0  0  0
   30.7126   11.9280    7.4054 C   0  0  0  0  0  0  0  0  0  0  0  0
   30.4197   10.8681    8.1473 C   0  0  0  0  0  0  0  0  0  0  0  0
   31.1885    9.8302    7.9024 N   0  0  0  0  0  0  0  0  0  0  0  0
   31.0611    8.5816    8.5563 C   0  0  0  0  0  0  0  0  0  0  0  0
   32.0904   10.2237    6.9135 C   0  0  0  0  0  0  0  0  0  0  0  0
   33.0516    9.4556    6.3700 N   0  0  0  0  0  0  0  0  0  0  0  0
   33.7686   10.1076    5.4423 C   0  0  0  0  0  0  0  0  0  0  0  0
   33.6312   11.3806    5.0193 N   0  0  0  0  0  0  0  0  0  0  0  0
   32.6524   12.1097    5.5889 C   0  0  0  0  0  0  0  0  0  0  0  0
   32.5523   13.3870    5.1221 O   0  0  0  0  0  0  0  0  0  0  0  0
   31.8166   11.5771    6.5732 C   0  0  0  0  0  0  0  0  0  0  0  0
  1  2  1  0
  2  3  1  0
  2  4  2  3
  4  5  1  0
  4  6  1  0
  6  7  2  0
  7  8  1  0
  8  9  1  0
  8 10  1  0
 10 11  2  0
 11 12  1  0
 12 13  2  0
 13 14  1  0
 14 15  1  0
 14 16  2  0
 16  6  1  0
 16 10  1  0
A    1
 C1 
A    2
 C2 
A    3
 C3 
A    4
 C4 
A    5
 C5 
A    6
 C6 
A    7
 C7 
A    8
 N1 
A    9
 C8 
A   10
 C9 
A   11
 N2 
A   12
 C10
A   13
 N3 
A   14
 C11
A   15
 O1 
A   16
 C12
M  END
>  <ref_pdb>  (39) 
Ax0310a

>  <ref_mols>  (39) 
Ax0451a,Ax0451a

>  <original SMILES>  (39) 
CC(C)=C(C)c1cn(C)c2ncnc(O)c12

>  <rationale>  (39) 
info halogenbond:G127+D39+A86+E85+E106+E88+T126+P107+H104+Y64+C65+S87+N129+F83+R93+L131+I82+G128+P91+N19+H21+V84+Y90+Y89+H97+L81+F134+L98+R20+G103+S66+S67+S7+G108+R38+V124+M99+S36; hbond:S105+D39+A86+G108+G103+G128+G130+L131+N129+H104+R68+V124+P91+F83+S67+S7+S66+G112+G133+V132+R20+Y89+S77+A135+Y63+A92+A101+M99+F134+L100+I82+Y64+S36+L98+V84+L81+Y94+S80+R38+S37+V102+G8+I123+G111+I113+L114+C65+L22+S96; hydroph_interaction:Y90+T126+P107+E106+E88+N129+N19+L40+I123+A135+I82+L100+L98+L131+F83+R93+V132+F134+H104+R20+A86+V74+P91+A101+F76+M99+L114+A92+Y94+R68+Y72+Y64+V18+V102+W28+G127+G128+L81; pication:H21+H104+R93+Y63+F134+Y90+R68+F83+R20; pistack:Y89+H104+F134+Y63+F83+Y94; saltbridge:D39+R93+H104+E106+D109+E85+E88+R68+R20; 

>  <intxn_cluster>  (39) 
-1

>  <intxn_cluster_rank>  (39) 
-1

>  <N_interactions>  (39) 
5

>  <∆∆G>  (39) 
-10.388324

>  <$/mg>  (39) 
0.0

>  <comRMSD>  (39) 
0.628822

>  <N_rotatable_bonds>  (39) 
6

>  <deep_P1_sidechain>  (39) 
nan

>  <farthest_distance_to_substrate>  (39) 
2.476397

>  <hbond:SER:7>  (39) 
hbond:SER:7    NaN
hbond:SER:7     -1
Name: 37, dtype: object

>  <halogenbond:SER:7>  (39) 
halogenbond:SER:7    NaN
halogenbond:SER:7     -1
Name: 37, dtype: object

>  <hbond:GLY:8>  (39) 
hbond:GLY:8    NaN
hbond:GLY:8     -1
Name: 37, dtype: object

>  <hydroph_interaction:VAL:18>  (39) 
hydroph_interaction:VAL:18    NaN
hydroph_interaction:VAL:18     -1
Name: 37, dtype: object

>  <hbond:ASN:19>  (39) 
hbond:ASN:19    0.0
hbond:ASN:19      0
Name: 37, dtype: object

>  <hydroph_interaction:ASN:19>  (39) 
hydroph_interaction:ASN:19    NaN
hydroph_interaction:ASN:19     -1
Name: 37, dtype: object

>  <halogenbond:ASN:19>  (39) 
halogenbond:ASN:19    NaN
halogenbond:ASN:19     -1
Name: 37, dtype: object

>  <hbond:ARG:20>  (39) 
hbond:ARG:20    NaN
hbond:ARG:20     -1
Name: 37, dtype: object

>  <hydroph_interaction:ARG:20>  (39) 
hydroph_interaction:ARG:20    NaN
hydroph_interaction:ARG:20     -1
Name: 37, dtype: object

>  <saltbridge:ARG:20>  (39) 
saltbridge:ARG:20    NaN
saltbridge:ARG:20     -1
Name: 37, dtype: object

>  <halogenbond:ARG:20>  (39) 
halogenbond:ARG:20    NaN
halogenbond:ARG:20     -1
Name: 37, dtype: object

>  <pication:ARG:20>  (39) 
pication:ARG:20    NaN
pication:ARG:20     -1
Name: 37, dtype: object

>  <hbond:HIS:21>  (39) 
hbond:HIS:21    0.0
hbond:HIS:21      0
Name: 37, dtype: object

>  <hydroph_interaction:HIS:21>  (39) 
hydroph_interaction:HIS:21    0.0
hydroph_interaction:HIS:21      0
Name: 37, dtype: object

>  <pistack:HIS:21>  (39) 
pistack:HIS:21    0.0
pistack:HIS:21      0
Name: 37, dtype: object

>  <pication:HIS:21>  (39) 
pication:HIS:21    NaN
pication:HIS:21     -1
Name: 37, dtype: object

>  <saltbridge:HIS:21>  (39) 
saltbridge:HIS:21    0.0
saltbridge:HIS:21      0
Name: 37, dtype: object

>  <halogenbond:HIS:21>  (39) 
halogenbond:HIS:21    NaN
halogenbond:HIS:21     -1
Name: 37, dtype: object

>  <hydroph_interaction:LEU:22>  (39) 
hydroph_interaction:LEU:22    0.0
hydroph_interaction:LEU:22      0
Name: 37, dtype: object

>  <hbond:LEU:22>  (39) 
hbond:LEU:22    NaN
hbond:LEU:22     -1
Name: 37, dtype: object

>  <hydroph_interaction:TRP:28>  (39) 
hydroph_interaction:TRP:28    NaN
hydroph_interaction:TRP:28     -1
Name: 37, dtype: object

>  <hbond:SER:36>  (39) 
hbond:SER:36    NaN
hbond:SER:36     -1
Name: 37, dtype: object

>  <halogenbond:SER:36>  (39) 
halogenbond:SER:36    NaN
halogenbond:SER:36     -1
Name: 37, dtype: object

>  <hbond:SER:37>  (39) 
hbond:SER:37    NaN
hbond:SER:37     -1
Name: 37, dtype: object

>  <hbond:ARG:38>  (39) 
hbond:ARG:38    NaN
hbond:ARG:38     -1
Name: 37, dtype: object

>  <halogenbond:ARG:38>  (39) 
halogenbond:ARG:38    NaN
halogenbond:ARG:38     -1
Name: 37, dtype: object

>  <saltbridge:ASP:39>  (39) 
saltbridge:ASP:39    NaN
saltbridge:ASP:39     -1
Name: 37, dtype: object

>  <halogenbond:ASP:39>  (39) 
halogenbond:ASP:39    NaN
halogenbond:ASP:39     -1
Name: 37, dtype: object

>  <hbond:ASP:39>  (39) 
hbond:ASP:39    NaN
hbond:ASP:39     -1
Name: 37, dtype: object

>  <hydroph_interaction:ASP:39>  (39) 
hydroph_interaction:ASP:39    0.0
hydroph_interaction:ASP:39      0
Name: 37, dtype: object

>  <hydroph_interaction:LEU:40>  (39) 
hydroph_interaction:LEU:40    NaN
hydroph_interaction:LEU:40     -1
Name: 37, dtype: object

>  <hydroph_interaction:TYR:63>  (39) 
hydroph_interaction:TYR:63    0.0
hydroph_interaction:TYR:63      0
Name: 37, dtype: object

>  <hbond:TYR:63>  (39) 
hbond:TYR:63    NaN
hbond:TYR:63     -1
Name: 37, dtype: object

>  <pistack:TYR:63>  (39) 
pistack:TYR:63    NaN
pistack:TYR:63     -1
Name: 37, dtype: object

>  <pication:TYR:63>  (39) 
pication:TYR:63    NaN
pication:TYR:63     -1
Name: 37, dtype: object

>  <halogenbond:TYR:64>  (39) 
halogenbond:TYR:64    NaN
halogenbond:TYR:64     -1
Name: 37, dtype: object

>  <hbond:TYR:64>  (39) 
hbond:TYR:64    NaN
hbond:TYR:64     -1
Name: 37, dtype: object

>  <hydroph_interaction:TYR:64>  (39) 
hydroph_interaction:TYR:64    NaN
hydroph_interaction:TYR:64     -1
Name: 37, dtype: object

>  <halogenbond:CYS:65>  (39) 
halogenbond:CYS:65    NaN
halogenbond:CYS:65     -1
Name: 37, dtype: object

>  <hbond:CYS:65>  (39) 
hbond:CYS:65    NaN
hbond:CYS:65     -1
Name: 37, dtype: object

>  <hbond:SER:66>  (39) 
hbond:SER:66    NaN
hbond:SER:66     -1
Name: 37, dtype: object

>  <halogenbond:SER:66>  (39) 
halogenbond:SER:66    NaN
halogenbond:SER:66     -1
Name: 37, dtype: object

>  <hbond:SER:67>  (39) 
hbond:SER:67    NaN
hbond:SER:67     -1
Name: 37, dtype: object

>  <halogenbond:SER:67>  (39) 
halogenbond:SER:67    NaN
halogenbond:SER:67     -1
Name: 37, dtype: object

>  <hbond:ARG:68>  (39) 
hbond:ARG:68    NaN
hbond:ARG:68     -1
Name: 37, dtype: object

>  <saltbridge:ARG:68>  (39) 
saltbridge:ARG:68    NaN
saltbridge:ARG:68     -1
Name: 37, dtype: object

>  <hydroph_interaction:ARG:68>  (39) 
hydroph_interaction:ARG:68    NaN
hydroph_interaction:ARG:68     -1
Name: 37, dtype: object

>  <pication:ARG:68>  (39) 
pication:ARG:68    NaN
pication:ARG:68     -1
Name: 37, dtype: object

>  <hydroph_interaction:TYR:72>  (39) 
hydroph_interaction:TYR:72    NaN
hydroph_interaction:TYR:72     -1
Name: 37, dtype: object

>  <hydroph_interaction:VAL:74>  (39) 
hydroph_interaction:VAL:74    NaN
hydroph_interaction:VAL:74     -1
Name: 37, dtype: object

>  <hydroph_interaction:PHE:76>  (39) 
hydroph_interaction:PHE:76    NaN
hydroph_interaction:PHE:76     -1
Name: 37, dtype: object

>  <hbond:SER:77>  (39) 
hbond:SER:77    NaN
hbond:SER:77     -1
Name: 37, dtype: object

>  <hbond:SER:80>  (39) 
hbond:SER:80    NaN
hbond:SER:80     -1
Name: 37, dtype: object

>  <hbond:LEU:81>  (39) 
hbond:LEU:81    NaN
hbond:LEU:81     -1
Name: 37, dtype: object

>  <halogenbond:LEU:81>  (39) 
halogenbond:LEU:81    NaN
halogenbond:LEU:81     -1
Name: 37, dtype: object

>  <hydroph_interaction:LEU:81>  (39) 
hydroph_interaction:LEU:81    NaN
hydroph_interaction:LEU:81     -1
Name: 37, dtype: object

>  <hydroph_interaction:ILE:82>  (39) 
hydroph_interaction:ILE:82    NaN
hydroph_interaction:ILE:82     -1
Name: 37, dtype: object

>  <halogenbond:ILE:82>  (39) 
halogenbond:ILE:82    NaN
halogenbond:ILE:82     -1
Name: 37, dtype: object

>  <hbond:ILE:82>  (39) 
hbond:ILE:82    NaN
hbond:ILE:82     -1
Name: 37, dtype: object

>  <hbond:PHE:83>  (39) 
hbond:PHE:83    NaN
hbond:PHE:83     -1
Name: 37, dtype: object

>  <hydroph_interaction:PHE:83>  (39) 
hydroph_interaction:PHE:83    NaN
hydroph_interaction:PHE:83     -1
Name: 37, dtype: object

>  <halogenbond:PHE:83>  (39) 
halogenbond:PHE:83    NaN
halogenbond:PHE:83     -1
Name: 37, dtype: object

>  <pistack:PHE:83>  (39) 
pistack:PHE:83    NaN
pistack:PHE:83     -1
Name: 37, dtype: object

>  <pication:PHE:83>  (39) 
pication:PHE:83    NaN
pication:PHE:83     -1
Name: 37, dtype: object

>  <hydroph_interaction:VAL:84>  (39) 
hydroph_interaction:VAL:84    0.0
hydroph_interaction:VAL:84      0
Name: 37, dtype: object

>  <halogenbond:VAL:84>  (39) 
halogenbond:VAL:84    NaN
halogenbond:VAL:84     -1
Name: 37, dtype: object

>  <hbond:VAL:84>  (39) 
hbond:VAL:84    NaN
hbond:VAL:84     -1
Name: 37, dtype: object

>  <hydroph_interaction:GLU:85>  (39) 
hydroph_interaction:GLU:85    0.0
hydroph_interaction:GLU:85      0
Name: 37, dtype: object

>  <hbond:GLU:85>  (39) 
hbond:GLU:85    0.0
hbond:GLU:85      0
Name: 37, dtype: object

>  <halogenbond:GLU:85>  (39) 
halogenbond:GLU:85    NaN
halogenbond:GLU:85     -1
Name: 37, dtype: object

>  <saltbridge:GLU:85>  (39) 
saltbridge:GLU:85    NaN
saltbridge:GLU:85     -1
Name: 37, dtype: object

>  <halogenbond:ALA:86>  (39) 
halogenbond:ALA:86    NaN
halogenbond:ALA:86     -1
Name: 37, dtype: object

>  <hbond:ALA:86>  (39) 
hbond:ALA:86    NaN
hbond:ALA:86     -1
Name: 37, dtype: object

>  <hydroph_interaction:ALA:86>  (39) 
hydroph_interaction:ALA:86    NaN
hydroph_interaction:ALA:86     -1
Name: 37, dtype: object

>  <hbond:SER:87>  (39) 
hbond:SER:87    0
hbond:SER:87    0
Name: 37, dtype: object

>  <halogenbond:SER:87>  (39) 
halogenbond:SER:87    NaN
halogenbond:SER:87     -1
Name: 37, dtype: object

>  <hbond:GLU:88>  (39) 
hbond:GLU:88    0.0
hbond:GLU:88      0
Name: 37, dtype: object

>  <hydroph_interaction:GLU:88>  (39) 
hydroph_interaction:GLU:88    NaN
hydroph_interaction:GLU:88     -1
Name: 37, dtype: object

>  <halogenbond:GLU:88>  (39) 
halogenbond:GLU:88    NaN
halogenbond:GLU:88     -1
Name: 37, dtype: object

>  <saltbridge:GLU:88>  (39) 
saltbridge:GLU:88    NaN
saltbridge:GLU:88     -1
Name: 37, dtype: object

>  <hydroph_interaction:TYR:89>  (39) 
hydroph_interaction:TYR:89    0.0
hydroph_interaction:TYR:89      0
Name: 37, dtype: object

>  <pistack:TYR:89>  (39) 
pistack:TYR:89    NaN
pistack:TYR:89     -1
Name: 37, dtype: object

>  <hbond:TYR:89>  (39) 
hbond:TYR:89    NaN
hbond:TYR:89     -1
Name: 37, dtype: object

>  <halogenbond:TYR:89>  (39) 
halogenbond:TYR:89    NaN
halogenbond:TYR:89     -1
Name: 37, dtype: object

>  <hydroph_interaction:TYR:90>  (39) 
hydroph_interaction:TYR:90    1.0
hydroph_interaction:TYR:90      1
Name: 37, dtype: object

>  <hbond:TYR:90>  (39) 
hbond:TYR:90    0.0
hbond:TYR:90      0
Name: 37, dtype: object

>  <pistack:TYR:90>  (39) 
pistack:TYR:90    0.0
pistack:TYR:90      0
Name: 37, dtype: object

>  <halogenbond:TYR:90>  (39) 
halogenbond:TYR:90    NaN
halogenbond:TYR:90     -1
Name: 37, dtype: object

>  <pication:TYR:90>  (39) 
pication:TYR:90    NaN
pication:TYR:90     -1
Name: 37, dtype: object

>  <hbond:PRO:91>  (39) 
hbond:PRO:91    NaN
hbond:PRO:91     -1
Name: 37, dtype: object

>  <hydroph_interaction:PRO:91>  (39) 
hydroph_interaction:PRO:91    NaN
hydroph_interaction:PRO:91     -1
Name: 37, dtype: object

>  <halogenbond:PRO:91>  (39) 
halogenbond:PRO:91    NaN
halogenbond:PRO:91     -1
Name: 37, dtype: object

>  <hbond:ALA:92>  (39) 
hbond:ALA:92    NaN
hbond:ALA:92     -1
Name: 37, dtype: object

>  <hydroph_interaction:ALA:92>  (39) 
hydroph_interaction:ALA:92    NaN
hydroph_interaction:ALA:92     -1
Name: 37, dtype: object

>  <saltbridge:ARG:93>  (39) 
saltbridge:ARG:93    NaN
saltbridge:ARG:93     -1
Name: 37, dtype: object

>  <hbond:ARG:93>  (39) 
hbond:ARG:93    0.0
hbond:ARG:93      0
Name: 37, dtype: object

>  <hydroph_interaction:ARG:93>  (39) 
hydroph_interaction:ARG:93    NaN
hydroph_interaction:ARG:93     -1
Name: 37, dtype: object

>  <halogenbond:ARG:93>  (39) 
halogenbond:ARG:93    NaN
halogenbond:ARG:93     -1
Name: 37, dtype: object

>  <pication:ARG:93>  (39) 
pication:ARG:93    NaN
pication:ARG:93     -1
Name: 37, dtype: object

>  <hydroph_interaction:TYR:94>  (39) 
hydroph_interaction:TYR:94    NaN
hydroph_interaction:TYR:94     -1
Name: 37, dtype: object

>  <pistack:TYR:94>  (39) 
pistack:TYR:94    NaN
pistack:TYR:94     -1
Name: 37, dtype: object

>  <hbond:TYR:94>  (39) 
hbond:TYR:94    NaN
hbond:TYR:94     -1
Name: 37, dtype: object

>  <hbond:GLN:95>  (39) 
hbond:GLN:95    0.0
hbond:GLN:95      0
Name: 37, dtype: object

>  <hydroph_interaction:GLN:95>  (39) 
hydroph_interaction:GLN:95    0.0
hydroph_interaction:GLN:95      0
Name: 37, dtype: object

>  <halogenbond:GLN:95>  (39) 
halogenbond:GLN:95    0.0
halogenbond:GLN:95      0
Name: 37, dtype: object

>  <hbond:SER:96>  (39) 
hbond:SER:96    NaN
hbond:SER:96     -1
Name: 37, dtype: object

>  <halogenbond:HIS:97>  (39) 
halogenbond:HIS:97    NaN
halogenbond:HIS:97     -1
Name: 37, dtype: object

>  <hydroph_interaction:LEU:98>  (39) 
hydroph_interaction:LEU:98    NaN
hydroph_interaction:LEU:98     -1
Name: 37, dtype: object

>  <hbond:LEU:98>  (39) 
hbond:LEU:98    NaN
hbond:LEU:98     -1
Name: 37, dtype: object

>  <halogenbond:LEU:98>  (39) 
halogenbond:LEU:98    NaN
halogenbond:LEU:98     -1
Name: 37, dtype: object

>  <hbond:MET:99>  (39) 
hbond:MET:99    NaN
hbond:MET:99     -1
Name: 37, dtype: object

>  <hydroph_interaction:MET:99>  (39) 
hydroph_interaction:MET:99    NaN
hydroph_interaction:MET:99     -1
Name: 37, dtype: object

>  <halogenbond:MET:99>  (39) 
halogenbond:MET:99    NaN
halogenbond:MET:99     -1
Name: 37, dtype: object

>  <hydroph_interaction:LEU:100>  (39) 
hydroph_interaction:LEU:100    NaN
hydroph_interaction:LEU:100     -1
Name: 37, dtype: object

>  <hbond:LEU:100>  (39) 
hbond:LEU:100    NaN
hbond:LEU:100     -1
Name: 37, dtype: object

>  <hbond:ALA:101>  (39) 
hbond:ALA:101    NaN
hbond:ALA:101     -1
Name: 37, dtype: object

>  <hydroph_interaction:ALA:101>  (39) 
hydroph_interaction:ALA:101    NaN
hydroph_interaction:ALA:101     -1
Name: 37, dtype: object

>  <hydroph_interaction:VAL:102>  (39) 
hydroph_interaction:VAL:102    NaN
hydroph_interaction:VAL:102     -1
Name: 37, dtype: object

>  <hbond:VAL:102>  (39) 
hbond:VAL:102    NaN
hbond:VAL:102     -1
Name: 37, dtype: object

>  <hbond:GLY:103>  (39) 
hbond:GLY:103    NaN
hbond:GLY:103     -1
Name: 37, dtype: object

>  <halogenbond:GLY:103>  (39) 
halogenbond:GLY:103    NaN
halogenbond:GLY:103     -1
Name: 37, dtype: object

>  <hbond:HIS:104>  (39) 
hbond:HIS:104    NaN
hbond:HIS:104     -1
Name: 37, dtype: object

>  <saltbridge:HIS:104>  (39) 
saltbridge:HIS:104    NaN
saltbridge:HIS:104     -1
Name: 37, dtype: object

>  <pication:HIS:104>  (39) 
pication:HIS:104    NaN
pication:HIS:104     -1
Name: 37, dtype: object

>  <halogenbond:HIS:104>  (39) 
halogenbond:HIS:104    NaN
halogenbond:HIS:104     -1
Name: 37, dtype: object

>  <hydroph_interaction:HIS:104>  (39) 
hydroph_interaction:HIS:104    NaN
hydroph_interaction:HIS:104     -1
Name: 37, dtype: object

>  <pistack:HIS:104>  (39) 
pistack:HIS:104    NaN
pistack:HIS:104     -1
Name: 37, dtype: object

>  <halogenbond:SER:105>  (39) 
halogenbond:SER:105    0.0
halogenbond:SER:105      0
Name: 37, dtype: object

>  <hbond:SER:105>  (39) 
hbond:SER:105    1.0
hbond:SER:105      1
Name: 37, dtype: object

>  <hbond:GLU:106>  (39) 
hbond:GLU:106    0.0
hbond:GLU:106      0
Name: 37, dtype: object

>  <hydroph_interaction:GLU:106>  (39) 
hydroph_interaction:GLU:106    NaN
hydroph_interaction:GLU:106     -1
Name: 37, dtype: object

>  <saltbridge:GLU:106>  (39) 
saltbridge:GLU:106    NaN
saltbridge:GLU:106     -1
Name: 37, dtype: object

>  <halogenbond:GLU:106>  (39) 
halogenbond:GLU:106    NaN
halogenbond:GLU:106     -1
Name: 37, dtype: object

>  <hydroph_interaction:PRO:107>  (39) 
hydroph_interaction:PRO:107    2
hydroph_interaction:PRO:107    2
Name: 37, dtype: object

>  <hbond:PRO:107>  (39) 
hbond:PRO:107    0.0
hbond:PRO:107      0
Name: 37, dtype: object

>  <halogenbond:PRO:107>  (39) 
halogenbond:PRO:107    NaN
halogenbond:PRO:107     -1
Name: 37, dtype: object

>  <hbond:GLY:108>  (39) 
hbond:GLY:108    NaN
hbond:GLY:108     -1
Name: 37, dtype: object

>  <halogenbond:GLY:108>  (39) 
halogenbond:GLY:108    NaN
halogenbond:GLY:108     -1
Name: 37, dtype: object

>  <hbond:ASP:109>  (39) 
hbond:ASP:109    0.0
hbond:ASP:109      0
Name: 37, dtype: object

>  <hydroph_interaction:ASP:109>  (39) 
hydroph_interaction:ASP:109    0.0
hydroph_interaction:ASP:109      0
Name: 37, dtype: object

>  <saltbridge:ASP:109>  (39) 
saltbridge:ASP:109    NaN
saltbridge:ASP:109     -1
Name: 37, dtype: object

>  <halogenbond:CYS:110>  (39) 
halogenbond:CYS:110    0.0
halogenbond:CYS:110      0
Name: 37, dtype: object

>  <hbond:CYS:110>  (39) 
hbond:CYS:110    0.0
hbond:CYS:110      0
Name: 37, dtype: object

>  <hbond:GLY:111>  (39) 
hbond:GLY:111    NaN
hbond:GLY:111     -1
Name: 37, dtype: object

>  <hbond:GLY:112>  (39) 
hbond:GLY:112    NaN
hbond:GLY:112     -1
Name: 37, dtype: object

>  <hbond:ILE:113>  (39) 
hbond:ILE:113    NaN
hbond:ILE:113     -1
Name: 37, dtype: object

>  <hydroph_interaction:LEU:114>  (39) 
hydroph_interaction:LEU:114    NaN
hydroph_interaction:LEU:114     -1
Name: 37, dtype: object

>  <hbond:LEU:114>  (39) 
hbond:LEU:114    NaN
hbond:LEU:114     -1
Name: 37, dtype: object

>  <hydroph_interaction:ILE:123>  (39) 
hydroph_interaction:ILE:123    NaN
hydroph_interaction:ILE:123     -1
Name: 37, dtype: object

>  <hbond:ILE:123>  (39) 
hbond:ILE:123    NaN
hbond:ILE:123     -1
Name: 37, dtype: object

>  <hydroph_interaction:VAL:124>  (39) 
hydroph_interaction:VAL:124    0.0
hydroph_interaction:VAL:124      0
Name: 37, dtype: object

>  <hbond:VAL:124>  (39) 
hbond:VAL:124    NaN
hbond:VAL:124     -1
Name: 37, dtype: object

>  <halogenbond:VAL:124>  (39) 
halogenbond:VAL:124    NaN
halogenbond:VAL:124     -1
Name: 37, dtype: object

>  <hbond:SER:125>  (39) 
hbond:SER:125    0
hbond:SER:125    0
Name: 37, dtype: object

>  <halogenbond:SER:125>  (39) 
halogenbond:SER:125    0.0
halogenbond:SER:125      0
Name: 37, dtype: object

>  <hydroph_interaction:THR:126>  (39) 
hydroph_interaction:THR:126    1.0
hydroph_interaction:THR:126      1
Name: 37, dtype: object

>  <hbond:THR:126>  (39) 
hbond:THR:126    0.0
hbond:THR:126      0
Name: 37, dtype: object

>  <halogenbond:THR:126>  (39) 
halogenbond:THR:126    NaN
halogenbond:THR:126     -1
Name: 37, dtype: object

>  <hbond:GLY:127>  (39) 
hbond:GLY:127    0
hbond:GLY:127    0
Name: 37, dtype: object

>  <halogenbond:GLY:127>  (39) 
halogenbond:GLY:127    NaN
halogenbond:GLY:127     -1
Name: 37, dtype: object

>  <hydroph_interaction:GLY:127>  (39) 
hydroph_interaction:GLY:127    NaN
hydroph_interaction:GLY:127     -1
Name: 37, dtype: object

>  <hbond:GLY:128>  (39) 
hbond:GLY:128    NaN
hbond:GLY:128     -1
Name: 37, dtype: object

>  <halogenbond:GLY:128>  (39) 
halogenbond:GLY:128    NaN
halogenbond:GLY:128     -1
Name: 37, dtype: object

>  <hydroph_interaction:GLY:128>  (39) 
hydroph_interaction:GLY:128    NaN
hydroph_interaction:GLY:128     -1
Name: 37, dtype: object

>  <hbond:ASN:129>  (39) 
hbond:ASN:129    NaN
hbond:ASN:129     -1
Name: 37, dtype: object

>  <hydroph_interaction:ASN:129>  (39) 
hydroph_interaction:ASN:129    NaN
hydroph_interaction:ASN:129     -1
Name: 37, dtype: object

>  <halogenbond:ASN:129>  (39) 
halogenbond:ASN:129    NaN
halogenbond:ASN:129     -1
Name: 37, dtype: object

>  <hbond:GLY:130>  (39) 
hbond:GLY:130    NaN
hbond:GLY:130     -1
Name: 37, dtype: object

>  <hbond:LEU:131>  (39) 
hbond:LEU:131    NaN
hbond:LEU:131     -1
Name: 37, dtype: object

>  <hydroph_interaction:LEU:131>  (39) 
hydroph_interaction:LEU:131    NaN
hydroph_interaction:LEU:131     -1
Name: 37, dtype: object

>  <halogenbond:LEU:131>  (39) 
halogenbond:LEU:131    NaN
halogenbond:LEU:131     -1
Name: 37, dtype: object

>  <hydroph_interaction:VAL:132>  (39) 
hydroph_interaction:VAL:132    NaN
hydroph_interaction:VAL:132     -1
Name: 37, dtype: object

>  <hbond:VAL:132>  (39) 
hbond:VAL:132    NaN
hbond:VAL:132     -1
Name: 37, dtype: object

>  <hbond:GLY:133>  (39) 
hbond:GLY:133    NaN
hbond:GLY:133     -1
Name: 37, dtype: object

>  <halogenbond:GLY:133>  (39) 
halogenbond:GLY:133    0.0
halogenbond:GLY:133      0
Name: 37, dtype: object

>  <hydroph_interaction:PHE:134>  (39) 
hydroph_interaction:PHE:134    NaN
hydroph_interaction:PHE:134     -1
Name: 37, dtype: object

>  <hbond:PHE:134>  (39) 
hbond:PHE:134    NaN
hbond:PHE:134     -1
Name: 37, dtype: object

>  <pistack:PHE:134>  (39) 
pistack:PHE:134    NaN
pistack:PHE:134     -1
Name: 37, dtype: object

>  <pication:PHE:134>  (39) 
pication:PHE:134    NaN
pication:PHE:134     -1
Name: 37, dtype: object

>  <halogenbond:PHE:134>  (39) 
halogenbond:PHE:134    NaN
halogenbond:PHE:134     -1
Name: 37, dtype: object

>  <hydroph_interaction:ALA:135>  (39) 
hydroph_interaction:ALA:135    NaN
hydroph_interaction:ALA:135     -1
Name: 37, dtype: object

>  <hbond:ALA:135>  (39) 
hbond:ALA:135    NaN
hbond:ALA:135     -1
Name: 37, dtype: object

$$$$
PV_003424538380
     RDKit          3D

 14 15  0  0  0  0  0  0  0  0999 V2000
   29.6262   13.7569    5.8075 C   0  0  0  0  0  0  0  0  0  0  0  0
   30.1296   13.0878    7.0812 C   0  0  0  0  0  0  0  0  0  0  0  0
   29.7591   13.7976    8.3437 C   0  0  0  0  0  0  0  0  0  0  0  0
   28.3631   14.0170    8.3093 O   0  0  0  0  0  0  0  0  0  0  0  0
   30.8518   11.8259    7.0783 C   0  0  0  0  0  0  0  0  0  0  0  0
   32.0610   11.5068    6.2199 C   0  0  0  0  0  0  0  0  0  0  0  0
   32.6020   12.3935    5.3998 O   0  0  0  0  0  0  0  0  0  0  0  0
   33.6327   11.6104    4.8762 C   0  0  0  0  0  0  0  0  0  0  0  0
   33.8401   10.1409    5.3192 C   0  0  0  0  0  0  0  0  0  0  0  0
   32.7049   10.2946    6.1954 C   0  0  0  0  0  0  0  0  0  0  0  0
   32.1806    9.3158    7.0377 C   0  0  0  0  0  0  0  0  0  0  0  0
   31.0792    9.5170    7.8922 C   0  0  0  0  0  0  0  0  0  0  0  0
   30.5512    8.4424    8.8012 C   0  0  0  0  0  0  0  0  0  0  0  0
   30.4496   10.7651    7.8943 C   0  0  0  0  0  0  0  0  0  0  0  0
  1  2  2  0
  2  3  1  0
  3  4  1  0
  2  5  1  0
  5  6  2  0
  6  7  1  0
  7  8  1  0
  8  9  2  0
  9 10  1  0
 10 11  2  0
 11 12  1  0
 12 13  1  0
 12 14  2  0
 14  5  1  0
 10  6  1  0
A    1
 C1 
A    2
 C2 
A    3
 C3 
A    4
 O1 
A    5
 C4 
A    6
 C5 
A    7
 O2 
A    8
 C6 
A    9
 C7 
A   10
 C8 
A   11
 C9 
A   12
 C10
A   13
 C11
A   14
 C12
M  END
>  <ref_pdb>  (40) 
Ax0310a

>  <ref_mols>  (40) 
Ax0554a,Ax0528a

>  <original SMILES>  (40) 
C=C(CO)c1cc(C)cc2ccoc12

>  <rationale>  (40) 
info halogenbond:C110+G127+D39+A86+S125+E85+Q95+E106+E88+T126+H104+Y64+C65+S87+N129+F83+L131+I82+G128+P91+H21+V84+G133+Y90+Y89+H97+L81+F134+L98+R20+G103+S66+S67+S7+G108+R38+V124+M99+S36; hbond:H21+T126+D109+G108+G103+G128+G130+L131+N129+H104+R68+V124+P91+F83+S67+S66+G112+G133+V132+S77+A135+Y63+A92+A101+M99+F134+L100+I82+Y64+L98+V84+L81+Y94+S80+R38+S37+V102+G8+I123+G111+I113+L114+C65+L22+S96; hydroph_interaction:V124+P107+N129+L40+I123+A135+I82+L100+L98+L131+F83+V132+Y63+F134+H104+A86+V74+P91+A101+F76+M99+L114+A92+Y94+R68+Y72+Y64+V18+V102+W28+G127+G128+L81; pication:H104+Y63+F134+Y90+R68+F83+R20; pistack:H104+F134+Y63+F83+Y94; saltbridge:H104+E106+D109+E85+E88+R68; 

>  <intxn_cluster>  (40) 
-1

>  <intxn_cluster_rank>  (40) 
-1

>  <N_interactions>  (40) 
4

>  <∆∆G>  (40) 
-9.577371

>  <$/mg>  (40) 
0.0

>  <comRMSD>  (40) 
0.620547

>  <N_rotatable_bonds>  (40) 
4

>  <deep_P1_sidechain>  (40) 
nan

>  <farthest_distance_to_substrate>  (40) 
2.277317

>  <hbond:SER:7>  (40) 
hbond:SER:7    0.0
hbond:SER:7      0
Name: 38, dtype: object

>  <halogenbond:SER:7>  (40) 
halogenbond:SER:7    NaN
halogenbond:SER:7     -1
Name: 38, dtype: object

>  <hbond:GLY:8>  (40) 
hbond:GLY:8    NaN
hbond:GLY:8     -1
Name: 38, dtype: object

>  <hydroph_interaction:VAL:18>  (40) 
hydroph_interaction:VAL:18    NaN
hydroph_interaction:VAL:18     -1
Name: 38, dtype: object

>  <hbond:ASN:19>  (40) 
hbond:ASN:19    0.0
hbond:ASN:19      0
Name: 38, dtype: object

>  <hydroph_interaction:ASN:19>  (40) 
hydroph_interaction:ASN:19    0.0
hydroph_interaction:ASN:19      0
Name: 38, dtype: object

>  <halogenbond:ASN:19>  (40) 
halogenbond:ASN:19    0.0
halogenbond:ASN:19      0
Name: 38, dtype: object

>  <hbond:ARG:20>  (40) 
hbond:ARG:20    0.0
hbond:ARG:20      0
Name: 38, dtype: object

>  <hydroph_interaction:ARG:20>  (40) 
hydroph_interaction:ARG:20    0.0
hydroph_interaction:ARG:20      0
Name: 38, dtype: object

>  <saltbridge:ARG:20>  (40) 
saltbridge:ARG:20    0.0
saltbridge:ARG:20      0
Name: 38, dtype: object

>  <halogenbond:ARG:20>  (40) 
halogenbond:ARG:20    NaN
halogenbond:ARG:20     -1
Name: 38, dtype: object

>  <pication:ARG:20>  (40) 
pication:ARG:20    NaN
pication:ARG:20     -1
Name: 38, dtype: object

>  <hbond:HIS:21>  (40) 
hbond:HIS:21    1.0
hbond:HIS:21      1
Name: 38, dtype: object

>  <hydroph_interaction:HIS:21>  (40) 
hydroph_interaction:HIS:21    0.0
hydroph_interaction:HIS:21      0
Name: 38, dtype: object

>  <pistack:HIS:21>  (40) 
pistack:HIS:21    0.0
pistack:HIS:21      0
Name: 38, dtype: object

>  <pication:HIS:21>  (40) 
pication:HIS:21    0.0
pication:HIS:21      0
Name: 38, dtype: object

>  <saltbridge:HIS:21>  (40) 
saltbridge:HIS:21    0.0
saltbridge:HIS:21      0
Name: 38, dtype: object

>  <halogenbond:HIS:21>  (40) 
halogenbond:HIS:21    NaN
halogenbond:HIS:21     -1
Name: 38, dtype: object

>  <hydroph_interaction:LEU:22>  (40) 
hydroph_interaction:LEU:22    0.0
hydroph_interaction:LEU:22      0
Name: 38, dtype: object

>  <hbond:LEU:22>  (40) 
hbond:LEU:22    NaN
hbond:LEU:22     -1
Name: 38, dtype: object

>  <hydroph_interaction:TRP:28>  (40) 
hydroph_interaction:TRP:28    NaN
hydroph_interaction:TRP:28     -1
Name: 38, dtype: object

>  <hbond:SER:36>  (40) 
hbond:SER:36    0.0
hbond:SER:36      0
Name: 38, dtype: object

>  <halogenbond:SER:36>  (40) 
halogenbond:SER:36    NaN
halogenbond:SER:36     -1
Name: 38, dtype: object

>  <hbond:SER:37>  (40) 
hbond:SER:37    NaN
hbond:SER:37     -1
Name: 38, dtype: object

>  <hbond:ARG:38>  (40) 
hbond:ARG:38    NaN
hbond:ARG:38     -1
Name: 38, dtype: object

>  <halogenbond:ARG:38>  (40) 
halogenbond:ARG:38    NaN
halogenbond:ARG:38     -1
Name: 38, dtype: object

>  <saltbridge:ASP:39>  (40) 
saltbridge:ASP:39    0.0
saltbridge:ASP:39      0
Name: 38, dtype: object

>  <halogenbond:ASP:39>  (40) 
halogenbond:ASP:39    NaN
halogenbond:ASP:39     -1
Name: 38, dtype: object

>  <hbond:ASP:39>  (40) 
hbond:ASP:39    0.0
hbond:ASP:39      0
Name: 38, dtype: object

>  <hydroph_interaction:ASP:39>  (40) 
hydroph_interaction:ASP:39    0.0
hydroph_interaction:ASP:39      0
Name: 38, dtype: object

>  <hydroph_interaction:LEU:40>  (40) 
hydroph_interaction:LEU:40    NaN
hydroph_interaction:LEU:40     -1
Name: 38, dtype: object

>  <hydroph_interaction:TYR:63>  (40) 
hydroph_interaction:TYR:63    NaN
hydroph_interaction:TYR:63     -1
Name: 38, dtype: object

>  <hbond:TYR:63>  (40) 
hbond:TYR:63    NaN
hbond:TYR:63     -1
Name: 38, dtype: object

>  <pistack:TYR:63>  (40) 
pistack:TYR:63    NaN
pistack:TYR:63     -1
Name: 38, dtype: object

>  <pication:TYR:63>  (40) 
pication:TYR:63    NaN
pication:TYR:63     -1
Name: 38, dtype: object

>  <halogenbond:TYR:64>  (40) 
halogenbond:TYR:64    NaN
halogenbond:TYR:64     -1
Name: 38, dtype: object

>  <hbond:TYR:64>  (40) 
hbond:TYR:64    NaN
hbond:TYR:64     -1
Name: 38, dtype: object

>  <hydroph_interaction:TYR:64>  (40) 
hydroph_interaction:TYR:64    NaN
hydroph_interaction:TYR:64     -1
Name: 38, dtype: object

>  <halogenbond:CYS:65>  (40) 
halogenbond:CYS:65    NaN
halogenbond:CYS:65     -1
Name: 38, dtype: object

>  <hbond:CYS:65>  (40) 
hbond:CYS:65    NaN
hbond:CYS:65     -1
Name: 38, dtype: object

>  <hbond:SER:66>  (40) 
hbond:SER:66    NaN
hbond:SER:66     -1
Name: 38, dtype: object

>  <halogenbond:SER:66>  (40) 
halogenbond:SER:66    NaN
halogenbond:SER:66     -1
Name: 38, dtype: object

>  <hbond:SER:67>  (40) 
hbond:SER:67    NaN
hbond:SER:67     -1
Name: 38, dtype: object

>  <halogenbond:SER:67>  (40) 
halogenbond:SER:67    NaN
halogenbond:SER:67     -1
Name: 38, dtype: object

>  <hbond:ARG:68>  (40) 
hbond:ARG:68    NaN
hbond:ARG:68     -1
Name: 38, dtype: object

>  <saltbridge:ARG:68>  (40) 
saltbridge:ARG:68    NaN
saltbridge:ARG:68     -1
Name: 38, dtype: object

>  <hydroph_interaction:ARG:68>  (40) 
hydroph_interaction:ARG:68    NaN
hydroph_interaction:ARG:68     -1
Name: 38, dtype: object

>  <pication:ARG:68>  (40) 
pication:ARG:68    NaN
pication:ARG:68     -1
Name: 38, dtype: object

>  <hydroph_interaction:TYR:72>  (40) 
hydroph_interaction:TYR:72    NaN
hydroph_interaction:TYR:72     -1
Name: 38, dtype: object

>  <hydroph_interaction:VAL:74>  (40) 
hydroph_interaction:VAL:74    NaN
hydroph_interaction:VAL:74     -1
Name: 38, dtype: object

>  <hydroph_interaction:PHE:76>  (40) 
hydroph_interaction:PHE:76    NaN
hydroph_interaction:PHE:76     -1
Name: 38, dtype: object

>  <hbond:SER:77>  (40) 
hbond:SER:77    NaN
hbond:SER:77     -1
Name: 38, dtype: object

>  <hbond:SER:80>  (40) 
hbond:SER:80    NaN
hbond:SER:80     -1
Name: 38, dtype: object

>  <hbond:LEU:81>  (40) 
hbond:LEU:81    NaN
hbond:LEU:81     -1
Name: 38, dtype: object

>  <halogenbond:LEU:81>  (40) 
halogenbond:LEU:81    NaN
halogenbond:LEU:81     -1
Name: 38, dtype: object

>  <hydroph_interaction:LEU:81>  (40) 
hydroph_interaction:LEU:81    NaN
hydroph_interaction:LEU:81     -1
Name: 38, dtype: object

>  <hydroph_interaction:ILE:82>  (40) 
hydroph_interaction:ILE:82    NaN
hydroph_interaction:ILE:82     -1
Name: 38, dtype: object

>  <halogenbond:ILE:82>  (40) 
halogenbond:ILE:82    NaN
halogenbond:ILE:82     -1
Name: 38, dtype: object

>  <hbond:ILE:82>  (40) 
hbond:ILE:82    NaN
hbond:ILE:82     -1
Name: 38, dtype: object

>  <hbond:PHE:83>  (40) 
hbond:PHE:83    NaN
hbond:PHE:83     -1
Name: 38, dtype: object

>  <hydroph_interaction:PHE:83>  (40) 
hydroph_interaction:PHE:83    NaN
hydroph_interaction:PHE:83     -1
Name: 38, dtype: object

>  <halogenbond:PHE:83>  (40) 
halogenbond:PHE:83    NaN
halogenbond:PHE:83     -1
Name: 38, dtype: object

>  <pistack:PHE:83>  (40) 
pistack:PHE:83    NaN
pistack:PHE:83     -1
Name: 38, dtype: object

>  <pication:PHE:83>  (40) 
pication:PHE:83    NaN
pication:PHE:83     -1
Name: 38, dtype: object

>  <hydroph_interaction:VAL:84>  (40) 
hydroph_interaction:VAL:84    0.0
hydroph_interaction:VAL:84      0
Name: 38, dtype: object

>  <halogenbond:VAL:84>  (40) 
halogenbond:VAL:84    NaN
halogenbond:VAL:84     -1
Name: 38, dtype: object

>  <hbond:VAL:84>  (40) 
hbond:VAL:84    NaN
hbond:VAL:84     -1
Name: 38, dtype: object

>  <hydroph_interaction:GLU:85>  (40) 
hydroph_interaction:GLU:85    0.0
hydroph_interaction:GLU:85      0
Name: 38, dtype: object

>  <hbond:GLU:85>  (40) 
hbond:GLU:85    0.0
hbond:GLU:85      0
Name: 38, dtype: object

>  <halogenbond:GLU:85>  (40) 
halogenbond:GLU:85    NaN
halogenbond:GLU:85     -1
Name: 38, dtype: object

>  <saltbridge:GLU:85>  (40) 
saltbridge:GLU:85    NaN
saltbridge:GLU:85     -1
Name: 38, dtype: object

>  <halogenbond:ALA:86>  (40) 
halogenbond:ALA:86    NaN
halogenbond:ALA:86     -1
Name: 38, dtype: object

>  <hbond:ALA:86>  (40) 
hbond:ALA:86    0.0
hbond:ALA:86      0
Name: 38, dtype: object

>  <hydroph_interaction:ALA:86>  (40) 
hydroph_interaction:ALA:86    NaN
hydroph_interaction:ALA:86     -1
Name: 38, dtype: object

>  <hbond:SER:87>  (40) 
hbond:SER:87    0
hbond:SER:87    0
Name: 38, dtype: object

>  <halogenbond:SER:87>  (40) 
halogenbond:SER:87    NaN
halogenbond:SER:87     -1
Name: 38, dtype: object

>  <hbond:GLU:88>  (40) 
hbond:GLU:88    0.0
hbond:GLU:88      0
Name: 38, dtype: object

>  <hydroph_interaction:GLU:88>  (40) 
hydroph_interaction:GLU:88    0.0
hydroph_interaction:GLU:88      0
Name: 38, dtype: object

>  <halogenbond:GLU:88>  (40) 
halogenbond:GLU:88    NaN
halogenbond:GLU:88     -1
Name: 38, dtype: object

>  <saltbridge:GLU:88>  (40) 
saltbridge:GLU:88    NaN
saltbridge:GLU:88     -1
Name: 38, dtype: object

>  <hydroph_interaction:TYR:89>  (40) 
hydroph_interaction:TYR:89    0.0
hydroph_interaction:TYR:89      0
Name: 38, dtype: object

>  <pistack:TYR:89>  (40) 
pistack:TYR:89    0.0
pistack:TYR:89      0
Name: 38, dtype: object

>  <hbond:TYR:89>  (40) 
hbond:TYR:89    0.0
hbond:TYR:89      0
Name: 38, dtype: object

>  <halogenbond:TYR:89>  (40) 
halogenbond:TYR:89    NaN
halogenbond:TYR:89     -1
Name: 38, dtype: object

>  <hydroph_interaction:TYR:90>  (40) 
hydroph_interaction:TYR:90    0.0
hydroph_interaction:TYR:90      0
Name: 38, dtype: object

>  <hbond:TYR:90>  (40) 
hbond:TYR:90    0.0
hbond:TYR:90      0
Name: 38, dtype: object

>  <pistack:TYR:90>  (40) 
pistack:TYR:90    0.0
pistack:TYR:90      0
Name: 38, dtype: object

>  <halogenbond:TYR:90>  (40) 
halogenbond:TYR:90    NaN
halogenbond:TYR:90     -1
Name: 38, dtype: object

>  <pication:TYR:90>  (40) 
pication:TYR:90    NaN
pication:TYR:90     -1
Name: 38, dtype: object

>  <hbond:PRO:91>  (40) 
hbond:PRO:91    NaN
hbond:PRO:91     -1
Name: 38, dtype: object

>  <hydroph_interaction:PRO:91>  (40) 
hydroph_interaction:PRO:91    NaN
hydroph_interaction:PRO:91     -1
Name: 38, dtype: object

>  <halogenbond:PRO:91>  (40) 
halogenbond:PRO:91    NaN
halogenbond:PRO:91     -1
Name: 38, dtype: object

>  <hbond:ALA:92>  (40) 
hbond:ALA:92    NaN
hbond:ALA:92     -1
Name: 38, dtype: object

>  <hydroph_interaction:ALA:92>  (40) 
hydroph_interaction:ALA:92    NaN
hydroph_interaction:ALA:92     -1
Name: 38, dtype: object

>  <saltbridge:ARG:93>  (40) 
saltbridge:ARG:93    0.0
saltbridge:ARG:93      0
Name: 38, dtype: object

>  <hbond:ARG:93>  (40) 
hbond:ARG:93    0.0
hbond:ARG:93      0
Name: 38, dtype: object

>  <hydroph_interaction:ARG:93>  (40) 
hydroph_interaction:ARG:93    0.0
hydroph_interaction:ARG:93      0
Name: 38, dtype: object

>  <halogenbond:ARG:93>  (40) 
halogenbond:ARG:93    0.0
halogenbond:ARG:93      0
Name: 38, dtype: object

>  <pication:ARG:93>  (40) 
pication:ARG:93    0.0
pication:ARG:93      0
Name: 38, dtype: object

>  <hydroph_interaction:TYR:94>  (40) 
hydroph_interaction:TYR:94    NaN
hydroph_interaction:TYR:94     -1
Name: 38, dtype: object

>  <pistack:TYR:94>  (40) 
pistack:TYR:94    NaN
pistack:TYR:94     -1
Name: 38, dtype: object

>  <hbond:TYR:94>  (40) 
hbond:TYR:94    NaN
hbond:TYR:94     -1
Name: 38, dtype: object

>  <hbond:GLN:95>  (40) 
hbond:GLN:95    0.0
hbond:GLN:95      0
Name: 38, dtype: object

>  <hydroph_interaction:GLN:95>  (40) 
hydroph_interaction:GLN:95    0.0
hydroph_interaction:GLN:95      0
Name: 38, dtype: object

>  <halogenbond:GLN:95>  (40) 
halogenbond:GLN:95    NaN
halogenbond:GLN:95     -1
Name: 38, dtype: object

>  <hbond:SER:96>  (40) 
hbond:SER:96    NaN
hbond:SER:96     -1
Name: 38, dtype: object

>  <halogenbond:HIS:97>  (40) 
halogenbond:HIS:97    NaN
halogenbond:HIS:97     -1
Name: 38, dtype: object

>  <hydroph_interaction:LEU:98>  (40) 
hydroph_interaction:LEU:98    NaN
hydroph_interaction:LEU:98     -1
Name: 38, dtype: object

>  <hbond:LEU:98>  (40) 
hbond:LEU:98    NaN
hbond:LEU:98     -1
Name: 38, dtype: object

>  <halogenbond:LEU:98>  (40) 
halogenbond:LEU:98    NaN
halogenbond:LEU:98     -1
Name: 38, dtype: object

>  <hbond:MET:99>  (40) 
hbond:MET:99    NaN
hbond:MET:99     -1
Name: 38, dtype: object

>  <hydroph_interaction:MET:99>  (40) 
hydroph_interaction:MET:99    NaN
hydroph_interaction:MET:99     -1
Name: 38, dtype: object

>  <halogenbond:MET:99>  (40) 
halogenbond:MET:99    NaN
halogenbond:MET:99     -1
Name: 38, dtype: object

>  <hydroph_interaction:LEU:100>  (40) 
hydroph_interaction:LEU:100    NaN
hydroph_interaction:LEU:100     -1
Name: 38, dtype: object

>  <hbond:LEU:100>  (40) 
hbond:LEU:100    NaN
hbond:LEU:100     -1
Name: 38, dtype: object

>  <hbond:ALA:101>  (40) 
hbond:ALA:101    NaN
hbond:ALA:101     -1
Name: 38, dtype: object

>  <hydroph_interaction:ALA:101>  (40) 
hydroph_interaction:ALA:101    NaN
hydroph_interaction:ALA:101     -1
Name: 38, dtype: object

>  <hydroph_interaction:VAL:102>  (40) 
hydroph_interaction:VAL:102    NaN
hydroph_interaction:VAL:102     -1
Name: 38, dtype: object

>  <hbond:VAL:102>  (40) 
hbond:VAL:102    NaN
hbond:VAL:102     -1
Name: 38, dtype: object

>  <hbond:GLY:103>  (40) 
hbond:GLY:103    NaN
hbond:GLY:103     -1
Name: 38, dtype: object

>  <halogenbond:GLY:103>  (40) 
halogenbond:GLY:103    NaN
halogenbond:GLY:103     -1
Name: 38, dtype: object

>  <hbond:HIS:104>  (40) 
hbond:HIS:104    NaN
hbond:HIS:104     -1
Name: 38, dtype: object

>  <saltbridge:HIS:104>  (40) 
saltbridge:HIS:104    NaN
saltbridge:HIS:104     -1
Name: 38, dtype: object

>  <pication:HIS:104>  (40) 
pication:HIS:104    NaN
pication:HIS:104     -1
Name: 38, dtype: object

>  <halogenbond:HIS:104>  (40) 
halogenbond:HIS:104    NaN
halogenbond:HIS:104     -1
Name: 38, dtype: object

>  <hydroph_interaction:HIS:104>  (40) 
hydroph_interaction:HIS:104    NaN
hydroph_interaction:HIS:104     -1
Name: 38, dtype: object

>  <pistack:HIS:104>  (40) 
pistack:HIS:104    NaN
pistack:HIS:104     -1
Name: 38, dtype: object

>  <halogenbond:SER:105>  (40) 
halogenbond:SER:105    0.0
halogenbond:SER:105      0
Name: 38, dtype: object

>  <hbond:SER:105>  (40) 
hbond:SER:105    0.0
hbond:SER:105      0
Name: 38, dtype: object

>  <hbond:GLU:106>  (40) 
hbond:GLU:106    0.0
hbond:GLU:106      0
Name: 38, dtype: object

>  <hydroph_interaction:GLU:106>  (40) 
hydroph_interaction:GLU:106    0.0
hydroph_interaction:GLU:106      0
Name: 38, dtype: object

>  <saltbridge:GLU:106>  (40) 
saltbridge:GLU:106    NaN
saltbridge:GLU:106     -1
Name: 38, dtype: object

>  <halogenbond:GLU:106>  (40) 
halogenbond:GLU:106    NaN
halogenbond:GLU:106     -1
Name: 38, dtype: object

>  <hydroph_interaction:PRO:107>  (40) 
hydroph_interaction:PRO:107    2
hydroph_interaction:PRO:107    2
Name: 38, dtype: object

>  <hbond:PRO:107>  (40) 
hbond:PRO:107    0.0
hbond:PRO:107      0
Name: 38, dtype: object

>  <halogenbond:PRO:107>  (40) 
halogenbond:PRO:107    0.0
halogenbond:PRO:107      0
Name: 38, dtype: object

>  <hbond:GLY:108>  (40) 
hbond:GLY:108    NaN
hbond:GLY:108     -1
Name: 38, dtype: object

>  <halogenbond:GLY:108>  (40) 
halogenbond:GLY:108    NaN
halogenbond:GLY:108     -1
Name: 38, dtype: object

>  <hbond:ASP:109>  (40) 
hbond:ASP:109    NaN
hbond:ASP:109     -1
Name: 38, dtype: object

>  <hydroph_interaction:ASP:109>  (40) 
hydroph_interaction:ASP:109    0.0
hydroph_interaction:ASP:109      0
Name: 38, dtype: object

>  <saltbridge:ASP:109>  (40) 
saltbridge:ASP:109    NaN
saltbridge:ASP:109     -1
Name: 38, dtype: object

>  <halogenbond:CYS:110>  (40) 
halogenbond:CYS:110    NaN
halogenbond:CYS:110     -1
Name: 38, dtype: object

>  <hbond:CYS:110>  (40) 
hbond:CYS:110    0.0
hbond:CYS:110      0
Name: 38, dtype: object

>  <hbond:GLY:111>  (40) 
hbond:GLY:111    NaN
hbond:GLY:111     -1
Name: 38, dtype: object

>  <hbond:GLY:112>  (40) 
hbond:GLY:112    NaN
hbond:GLY:112     -1
Name: 38, dtype: object

>  <hbond:ILE:113>  (40) 
hbond:ILE:113    NaN
hbond:ILE:113     -1
Name: 38, dtype: object

>  <hydroph_interaction:LEU:114>  (40) 
hydroph_interaction:LEU:114    NaN
hydroph_interaction:LEU:114     -1
Name: 38, dtype: object

>  <hbond:LEU:114>  (40) 
hbond:LEU:114    NaN
hbond:LEU:114     -1
Name: 38, dtype: object

>  <hydroph_interaction:ILE:123>  (40) 
hydroph_interaction:ILE:123    NaN
hydroph_interaction:ILE:123     -1
Name: 38, dtype: object

>  <hbond:ILE:123>  (40) 
hbond:ILE:123    NaN
hbond:ILE:123     -1
Name: 38, dtype: object

>  <hydroph_interaction:VAL:124>  (40) 
hydroph_interaction:VAL:124    1.0
hydroph_interaction:VAL:124      1
Name: 38, dtype: object

>  <hbond:VAL:124>  (40) 
hbond:VAL:124    NaN
hbond:VAL:124     -1
Name: 38, dtype: object

>  <halogenbond:VAL:124>  (40) 
halogenbond:VAL:124    NaN
halogenbond:VAL:124     -1
Name: 38, dtype: object

>  <hbond:SER:125>  (40) 
hbond:SER:125    0
hbond:SER:125    0
Name: 38, dtype: object

>  <halogenbond:SER:125>  (40) 
halogenbond:SER:125    NaN
halogenbond:SER:125     -1
Name: 38, dtype: object

>  <hydroph_interaction:THR:126>  (40) 
hydroph_interaction:THR:126    0.0
hydroph_interaction:THR:126      0
Name: 38, dtype: object

>  <hbond:THR:126>  (40) 
hbond:THR:126    NaN
hbond:THR:126     -1
Name: 38, dtype: object

>  <halogenbond:THR:126>  (40) 
halogenbond:THR:126    NaN
halogenbond:THR:126     -1
Name: 38, dtype: object

>  <hbond:GLY:127>  (40) 
hbond:GLY:127    0
hbond:GLY:127    0
Name: 38, dtype: object

>  <halogenbond:GLY:127>  (40) 
halogenbond:GLY:127    NaN
halogenbond:GLY:127     -1
Name: 38, dtype: object

>  <hydroph_interaction:GLY:127>  (40) 
hydroph_interaction:GLY:127    NaN
hydroph_interaction:GLY:127     -1
Name: 38, dtype: object

>  <hbond:GLY:128>  (40) 
hbond:GLY:128    NaN
hbond:GLY:128     -1
Name: 38, dtype: object

>  <halogenbond:GLY:128>  (40) 
halogenbond:GLY:128    NaN
halogenbond:GLY:128     -1
Name: 38, dtype: object

>  <hydroph_interaction:GLY:128>  (40) 
hydroph_interaction:GLY:128    NaN
hydroph_interaction:GLY:128     -1
Name: 38, dtype: object

>  <hbond:ASN:129>  (40) 
hbond:ASN:129    NaN
hbond:ASN:129     -1
Name: 38, dtype: object

>  <hydroph_interaction:ASN:129>  (40) 
hydroph_interaction:ASN:129    NaN
hydroph_interaction:ASN:129     -1
Name: 38, dtype: object

>  <halogenbond:ASN:129>  (40) 
halogenbond:ASN:129    NaN
halogenbond:ASN:129     -1
Name: 38, dtype: object

>  <hbond:GLY:130>  (40) 
hbond:GLY:130    NaN
hbond:GLY:130     -1
Name: 38, dtype: object

>  <hbond:LEU:131>  (40) 
hbond:LEU:131    NaN
hbond:LEU:131     -1
Name: 38, dtype: object

>  <hydroph_interaction:LEU:131>  (40) 
hydroph_interaction:LEU:131    NaN
hydroph_interaction:LEU:131     -1
Name: 38, dtype: object

>  <halogenbond:LEU:131>  (40) 
halogenbond:LEU:131    NaN
halogenbond:LEU:131     -1
Name: 38, dtype: object

>  <hydroph_interaction:VAL:132>  (40) 
hydroph_interaction:VAL:132    NaN
hydroph_interaction:VAL:132     -1
Name: 38, dtype: object

>  <hbond:VAL:132>  (40) 
hbond:VAL:132    NaN
hbond:VAL:132     -1
Name: 38, dtype: object

>  <hbond:GLY:133>  (40) 
hbond:GLY:133    NaN
hbond:GLY:133     -1
Name: 38, dtype: object

>  <halogenbond:GLY:133>  (40) 
halogenbond:GLY:133    NaN
halogenbond:GLY:133     -1
Name: 38, dtype: object

>  <hydroph_interaction:PHE:134>  (40) 
hydroph_interaction:PHE:134    NaN
hydroph_interaction:PHE:134     -1
Name: 38, dtype: object

>  <hbond:PHE:134>  (40) 
hbond:PHE:134    NaN
hbond:PHE:134     -1
Name: 38, dtype: object

>  <pistack:PHE:134>  (40) 
pistack:PHE:134    NaN
pistack:PHE:134     -1
Name: 38, dtype: object

>  <pication:PHE:134>  (40) 
pication:PHE:134    NaN
pication:PHE:134     -1
Name: 38, dtype: object

>  <halogenbond:PHE:134>  (40) 
halogenbond:PHE:134    NaN
halogenbond:PHE:134     -1
Name: 38, dtype: object

>  <hydroph_interaction:ALA:135>  (40) 
hydroph_interaction:ALA:135    NaN
hydroph_interaction:ALA:135     -1
Name: 38, dtype: object

>  <hbond:ALA:135>  (40) 
hbond:ALA:135    NaN
hbond:ALA:135     -1
Name: 38, dtype: object

$$$$
PV_002932104261
     RDKit          3D

 13 13  0  0  0  0  0  0  0  0999 V2000
   28.7071   14.8478    8.3246 C   0  0  0  0  0  0  0  0  0  0  0  0
   29.2915   13.6109    7.7029 C   0  0  0  0  0  0  0  0  0  0  0  0
   28.7752   13.0628    6.4608 C   0  0  0  0  0  0  0  0  0  0  0  0
   30.3129   12.9413    8.2567 C   0  0  0  0  0  0  0  0  0  0  0  0
   30.9702   11.6827    7.7714 C   0  0  0  0  0  0  0  0  0  0  0  0
   30.5032   10.5316    8.3395 C   0  0  0  0  0  0  0  0  0  0  0  0
   31.0487    9.2309    7.9720 C   0  0  0  0  0  0  0  0  0  0  0  0
   30.5678    8.1101    8.5566 C   0  0  0  0  0  0  0  0  0  0  0  0
   32.0603    9.1976    7.0157 C   0  0  0  0  0  0  0  0  0  0  0  0
   32.5305   10.3844    6.4385 C   0  0  0  0  0  0  0  0  0  0  0  0
   33.6369   10.2005    5.4134 C   0  0  0  0  0  0  0  0  0  0  0  0
   31.9907   11.6202    6.8136 C   0  0  0  0  0  0  0  0  0  0  0  0
   32.4500   12.7840    6.2573 O   0  0  0  0  0  0  0  0  0  0  0  0
  1  2  1  0
  2  3  1  0
  2  4  2  3
  4  5  1  0
  5  6  2  0
  6  7  1  0
  7  8  1  0
  7  9  2  0
  9 10  1  0
 10 11  1  0
 10 12  2  0
 12 13  1  0
 12  5  1  0
A    1
 C1 
A    2
 C2 
A    3
 C3 
A    4
 C4 
A    5
 C5 
A    6
 C6 
A    7
 C7 
A    8
 C8 
A    9
 C9 
A   10
 C10
A   11
 C11
A   12
 C12
A   13
 O1 
M  END
>  <ref_pdb>  (41) 
Ax0310a

>  <ref_mols>  (41) 
Ax0554a,Ax0739a

>  <original SMILES>  (41) 
CC(C)=Cc1cc(C)cc(C)c1O

>  <rationale>  (41) 
info halogenbond:C110+G127+A86+S125+E85+Q95+E106+E88+T126+P107+H104+Y64+C65+S87+N129+F83+R93+L131+I82+G128+P91+N19+H21+V84+G133+Y90+Y89+H97+L81+F134+L98+R20+G103+S66+S67+S7+G108+R38+V124+M99+S36; hbond:Q95+D39+A86+C110+D109+E85+G108+G103+G128+G130+L131+N129+N19+H104+R68+V124+P91+F83+S67+S7+S66+G112+G133+V132+R20+Y89+S77+A135+Y63+A92+A101+M99+F134+L100+I82+Y64+S36+L98+V84+L81+Y94+S80+R38+S37+V102+G8+I123+G111+I113+L114+C65+L22+S96; hydroph_interaction:V84+V124+P107+E85+E88+D109+N129+L40+I123+A135+Q95+I82+L100+L98+L131+F83+R93+V132+Y63+F134+H104+R20+A86+V74+P91+A101+F76+M99+L114+A92+Y94+R68+Y72+Y64+V18+V102+W28+G127+G128+L81; pication:H104+R93+Y63+F134+Y90+R68+F83+R20; pistack:H21+Y89+Y90+H104+F134+Y63+F83+Y94; saltbridge:D39+R93+H104+E106+D109+E85+E88+R68+R20; 

>  <intxn_cluster>  (41) 
-1

>  <intxn_cluster_rank>  (41) 
-1

>  <N_interactions>  (41) 
2

>  <∆∆G>  (41) 
-12.561478

>  <$/mg>  (41) 
163.0

>  <comRMSD>  (41) 
0.86531

>  <N_rotatable_bonds>  (41) 
6

>  <deep_P1_sidechain>  (41) 
nan

>  <farthest_distance_to_substrate>  (41) 
2.227511

>  <hbond:SER:7>  (41) 
hbond:SER:7    NaN
hbond:SER:7     -1
Name: 39, dtype: object

>  <halogenbond:SER:7>  (41) 
halogenbond:SER:7    NaN
halogenbond:SER:7     -1
Name: 39, dtype: object

>  <hbond:GLY:8>  (41) 
hbond:GLY:8    NaN
hbond:GLY:8     -1
Name: 39, dtype: object

>  <hydroph_interaction:VAL:18>  (41) 
hydroph_interaction:VAL:18    NaN
hydroph_interaction:VAL:18     -1
Name: 39, dtype: object

>  <hbond:ASN:19>  (41) 
hbond:ASN:19    NaN
hbond:ASN:19     -1
Name: 39, dtype: object

>  <hydroph_interaction:ASN:19>  (41) 
hydroph_interaction:ASN:19    0.0
hydroph_interaction:ASN:19      0
Name: 39, dtype: object

>  <halogenbond:ASN:19>  (41) 
halogenbond:ASN:19    NaN
halogenbond:ASN:19     -1
Name: 39, dtype: object

>  <hbond:ARG:20>  (41) 
hbond:ARG:20    NaN
hbond:ARG:20     -1
Name: 39, dtype: object

>  <hydroph_interaction:ARG:20>  (41) 
hydroph_interaction:ARG:20    NaN
hydroph_interaction:ARG:20     -1
Name: 39, dtype: object

>  <saltbridge:ARG:20>  (41) 
saltbridge:ARG:20    NaN
saltbridge:ARG:20     -1
Name: 39, dtype: object

>  <halogenbond:ARG:20>  (41) 
halogenbond:ARG:20    NaN
halogenbond:ARG:20     -1
Name: 39, dtype: object

>  <pication:ARG:20>  (41) 
pication:ARG:20    NaN
pication:ARG:20     -1
Name: 39, dtype: object

>  <hbond:HIS:21>  (41) 
hbond:HIS:21    0.0
hbond:HIS:21      0
Name: 39, dtype: object

>  <hydroph_interaction:HIS:21>  (41) 
hydroph_interaction:HIS:21    0.0
hydroph_interaction:HIS:21      0
Name: 39, dtype: object

>  <pistack:HIS:21>  (41) 
pistack:HIS:21    NaN
pistack:HIS:21     -1
Name: 39, dtype: object

>  <pication:HIS:21>  (41) 
pication:HIS:21    0.0
pication:HIS:21      0
Name: 39, dtype: object

>  <saltbridge:HIS:21>  (41) 
saltbridge:HIS:21    0.0
saltbridge:HIS:21      0
Name: 39, dtype: object

>  <halogenbond:HIS:21>  (41) 
halogenbond:HIS:21    NaN
halogenbond:HIS:21     -1
Name: 39, dtype: object

>  <hydroph_interaction:LEU:22>  (41) 
hydroph_interaction:LEU:22    0.0
hydroph_interaction:LEU:22      0
Name: 39, dtype: object

>  <hbond:LEU:22>  (41) 
hbond:LEU:22    NaN
hbond:LEU:22     -1
Name: 39, dtype: object

>  <hydroph_interaction:TRP:28>  (41) 
hydroph_interaction:TRP:28    NaN
hydroph_interaction:TRP:28     -1
Name: 39, dtype: object

>  <hbond:SER:36>  (41) 
hbond:SER:36    NaN
hbond:SER:36     -1
Name: 39, dtype: object

>  <halogenbond:SER:36>  (41) 
halogenbond:SER:36    NaN
halogenbond:SER:36     -1
Name: 39, dtype: object

>  <hbond:SER:37>  (41) 
hbond:SER:37    NaN
hbond:SER:37     -1
Name: 39, dtype: object

>  <hbond:ARG:38>  (41) 
hbond:ARG:38    NaN
hbond:ARG:38     -1
Name: 39, dtype: object

>  <halogenbond:ARG:38>  (41) 
halogenbond:ARG:38    NaN
halogenbond:ARG:38     -1
Name: 39, dtype: object

>  <saltbridge:ASP:39>  (41) 
saltbridge:ASP:39    NaN
saltbridge:ASP:39     -1
Name: 39, dtype: object

>  <halogenbond:ASP:39>  (41) 
halogenbond:ASP:39    0.0
halogenbond:ASP:39      0
Name: 39, dtype: object

>  <hbond:ASP:39>  (41) 
hbond:ASP:39    NaN
hbond:ASP:39     -1
Name: 39, dtype: object

>  <hydroph_interaction:ASP:39>  (41) 
hydroph_interaction:ASP:39    0.0
hydroph_interaction:ASP:39      0
Name: 39, dtype: object

>  <hydroph_interaction:LEU:40>  (41) 
hydroph_interaction:LEU:40    NaN
hydroph_interaction:LEU:40     -1
Name: 39, dtype: object

>  <hydroph_interaction:TYR:63>  (41) 
hydroph_interaction:TYR:63    NaN
hydroph_interaction:TYR:63     -1
Name: 39, dtype: object

>  <hbond:TYR:63>  (41) 
hbond:TYR:63    NaN
hbond:TYR:63     -1
Name: 39, dtype: object

>  <pistack:TYR:63>  (41) 
pistack:TYR:63    NaN
pistack:TYR:63     -1
Name: 39, dtype: object

>  <pication:TYR:63>  (41) 
pication:TYR:63    NaN
pication:TYR:63     -1
Name: 39, dtype: object

>  <halogenbond:TYR:64>  (41) 
halogenbond:TYR:64    NaN
halogenbond:TYR:64     -1
Name: 39, dtype: object

>  <hbond:TYR:64>  (41) 
hbond:TYR:64    NaN
hbond:TYR:64     -1
Name: 39, dtype: object

>  <hydroph_interaction:TYR:64>  (41) 
hydroph_interaction:TYR:64    NaN
hydroph_interaction:TYR:64     -1
Name: 39, dtype: object

>  <halogenbond:CYS:65>  (41) 
halogenbond:CYS:65    NaN
halogenbond:CYS:65     -1
Name: 39, dtype: object

>  <hbond:CYS:65>  (41) 
hbond:CYS:65    NaN
hbond:CYS:65     -1
Name: 39, dtype: object

>  <hbond:SER:66>  (41) 
hbond:SER:66    NaN
hbond:SER:66     -1
Name: 39, dtype: object

>  <halogenbond:SER:66>  (41) 
halogenbond:SER:66    NaN
halogenbond:SER:66     -1
Name: 39, dtype: object

>  <hbond:SER:67>  (41) 
hbond:SER:67    NaN
hbond:SER:67     -1
Name: 39, dtype: object

>  <halogenbond:SER:67>  (41) 
halogenbond:SER:67    NaN
halogenbond:SER:67     -1
Name: 39, dtype: object

>  <hbond:ARG:68>  (41) 
hbond:ARG:68    NaN
hbond:ARG:68     -1
Name: 39, dtype: object

>  <saltbridge:ARG:68>  (41) 
saltbridge:ARG:68    NaN
saltbridge:ARG:68     -1
Name: 39, dtype: object

>  <hydroph_interaction:ARG:68>  (41) 
hydroph_interaction:ARG:68    NaN
hydroph_interaction:ARG:68     -1
Name: 39, dtype: object

>  <pication:ARG:68>  (41) 
pication:ARG:68    NaN
pication:ARG:68     -1
Name: 39, dtype: object

>  <hydroph_interaction:TYR:72>  (41) 
hydroph_interaction:TYR:72    NaN
hydroph_interaction:TYR:72     -1
Name: 39, dtype: object

>  <hydroph_interaction:VAL:74>  (41) 
hydroph_interaction:VAL:74    NaN
hydroph_interaction:VAL:74     -1
Name: 39, dtype: object

>  <hydroph_interaction:PHE:76>  (41) 
hydroph_interaction:PHE:76    NaN
hydroph_interaction:PHE:76     -1
Name: 39, dtype: object

>  <hbond:SER:77>  (41) 
hbond:SER:77    NaN
hbond:SER:77     -1
Name: 39, dtype: object

>  <hbond:SER:80>  (41) 
hbond:SER:80    NaN
hbond:SER:80     -1
Name: 39, dtype: object

>  <hbond:LEU:81>  (41) 
hbond:LEU:81    NaN
hbond:LEU:81     -1
Name: 39, dtype: object

>  <halogenbond:LEU:81>  (41) 
halogenbond:LEU:81    NaN
halogenbond:LEU:81     -1
Name: 39, dtype: object

>  <hydroph_interaction:LEU:81>  (41) 
hydroph_interaction:LEU:81    NaN
hydroph_interaction:LEU:81     -1
Name: 39, dtype: object

>  <hydroph_interaction:ILE:82>  (41) 
hydroph_interaction:ILE:82    NaN
hydroph_interaction:ILE:82     -1
Name: 39, dtype: object

>  <halogenbond:ILE:82>  (41) 
halogenbond:ILE:82    NaN
halogenbond:ILE:82     -1
Name: 39, dtype: object

>  <hbond:ILE:82>  (41) 
hbond:ILE:82    NaN
hbond:ILE:82     -1
Name: 39, dtype: object

>  <hbond:PHE:83>  (41) 
hbond:PHE:83    NaN
hbond:PHE:83     -1
Name: 39, dtype: object

>  <hydroph_interaction:PHE:83>  (41) 
hydroph_interaction:PHE:83    NaN
hydroph_interaction:PHE:83     -1
Name: 39, dtype: object

>  <halogenbond:PHE:83>  (41) 
halogenbond:PHE:83    NaN
halogenbond:PHE:83     -1
Name: 39, dtype: object

>  <pistack:PHE:83>  (41) 
pistack:PHE:83    NaN
pistack:PHE:83     -1
Name: 39, dtype: object

>  <pication:PHE:83>  (41) 
pication:PHE:83    NaN
pication:PHE:83     -1
Name: 39, dtype: object

>  <hydroph_interaction:VAL:84>  (41) 
hydroph_interaction:VAL:84    NaN
hydroph_interaction:VAL:84     -1
Name: 39, dtype: object

>  <halogenbond:VAL:84>  (41) 
halogenbond:VAL:84    NaN
halogenbond:VAL:84     -1
Name: 39, dtype: object

>  <hbond:VAL:84>  (41) 
hbond:VAL:84    NaN
hbond:VAL:84     -1
Name: 39, dtype: object

>  <hydroph_interaction:GLU:85>  (41) 
hydroph_interaction:GLU:85    NaN
hydroph_interaction:GLU:85     -1
Name: 39, dtype: object

>  <hbond:GLU:85>  (41) 
hbond:GLU:85    NaN
hbond:GLU:85     -1
Name: 39, dtype: object

>  <halogenbond:GLU:85>  (41) 
halogenbond:GLU:85    NaN
halogenbond:GLU:85     -1
Name: 39, dtype: object

>  <saltbridge:GLU:85>  (41) 
saltbridge:GLU:85    NaN
saltbridge:GLU:85     -1
Name: 39, dtype: object

>  <halogenbond:ALA:86>  (41) 
halogenbond:ALA:86    NaN
halogenbond:ALA:86     -1
Name: 39, dtype: object

>  <hbond:ALA:86>  (41) 
hbond:ALA:86    NaN
hbond:ALA:86     -1
Name: 39, dtype: object

>  <hydroph_interaction:ALA:86>  (41) 
hydroph_interaction:ALA:86    NaN
hydroph_interaction:ALA:86     -1
Name: 39, dtype: object

>  <hbond:SER:87>  (41) 
hbond:SER:87    0
hbond:SER:87    0
Name: 39, dtype: object

>  <halogenbond:SER:87>  (41) 
halogenbond:SER:87    NaN
halogenbond:SER:87     -1
Name: 39, dtype: object

>  <hbond:GLU:88>  (41) 
hbond:GLU:88    0.0
hbond:GLU:88      0
Name: 39, dtype: object

>  <hydroph_interaction:GLU:88>  (41) 
hydroph_interaction:GLU:88    NaN
hydroph_interaction:GLU:88     -1
Name: 39, dtype: object

>  <halogenbond:GLU:88>  (41) 
halogenbond:GLU:88    NaN
halogenbond:GLU:88     -1
Name: 39, dtype: object

>  <saltbridge:GLU:88>  (41) 
saltbridge:GLU:88    NaN
saltbridge:GLU:88     -1
Name: 39, dtype: object

>  <hydroph_interaction:TYR:89>  (41) 
hydroph_interaction:TYR:89    0.0
hydroph_interaction:TYR:89      0
Name: 39, dtype: object

>  <pistack:TYR:89>  (41) 
pistack:TYR:89    NaN
pistack:TYR:89     -1
Name: 39, dtype: object

>  <hbond:TYR:89>  (41) 
hbond:TYR:89    NaN
hbond:TYR:89     -1
Name: 39, dtype: object

>  <halogenbond:TYR:89>  (41) 
halogenbond:TYR:89    NaN
halogenbond:TYR:89     -1
Name: 39, dtype: object

>  <hydroph_interaction:TYR:90>  (41) 
hydroph_interaction:TYR:90    0.0
hydroph_interaction:TYR:90      0
Name: 39, dtype: object

>  <hbond:TYR:90>  (41) 
hbond:TYR:90    0.0
hbond:TYR:90      0
Name: 39, dtype: object

>  <pistack:TYR:90>  (41) 
pistack:TYR:90    NaN
pistack:TYR:90     -1
Name: 39, dtype: object

>  <halogenbond:TYR:90>  (41) 
halogenbond:TYR:90    NaN
halogenbond:TYR:90     -1
Name: 39, dtype: object

>  <pication:TYR:90>  (41) 
pication:TYR:90    NaN
pication:TYR:90     -1
Name: 39, dtype: object

>  <hbond:PRO:91>  (41) 
hbond:PRO:91    NaN
hbond:PRO:91     -1
Name: 39, dtype: object

>  <hydroph_interaction:PRO:91>  (41) 
hydroph_interaction:PRO:91    NaN
hydroph_interaction:PRO:91     -1
Name: 39, dtype: object

>  <halogenbond:PRO:91>  (41) 
halogenbond:PRO:91    NaN
halogenbond:PRO:91     -1
Name: 39, dtype: object

>  <hbond:ALA:92>  (41) 
hbond:ALA:92    NaN
hbond:ALA:92     -1
Name: 39, dtype: object

>  <hydroph_interaction:ALA:92>  (41) 
hydroph_interaction:ALA:92    NaN
hydroph_interaction:ALA:92     -1
Name: 39, dtype: object

>  <saltbridge:ARG:93>  (41) 
saltbridge:ARG:93    NaN
saltbridge:ARG:93     -1
Name: 39, dtype: object

>  <hbond:ARG:93>  (41) 
hbond:ARG:93    0.0
hbond:ARG:93      0
Name: 39, dtype: object

>  <hydroph_interaction:ARG:93>  (41) 
hydroph_interaction:ARG:93    NaN
hydroph_interaction:ARG:93     -1
Name: 39, dtype: object

>  <halogenbond:ARG:93>  (41) 
halogenbond:ARG:93    NaN
halogenbond:ARG:93     -1
Name: 39, dtype: object

>  <pication:ARG:93>  (41) 
pication:ARG:93    NaN
pication:ARG:93     -1
Name: 39, dtype: object

>  <hydroph_interaction:TYR:94>  (41) 
hydroph_interaction:TYR:94    NaN
hydroph_interaction:TYR:94     -1
Name: 39, dtype: object

>  <pistack:TYR:94>  (41) 
pistack:TYR:94    NaN
pistack:TYR:94     -1
Name: 39, dtype: object

>  <hbond:TYR:94>  (41) 
hbond:TYR:94    NaN
hbond:TYR:94     -1
Name: 39, dtype: object

>  <hbond:GLN:95>  (41) 
hbond:GLN:95    NaN
hbond:GLN:95     -1
Name: 39, dtype: object

>  <hydroph_interaction:GLN:95>  (41) 
hydroph_interaction:GLN:95    NaN
hydroph_interaction:GLN:95     -1
Name: 39, dtype: object

>  <halogenbond:GLN:95>  (41) 
halogenbond:GLN:95    NaN
halogenbond:GLN:95     -1
Name: 39, dtype: object

>  <hbond:SER:96>  (41) 
hbond:SER:96    NaN
hbond:SER:96     -1
Name: 39, dtype: object

>  <halogenbond:HIS:97>  (41) 
halogenbond:HIS:97    NaN
halogenbond:HIS:97     -1
Name: 39, dtype: object

>  <hydroph_interaction:LEU:98>  (41) 
hydroph_interaction:LEU:98    NaN
hydroph_interaction:LEU:98     -1
Name: 39, dtype: object

>  <hbond:LEU:98>  (41) 
hbond:LEU:98    NaN
hbond:LEU:98     -1
Name: 39, dtype: object

>  <halogenbond:LEU:98>  (41) 
halogenbond:LEU:98    NaN
halogenbond:LEU:98     -1
Name: 39, dtype: object

>  <hbond:MET:99>  (41) 
hbond:MET:99    NaN
hbond:MET:99     -1
Name: 39, dtype: object

>  <hydroph_interaction:MET:99>  (41) 
hydroph_interaction:MET:99    NaN
hydroph_interaction:MET:99     -1
Name: 39, dtype: object

>  <halogenbond:MET:99>  (41) 
halogenbond:MET:99    NaN
halogenbond:MET:99     -1
Name: 39, dtype: object

>  <hydroph_interaction:LEU:100>  (41) 
hydroph_interaction:LEU:100    NaN
hydroph_interaction:LEU:100     -1
Name: 39, dtype: object

>  <hbond:LEU:100>  (41) 
hbond:LEU:100    NaN
hbond:LEU:100     -1
Name: 39, dtype: object

>  <hbond:ALA:101>  (41) 
hbond:ALA:101    NaN
hbond:ALA:101     -1
Name: 39, dtype: object

>  <hydroph_interaction:ALA:101>  (41) 
hydroph_interaction:ALA:101    NaN
hydroph_interaction:ALA:101     -1
Name: 39, dtype: object

>  <hydroph_interaction:VAL:102>  (41) 
hydroph_interaction:VAL:102    NaN
hydroph_interaction:VAL:102     -1
Name: 39, dtype: object

>  <hbond:VAL:102>  (41) 
hbond:VAL:102    NaN
hbond:VAL:102     -1
Name: 39, dtype: object

>  <hbond:GLY:103>  (41) 
hbond:GLY:103    NaN
hbond:GLY:103     -1
Name: 39, dtype: object

>  <halogenbond:GLY:103>  (41) 
halogenbond:GLY:103    NaN
halogenbond:GLY:103     -1
Name: 39, dtype: object

>  <hbond:HIS:104>  (41) 
hbond:HIS:104    NaN
hbond:HIS:104     -1
Name: 39, dtype: object

>  <saltbridge:HIS:104>  (41) 
saltbridge:HIS:104    NaN
saltbridge:HIS:104     -1
Name: 39, dtype: object

>  <pication:HIS:104>  (41) 
pication:HIS:104    NaN
pication:HIS:104     -1
Name: 39, dtype: object

>  <halogenbond:HIS:104>  (41) 
halogenbond:HIS:104    NaN
halogenbond:HIS:104     -1
Name: 39, dtype: object

>  <hydroph_interaction:HIS:104>  (41) 
hydroph_interaction:HIS:104    NaN
hydroph_interaction:HIS:104     -1
Name: 39, dtype: object

>  <pistack:HIS:104>  (41) 
pistack:HIS:104    NaN
pistack:HIS:104     -1
Name: 39, dtype: object

>  <halogenbond:SER:105>  (41) 
halogenbond:SER:105    0.0
halogenbond:SER:105      0
Name: 39, dtype: object

>  <hbond:SER:105>  (41) 
hbond:SER:105    0.0
hbond:SER:105      0
Name: 39, dtype: object

>  <hbond:GLU:106>  (41) 
hbond:GLU:106    0.0
hbond:GLU:106      0
Name: 39, dtype: object

>  <hydroph_interaction:GLU:106>  (41) 
hydroph_interaction:GLU:106    0.0
hydroph_interaction:GLU:106      0
Name: 39, dtype: object

>  <saltbridge:GLU:106>  (41) 
saltbridge:GLU:106    NaN
saltbridge:GLU:106     -1
Name: 39, dtype: object

>  <halogenbond:GLU:106>  (41) 
halogenbond:GLU:106    NaN
halogenbond:GLU:106     -1
Name: 39, dtype: object

>  <hydroph_interaction:PRO:107>  (41) 
hydroph_interaction:PRO:107    1
hydroph_interaction:PRO:107    1
Name: 39, dtype: object

>  <hbond:PRO:107>  (41) 
hbond:PRO:107    0.0
hbond:PRO:107      0
Name: 39, dtype: object

>  <halogenbond:PRO:107>  (41) 
halogenbond:PRO:107    NaN
halogenbond:PRO:107     -1
Name: 39, dtype: object

>  <hbond:GLY:108>  (41) 
hbond:GLY:108    NaN
hbond:GLY:108     -1
Name: 39, dtype: object

>  <halogenbond:GLY:108>  (41) 
halogenbond:GLY:108    NaN
halogenbond:GLY:108     -1
Name: 39, dtype: object

>  <hbond:ASP:109>  (41) 
hbond:ASP:109    NaN
hbond:ASP:109     -1
Name: 39, dtype: object

>  <hydroph_interaction:ASP:109>  (41) 
hydroph_interaction:ASP:109    NaN
hydroph_interaction:ASP:109     -1
Name: 39, dtype: object

>  <saltbridge:ASP:109>  (41) 
saltbridge:ASP:109    NaN
saltbridge:ASP:109     -1
Name: 39, dtype: object

>  <halogenbond:CYS:110>  (41) 
halogenbond:CYS:110    NaN
halogenbond:CYS:110     -1
Name: 39, dtype: object

>  <hbond:CYS:110>  (41) 
hbond:CYS:110    NaN
hbond:CYS:110     -1
Name: 39, dtype: object

>  <hbond:GLY:111>  (41) 
hbond:GLY:111    NaN
hbond:GLY:111     -1
Name: 39, dtype: object

>  <hbond:GLY:112>  (41) 
hbond:GLY:112    NaN
hbond:GLY:112     -1
Name: 39, dtype: object

>  <hbond:ILE:113>  (41) 
hbond:ILE:113    NaN
hbond:ILE:113     -1
Name: 39, dtype: object

>  <hydroph_interaction:LEU:114>  (41) 
hydroph_interaction:LEU:114    NaN
hydroph_interaction:LEU:114     -1
Name: 39, dtype: object

>  <hbond:LEU:114>  (41) 
hbond:LEU:114    NaN
hbond:LEU:114     -1
Name: 39, dtype: object

>  <hydroph_interaction:ILE:123>  (41) 
hydroph_interaction:ILE:123    NaN
hydroph_interaction:ILE:123     -1
Name: 39, dtype: object

>  <hbond:ILE:123>  (41) 
hbond:ILE:123    NaN
hbond:ILE:123     -1
Name: 39, dtype: object

>  <hydroph_interaction:VAL:124>  (41) 
hydroph_interaction:VAL:124    1.0
hydroph_interaction:VAL:124      1
Name: 39, dtype: object

>  <hbond:VAL:124>  (41) 
hbond:VAL:124    NaN
hbond:VAL:124     -1
Name: 39, dtype: object

>  <halogenbond:VAL:124>  (41) 
halogenbond:VAL:124    NaN
halogenbond:VAL:124     -1
Name: 39, dtype: object

>  <hbond:SER:125>  (41) 
hbond:SER:125    0
hbond:SER:125    0
Name: 39, dtype: object

>  <halogenbond:SER:125>  (41) 
halogenbond:SER:125    NaN
halogenbond:SER:125     -1
Name: 39, dtype: object

>  <hydroph_interaction:THR:126>  (41) 
hydroph_interaction:THR:126    0.0
hydroph_interaction:THR:126      0
Name: 39, dtype: object

>  <hbond:THR:126>  (41) 
hbond:THR:126    0.0
hbond:THR:126      0
Name: 39, dtype: object

>  <halogenbond:THR:126>  (41) 
halogenbond:THR:126    NaN
halogenbond:THR:126     -1
Name: 39, dtype: object

>  <hbond:GLY:127>  (41) 
hbond:GLY:127    0
hbond:GLY:127    0
Name: 39, dtype: object

>  <halogenbond:GLY:127>  (41) 
halogenbond:GLY:127    NaN
halogenbond:GLY:127     -1
Name: 39, dtype: object

>  <hydroph_interaction:GLY:127>  (41) 
hydroph_interaction:GLY:127    NaN
hydroph_interaction:GLY:127     -1
Name: 39, dtype: object

>  <hbond:GLY:128>  (41) 
hbond:GLY:128    NaN
hbond:GLY:128     -1
Name: 39, dtype: object

>  <halogenbond:GLY:128>  (41) 
halogenbond:GLY:128    NaN
halogenbond:GLY:128     -1
Name: 39, dtype: object

>  <hydroph_interaction:GLY:128>  (41) 
hydroph_interaction:GLY:128    NaN
hydroph_interaction:GLY:128     -1
Name: 39, dtype: object

>  <hbond:ASN:129>  (41) 
hbond:ASN:129    NaN
hbond:ASN:129     -1
Name: 39, dtype: object

>  <hydroph_interaction:ASN:129>  (41) 
hydroph_interaction:ASN:129    NaN
hydroph_interaction:ASN:129     -1
Name: 39, dtype: object

>  <halogenbond:ASN:129>  (41) 
halogenbond:ASN:129    NaN
halogenbond:ASN:129     -1
Name: 39, dtype: object

>  <hbond:GLY:130>  (41) 
hbond:GLY:130    NaN
hbond:GLY:130     -1
Name: 39, dtype: object

>  <hbond:LEU:131>  (41) 
hbond:LEU:131    NaN
hbond:LEU:131     -1
Name: 39, dtype: object

>  <hydroph_interaction:LEU:131>  (41) 
hydroph_interaction:LEU:131    NaN
hydroph_interaction:LEU:131     -1
Name: 39, dtype: object

>  <halogenbond:LEU:131>  (41) 
halogenbond:LEU:131    NaN
halogenbond:LEU:131     -1
Name: 39, dtype: object

>  <hydroph_interaction:VAL:132>  (41) 
hydroph_interaction:VAL:132    NaN
hydroph_interaction:VAL:132     -1
Name: 39, dtype: object

>  <hbond:VAL:132>  (41) 
hbond:VAL:132    NaN
hbond:VAL:132     -1
Name: 39, dtype: object

>  <hbond:GLY:133>  (41) 
hbond:GLY:133    NaN
hbond:GLY:133     -1
Name: 39, dtype: object

>  <halogenbond:GLY:133>  (41) 
halogenbond:GLY:133    NaN
halogenbond:GLY:133     -1
Name: 39, dtype: object

>  <hydroph_interaction:PHE:134>  (41) 
hydroph_interaction:PHE:134    NaN
hydroph_interaction:PHE:134     -1
Name: 39, dtype: object

>  <hbond:PHE:134>  (41) 
hbond:PHE:134    NaN
hbond:PHE:134     -1
Name: 39, dtype: object

>  <pistack:PHE:134>  (41) 
pistack:PHE:134    NaN
pistack:PHE:134     -1
Name: 39, dtype: object

>  <pication:PHE:134>  (41) 
pication:PHE:134    NaN
pication:PHE:134     -1
Name: 39, dtype: object

>  <halogenbond:PHE:134>  (41) 
halogenbond:PHE:134    NaN
halogenbond:PHE:134     -1
Name: 39, dtype: object

>  <hydroph_interaction:ALA:135>  (41) 
hydroph_interaction:ALA:135    NaN
hydroph_interaction:ALA:135     -1
Name: 39, dtype: object

>  <hbond:ALA:135>  (41) 
hbond:ALA:135    NaN
hbond:ALA:135     -1
Name: 39, dtype: object

$$$$
Z761617208
     RDKit          3D

 16 16  0  0  0  0  0  0  0  0999 V2000
   30.3706    8.5103    8.7551 C   0  0  0  0  0  0  0  0  0  0  0  0
   31.1865    9.4693    7.9132 C   0  0  0  0  0  0  0  0  0  0  0  0
   32.1664    8.9146    6.9241 C   0  0  0  0  0  0  0  0  0  0  0  0
   32.9791    9.9265    6.0963 C   0  0  0  0  0  0  0  0  0  0  0  0
   32.6747   11.3888    6.4124 C   0  0  0  0  0  0  0  0  0  0  0  0
   33.4220   12.4513    5.6637 C   0  0  0  0  0  0  0  0  0  0  0  0
   31.7260   11.7512    7.3782 C   0  0  0  0  0  0  0  0  0  0  0  0
   31.4748   13.0756    7.6509 N   0  0  0  0  0  0  0  0  0  0  0  0
   30.1319   13.5835    7.7450 C   0  0  0  0  0  0  0  0  0  0  0  0
   29.2212   13.2306    7.0483 O   0  0  0  0  0  0  0  0  0  0  0  0
   29.9548   14.5608    8.7083 C   0  0  0  0  0  0  0  0  0  0  0  0
   30.9028   14.8121    9.4502 O   0  0  0  0  0  0  0  0  0  0  0  0
   28.7526   15.2207    8.7402 N   0  0  0  0  0  0  0  0  0  0  0  0
   28.7628   16.6405    8.6861 C   0  0  0  0  0  0  0  0  0  0  0  0
   27.6411   14.5989    8.0648 C   0  0  0  0  0  0  0  0  0  0  0  0
   31.0133   10.8138    8.0848 C   0  0  0  0  0  0  0  0  0  0  0  0
  1  2  1  0
  2  3  2  0
  3  4  1  0
  4  5  2  0
  5  6  1  0
  5  7  1  0
  7  8  1  0
  8  9  1  0
  9 10  2  0
  9 11  1  0
 11 12  2  0
 11 13  1  0
 13 14  1  0
 13 15  1  0
  7 16  2  0
 16  2  1  0
A    1
 C1 
A    2
 C2 
A    3
 C3 
A    4
 C4 
A    5
 C5 
A    6
 C6 
A    7
 C7 
A    8
 N1 
A    9
 C8 
A   10
 O1 
A   11
 C9 
A   12
 O2 
A   13
 N2 
A   14
 C10
A   15
 C11
A   16
 C12
M  END
>  <ref_pdb>  (42) 
Ax0310a

>  <ref_mols>  (42) 
Ax0416a,Ax0528a

>  <original SMILES>  (42) 
Cc1ccc(C)c(NC(=O)C(=O)N(C)C)c1

>  <rationale>  (42) 
info halogenbond:G127+D39+A86+E85+E106+E88+T126+P107+Y64+C65+N129+F83+R93+L131+I82+G128+P91+N19+H21+V84+G133+Y90+Y89+H97+L81+F134+L98+R20+G103+S66+S67+S7+G108+R38+V124+M99+S36; hbond:S87+T126+A86+E85+G103+G128+G130+L131+N129+H104+R68+V124+R93+P91+F83+S7+S66+G112+G133+V132+R20+Y89+S77+A135+Y63+A92+A101+M99+F134+L100+I82+Y64+S36+L98+V84+L81+Y94+S80+R38+S37+V102+G8+I123+G111+I113+L114+C65+L22+S96; hydroph_interaction:V124+L22+E106+E88+N129+N19+L40+I123+A135+I82+L100+L98+L131+F83+R93+V132+Y63+F134+H104+R20+A86+V74+P91+A101+F76+M99+L114+A92+Y94+R68+Y72+Y64+V18+V102+W28+G127+G128+L81; pication:H104+Y63+F134+Y90+R68+F83+R20; pistack:H21+Y89+H104+F134+Y63+F83+Y94; saltbridge:R93+H104+E106+D109+E85+E88+R68+R20; 

>  <intxn_cluster>  (42) 
-1

>  <intxn_cluster_rank>  (42) 
-1

>  <N_interactions>  (42) 
3

>  <∆∆G>  (42) 
-12.820734

>  <$/mg>  (42) 
0.0

>  <comRMSD>  (42) 
0.771934

>  <N_rotatable_bonds>  (42) 
5

>  <deep_P1_sidechain>  (42) 
nan

>  <farthest_distance_to_substrate>  (42) 
2.331924

>  <hbond:SER:7>  (42) 
hbond:SER:7    NaN
hbond:SER:7     -1
Name: 40, dtype: object

>  <halogenbond:SER:7>  (42) 
halogenbond:SER:7    NaN
halogenbond:SER:7     -1
Name: 40, dtype: object

>  <hbond:GLY:8>  (42) 
hbond:GLY:8    NaN
hbond:GLY:8     -1
Name: 40, dtype: object

>  <hydroph_interaction:VAL:18>  (42) 
hydroph_interaction:VAL:18    NaN
hydroph_interaction:VAL:18     -1
Name: 40, dtype: object

>  <hbond:ASN:19>  (42) 
hbond:ASN:19    0.0
hbond:ASN:19      0
Name: 40, dtype: object

>  <hydroph_interaction:ASN:19>  (42) 
hydroph_interaction:ASN:19    NaN
hydroph_interaction:ASN:19     -1
Name: 40, dtype: object

>  <halogenbond:ASN:19>  (42) 
halogenbond:ASN:19    NaN
halogenbond:ASN:19     -1
Name: 40, dtype: object

>  <hbond:ARG:20>  (42) 
hbond:ARG:20    NaN
hbond:ARG:20     -1
Name: 40, dtype: object

>  <hydroph_interaction:ARG:20>  (42) 
hydroph_interaction:ARG:20    NaN
hydroph_interaction:ARG:20     -1
Name: 40, dtype: object

>  <saltbridge:ARG:20>  (42) 
saltbridge:ARG:20    NaN
saltbridge:ARG:20     -1
Name: 40, dtype: object

>  <halogenbond:ARG:20>  (42) 
halogenbond:ARG:20    NaN
halogenbond:ARG:20     -1
Name: 40, dtype: object

>  <pication:ARG:20>  (42) 
pication:ARG:20    NaN
pication:ARG:20     -1
Name: 40, dtype: object

>  <hbond:HIS:21>  (42) 
hbond:HIS:21    0.0
hbond:HIS:21      0
Name: 40, dtype: object

>  <hydroph_interaction:HIS:21>  (42) 
hydroph_interaction:HIS:21    0.0
hydroph_interaction:HIS:21      0
Name: 40, dtype: object

>  <pistack:HIS:21>  (42) 
pistack:HIS:21    NaN
pistack:HIS:21     -1
Name: 40, dtype: object

>  <pication:HIS:21>  (42) 
pication:HIS:21    0.0
pication:HIS:21      0
Name: 40, dtype: object

>  <saltbridge:HIS:21>  (42) 
saltbridge:HIS:21    0.0
saltbridge:HIS:21      0
Name: 40, dtype: object

>  <halogenbond:HIS:21>  (42) 
halogenbond:HIS:21    NaN
halogenbond:HIS:21     -1
Name: 40, dtype: object

>  <hydroph_interaction:LEU:22>  (42) 
hydroph_interaction:LEU:22    NaN
hydroph_interaction:LEU:22     -1
Name: 40, dtype: object

>  <hbond:LEU:22>  (42) 
hbond:LEU:22    NaN
hbond:LEU:22     -1
Name: 40, dtype: object

>  <hydroph_interaction:TRP:28>  (42) 
hydroph_interaction:TRP:28    NaN
hydroph_interaction:TRP:28     -1
Name: 40, dtype: object

>  <hbond:SER:36>  (42) 
hbond:SER:36    NaN
hbond:SER:36     -1
Name: 40, dtype: object

>  <halogenbond:SER:36>  (42) 
halogenbond:SER:36    NaN
halogenbond:SER:36     -1
Name: 40, dtype: object

>  <hbond:SER:37>  (42) 
hbond:SER:37    NaN
hbond:SER:37     -1
Name: 40, dtype: object

>  <hbond:ARG:38>  (42) 
hbond:ARG:38    NaN
hbond:ARG:38     -1
Name: 40, dtype: object

>  <halogenbond:ARG:38>  (42) 
halogenbond:ARG:38    NaN
halogenbond:ARG:38     -1
Name: 40, dtype: object

>  <saltbridge:ASP:39>  (42) 
saltbridge:ASP:39    0.0
saltbridge:ASP:39      0
Name: 40, dtype: object

>  <halogenbond:ASP:39>  (42) 
halogenbond:ASP:39    NaN
halogenbond:ASP:39     -1
Name: 40, dtype: object

>  <hbond:ASP:39>  (42) 
hbond:ASP:39    0.0
hbond:ASP:39      0
Name: 40, dtype: object

>  <hydroph_interaction:ASP:39>  (42) 
hydroph_interaction:ASP:39    0.0
hydroph_interaction:ASP:39      0
Name: 40, dtype: object

>  <hydroph_interaction:LEU:40>  (42) 
hydroph_interaction:LEU:40    NaN
hydroph_interaction:LEU:40     -1
Name: 40, dtype: object

>  <hydroph_interaction:TYR:63>  (42) 
hydroph_interaction:TYR:63    NaN
hydroph_interaction:TYR:63     -1
Name: 40, dtype: object

>  <hbond:TYR:63>  (42) 
hbond:TYR:63    NaN
hbond:TYR:63     -1
Name: 40, dtype: object

>  <pistack:TYR:63>  (42) 
pistack:TYR:63    NaN
pistack:TYR:63     -1
Name: 40, dtype: object

>  <pication:TYR:63>  (42) 
pication:TYR:63    NaN
pication:TYR:63     -1
Name: 40, dtype: object

>  <halogenbond:TYR:64>  (42) 
halogenbond:TYR:64    NaN
halogenbond:TYR:64     -1
Name: 40, dtype: object

>  <hbond:TYR:64>  (42) 
hbond:TYR:64    NaN
hbond:TYR:64     -1
Name: 40, dtype: object

>  <hydroph_interaction:TYR:64>  (42) 
hydroph_interaction:TYR:64    NaN
hydroph_interaction:TYR:64     -1
Name: 40, dtype: object

>  <halogenbond:CYS:65>  (42) 
halogenbond:CYS:65    NaN
halogenbond:CYS:65     -1
Name: 40, dtype: object

>  <hbond:CYS:65>  (42) 
hbond:CYS:65    NaN
hbond:CYS:65     -1
Name: 40, dtype: object

>  <hbond:SER:66>  (42) 
hbond:SER:66    NaN
hbond:SER:66     -1
Name: 40, dtype: object

>  <halogenbond:SER:66>  (42) 
halogenbond:SER:66    NaN
halogenbond:SER:66     -1
Name: 40, dtype: object

>  <hbond:SER:67>  (42) 
hbond:SER:67    0.0
hbond:SER:67      0
Name: 40, dtype: object

>  <halogenbond:SER:67>  (42) 
halogenbond:SER:67    NaN
halogenbond:SER:67     -1
Name: 40, dtype: object

>  <hbond:ARG:68>  (42) 
hbond:ARG:68    NaN
hbond:ARG:68     -1
Name: 40, dtype: object

>  <saltbridge:ARG:68>  (42) 
saltbridge:ARG:68    NaN
saltbridge:ARG:68     -1
Name: 40, dtype: object

>  <hydroph_interaction:ARG:68>  (42) 
hydroph_interaction:ARG:68    NaN
hydroph_interaction:ARG:68     -1
Name: 40, dtype: object

>  <pication:ARG:68>  (42) 
pication:ARG:68    NaN
pication:ARG:68     -1
Name: 40, dtype: object

>  <hydroph_interaction:TYR:72>  (42) 
hydroph_interaction:TYR:72    NaN
hydroph_interaction:TYR:72     -1
Name: 40, dtype: object

>  <hydroph_interaction:VAL:74>  (42) 
hydroph_interaction:VAL:74    NaN
hydroph_interaction:VAL:74     -1
Name: 40, dtype: object

>  <hydroph_interaction:PHE:76>  (42) 
hydroph_interaction:PHE:76    NaN
hydroph_interaction:PHE:76     -1
Name: 40, dtype: object

>  <hbond:SER:77>  (42) 
hbond:SER:77    NaN
hbond:SER:77     -1
Name: 40, dtype: object

>  <hbond:SER:80>  (42) 
hbond:SER:80    NaN
hbond:SER:80     -1
Name: 40, dtype: object

>  <hbond:LEU:81>  (42) 
hbond:LEU:81    NaN
hbond:LEU:81     -1
Name: 40, dtype: object

>  <halogenbond:LEU:81>  (42) 
halogenbond:LEU:81    NaN
halogenbond:LEU:81     -1
Name: 40, dtype: object

>  <hydroph_interaction:LEU:81>  (42) 
hydroph_interaction:LEU:81    NaN
hydroph_interaction:LEU:81     -1
Name: 40, dtype: object

>  <hydroph_interaction:ILE:82>  (42) 
hydroph_interaction:ILE:82    NaN
hydroph_interaction:ILE:82     -1
Name: 40, dtype: object

>  <halogenbond:ILE:82>  (42) 
halogenbond:ILE:82    NaN
halogenbond:ILE:82     -1
Name: 40, dtype: object

>  <hbond:ILE:82>  (42) 
hbond:ILE:82    NaN
hbond:ILE:82     -1
Name: 40, dtype: object

>  <hbond:PHE:83>  (42) 
hbond:PHE:83    NaN
hbond:PHE:83     -1
Name: 40, dtype: object

>  <hydroph_interaction:PHE:83>  (42) 
hydroph_interaction:PHE:83    NaN
hydroph_interaction:PHE:83     -1
Name: 40, dtype: object

>  <halogenbond:PHE:83>  (42) 
halogenbond:PHE:83    NaN
halogenbond:PHE:83     -1
Name: 40, dtype: object

>  <pistack:PHE:83>  (42) 
pistack:PHE:83    NaN
pistack:PHE:83     -1
Name: 40, dtype: object

>  <pication:PHE:83>  (42) 
pication:PHE:83    NaN
pication:PHE:83     -1
Name: 40, dtype: object

>  <hydroph_interaction:VAL:84>  (42) 
hydroph_interaction:VAL:84    0.0
hydroph_interaction:VAL:84      0
Name: 40, dtype: object

>  <halogenbond:VAL:84>  (42) 
halogenbond:VAL:84    NaN
halogenbond:VAL:84     -1
Name: 40, dtype: object

>  <hbond:VAL:84>  (42) 
hbond:VAL:84    NaN
hbond:VAL:84     -1
Name: 40, dtype: object

>  <hydroph_interaction:GLU:85>  (42) 
hydroph_interaction:GLU:85    0.0
hydroph_interaction:GLU:85      0
Name: 40, dtype: object

>  <hbond:GLU:85>  (42) 
hbond:GLU:85    NaN
hbond:GLU:85     -1
Name: 40, dtype: object

>  <halogenbond:GLU:85>  (42) 
halogenbond:GLU:85    NaN
halogenbond:GLU:85     -1
Name: 40, dtype: object

>  <saltbridge:GLU:85>  (42) 
saltbridge:GLU:85    NaN
saltbridge:GLU:85     -1
Name: 40, dtype: object

>  <halogenbond:ALA:86>  (42) 
halogenbond:ALA:86    NaN
halogenbond:ALA:86     -1
Name: 40, dtype: object

>  <hbond:ALA:86>  (42) 
hbond:ALA:86    NaN
hbond:ALA:86     -1
Name: 40, dtype: object

>  <hydroph_interaction:ALA:86>  (42) 
hydroph_interaction:ALA:86    NaN
hydroph_interaction:ALA:86     -1
Name: 40, dtype: object

>  <hbond:SER:87>  (42) 
hbond:SER:87    2
hbond:SER:87    2
Name: 40, dtype: object

>  <halogenbond:SER:87>  (42) 
halogenbond:SER:87    0.0
halogenbond:SER:87      0
Name: 40, dtype: object

>  <hbond:GLU:88>  (42) 
hbond:GLU:88    0.0
hbond:GLU:88      0
Name: 40, dtype: object

>  <hydroph_interaction:GLU:88>  (42) 
hydroph_interaction:GLU:88    NaN
hydroph_interaction:GLU:88     -1
Name: 40, dtype: object

>  <halogenbond:GLU:88>  (42) 
halogenbond:GLU:88    NaN
halogenbond:GLU:88     -1
Name: 40, dtype: object

>  <saltbridge:GLU:88>  (42) 
saltbridge:GLU:88    NaN
saltbridge:GLU:88     -1
Name: 40, dtype: object

>  <hydroph_interaction:TYR:89>  (42) 
hydroph_interaction:TYR:89    0.0
hydroph_interaction:TYR:89      0
Name: 40, dtype: object

>  <pistack:TYR:89>  (42) 
pistack:TYR:89    NaN
pistack:TYR:89     -1
Name: 40, dtype: object

>  <hbond:TYR:89>  (42) 
hbond:TYR:89    NaN
hbond:TYR:89     -1
Name: 40, dtype: object

>  <halogenbond:TYR:89>  (42) 
halogenbond:TYR:89    NaN
halogenbond:TYR:89     -1
Name: 40, dtype: object

>  <hydroph_interaction:TYR:90>  (42) 
hydroph_interaction:TYR:90    0.0
hydroph_interaction:TYR:90      0
Name: 40, dtype: object

>  <hbond:TYR:90>  (42) 
hbond:TYR:90    0.0
hbond:TYR:90      0
Name: 40, dtype: object

>  <pistack:TYR:90>  (42) 
pistack:TYR:90    0.0
pistack:TYR:90      0
Name: 40, dtype: object

>  <halogenbond:TYR:90>  (42) 
halogenbond:TYR:90    NaN
halogenbond:TYR:90     -1
Name: 40, dtype: object

>  <pication:TYR:90>  (42) 
pication:TYR:90    NaN
pication:TYR:90     -1
Name: 40, dtype: object

>  <hbond:PRO:91>  (42) 
hbond:PRO:91    NaN
hbond:PRO:91     -1
Name: 40, dtype: object

>  <hydroph_interaction:PRO:91>  (42) 
hydroph_interaction:PRO:91    NaN
hydroph_interaction:PRO:91     -1
Name: 40, dtype: object

>  <halogenbond:PRO:91>  (42) 
halogenbond:PRO:91    NaN
halogenbond:PRO:91     -1
Name: 40, dtype: object

>  <hbond:ALA:92>  (42) 
hbond:ALA:92    NaN
hbond:ALA:92     -1
Name: 40, dtype: object

>  <hydroph_interaction:ALA:92>  (42) 
hydroph_interaction:ALA:92    NaN
hydroph_interaction:ALA:92     -1
Name: 40, dtype: object

>  <saltbridge:ARG:93>  (42) 
saltbridge:ARG:93    NaN
saltbridge:ARG:93     -1
Name: 40, dtype: object

>  <hbond:ARG:93>  (42) 
hbond:ARG:93    NaN
hbond:ARG:93     -1
Name: 40, dtype: object

>  <hydroph_interaction:ARG:93>  (42) 
hydroph_interaction:ARG:93    NaN
hydroph_interaction:ARG:93     -1
Name: 40, dtype: object

>  <halogenbond:ARG:93>  (42) 
halogenbond:ARG:93    NaN
halogenbond:ARG:93     -1
Name: 40, dtype: object

>  <pication:ARG:93>  (42) 
pication:ARG:93    0.0
pication:ARG:93      0
Name: 40, dtype: object

>  <hydroph_interaction:TYR:94>  (42) 
hydroph_interaction:TYR:94    NaN
hydroph_interaction:TYR:94     -1
Name: 40, dtype: object

>  <pistack:TYR:94>  (42) 
pistack:TYR:94    NaN
pistack:TYR:94     -1
Name: 40, dtype: object

>  <hbond:TYR:94>  (42) 
hbond:TYR:94    NaN
hbond:TYR:94     -1
Name: 40, dtype: object

>  <hbond:GLN:95>  (42) 
hbond:GLN:95    0.0
hbond:GLN:95      0
Name: 40, dtype: object

>  <hydroph_interaction:GLN:95>  (42) 
hydroph_interaction:GLN:95    0.0
hydroph_interaction:GLN:95      0
Name: 40, dtype: object

>  <halogenbond:GLN:95>  (42) 
halogenbond:GLN:95    0.0
halogenbond:GLN:95      0
Name: 40, dtype: object

>  <hbond:SER:96>  (42) 
hbond:SER:96    NaN
hbond:SER:96     -1
Name: 40, dtype: object

>  <halogenbond:HIS:97>  (42) 
halogenbond:HIS:97    NaN
halogenbond:HIS:97     -1
Name: 40, dtype: object

>  <hydroph_interaction:LEU:98>  (42) 
hydroph_interaction:LEU:98    NaN
hydroph_interaction:LEU:98     -1
Name: 40, dtype: object

>  <hbond:LEU:98>  (42) 
hbond:LEU:98    NaN
hbond:LEU:98     -1
Name: 40, dtype: object

>  <halogenbond:LEU:98>  (42) 
halogenbond:LEU:98    NaN
halogenbond:LEU:98     -1
Name: 40, dtype: object

>  <hbond:MET:99>  (42) 
hbond:MET:99    NaN
hbond:MET:99     -1
Name: 40, dtype: object

>  <hydroph_interaction:MET:99>  (42) 
hydroph_interaction:MET:99    NaN
hydroph_interaction:MET:99     -1
Name: 40, dtype: object

>  <halogenbond:MET:99>  (42) 
halogenbond:MET:99    NaN
halogenbond:MET:99     -1
Name: 40, dtype: object

>  <hydroph_interaction:LEU:100>  (42) 
hydroph_interaction:LEU:100    NaN
hydroph_interaction:LEU:100     -1
Name: 40, dtype: object

>  <hbond:LEU:100>  (42) 
hbond:LEU:100    NaN
hbond:LEU:100     -1
Name: 40, dtype: object

>  <hbond:ALA:101>  (42) 
hbond:ALA:101    NaN
hbond:ALA:101     -1
Name: 40, dtype: object

>  <hydroph_interaction:ALA:101>  (42) 
hydroph_interaction:ALA:101    NaN
hydroph_interaction:ALA:101     -1
Name: 40, dtype: object

>  <hydroph_interaction:VAL:102>  (42) 
hydroph_interaction:VAL:102    NaN
hydroph_interaction:VAL:102     -1
Name: 40, dtype: object

>  <hbond:VAL:102>  (42) 
hbond:VAL:102    NaN
hbond:VAL:102     -1
Name: 40, dtype: object

>  <hbond:GLY:103>  (42) 
hbond:GLY:103    NaN
hbond:GLY:103     -1
Name: 40, dtype: object

>  <halogenbond:GLY:103>  (42) 
halogenbond:GLY:103    NaN
halogenbond:GLY:103     -1
Name: 40, dtype: object

>  <hbond:HIS:104>  (42) 
hbond:HIS:104    NaN
hbond:HIS:104     -1
Name: 40, dtype: object

>  <saltbridge:HIS:104>  (42) 
saltbridge:HIS:104    NaN
saltbridge:HIS:104     -1
Name: 40, dtype: object

>  <pication:HIS:104>  (42) 
pication:HIS:104    NaN
pication:HIS:104     -1
Name: 40, dtype: object

>  <halogenbond:HIS:104>  (42) 
halogenbond:HIS:104    0.0
halogenbond:HIS:104      0
Name: 40, dtype: object

>  <hydroph_interaction:HIS:104>  (42) 
hydroph_interaction:HIS:104    NaN
hydroph_interaction:HIS:104     -1
Name: 40, dtype: object

>  <pistack:HIS:104>  (42) 
pistack:HIS:104    NaN
pistack:HIS:104     -1
Name: 40, dtype: object

>  <halogenbond:SER:105>  (42) 
halogenbond:SER:105    0.0
halogenbond:SER:105      0
Name: 40, dtype: object

>  <hbond:SER:105>  (42) 
hbond:SER:105    0.0
hbond:SER:105      0
Name: 40, dtype: object

>  <hbond:GLU:106>  (42) 
hbond:GLU:106    0.0
hbond:GLU:106      0
Name: 40, dtype: object

>  <hydroph_interaction:GLU:106>  (42) 
hydroph_interaction:GLU:106    NaN
hydroph_interaction:GLU:106     -1
Name: 40, dtype: object

>  <saltbridge:GLU:106>  (42) 
saltbridge:GLU:106    NaN
saltbridge:GLU:106     -1
Name: 40, dtype: object

>  <halogenbond:GLU:106>  (42) 
halogenbond:GLU:106    NaN
halogenbond:GLU:106     -1
Name: 40, dtype: object

>  <hydroph_interaction:PRO:107>  (42) 
hydroph_interaction:PRO:107    0
hydroph_interaction:PRO:107    0
Name: 40, dtype: object

>  <hbond:PRO:107>  (42) 
hbond:PRO:107    0.0
hbond:PRO:107      0
Name: 40, dtype: object

>  <halogenbond:PRO:107>  (42) 
halogenbond:PRO:107    NaN
halogenbond:PRO:107     -1
Name: 40, dtype: object

>  <hbond:GLY:108>  (42) 
hbond:GLY:108    0.0
hbond:GLY:108      0
Name: 40, dtype: object

>  <halogenbond:GLY:108>  (42) 
halogenbond:GLY:108    NaN
halogenbond:GLY:108     -1
Name: 40, dtype: object

>  <hbond:ASP:109>  (42) 
hbond:ASP:109    0.0
hbond:ASP:109      0
Name: 40, dtype: object

>  <hydroph_interaction:ASP:109>  (42) 
hydroph_interaction:ASP:109    0.0
hydroph_interaction:ASP:109      0
Name: 40, dtype: object

>  <saltbridge:ASP:109>  (42) 
saltbridge:ASP:109    NaN
saltbridge:ASP:109     -1
Name: 40, dtype: object

>  <halogenbond:CYS:110>  (42) 
halogenbond:CYS:110    0.0
halogenbond:CYS:110      0
Name: 40, dtype: object

>  <hbond:CYS:110>  (42) 
hbond:CYS:110    0.0
hbond:CYS:110      0
Name: 40, dtype: object

>  <hbond:GLY:111>  (42) 
hbond:GLY:111    NaN
hbond:GLY:111     -1
Name: 40, dtype: object

>  <hbond:GLY:112>  (42) 
hbond:GLY:112    NaN
hbond:GLY:112     -1
Name: 40, dtype: object

>  <hbond:ILE:113>  (42) 
hbond:ILE:113    NaN
hbond:ILE:113     -1
Name: 40, dtype: object

>  <hydroph_interaction:LEU:114>  (42) 
hydroph_interaction:LEU:114    NaN
hydroph_interaction:LEU:114     -1
Name: 40, dtype: object

>  <hbond:LEU:114>  (42) 
hbond:LEU:114    NaN
hbond:LEU:114     -1
Name: 40, dtype: object

>  <hydroph_interaction:ILE:123>  (42) 
hydroph_interaction:ILE:123    NaN
hydroph_interaction:ILE:123     -1
Name: 40, dtype: object

>  <hbond:ILE:123>  (42) 
hbond:ILE:123    NaN
hbond:ILE:123     -1
Name: 40, dtype: object

>  <hydroph_interaction:VAL:124>  (42) 
hydroph_interaction:VAL:124    1.0
hydroph_interaction:VAL:124      1
Name: 40, dtype: object

>  <hbond:VAL:124>  (42) 
hbond:VAL:124    NaN
hbond:VAL:124     -1
Name: 40, dtype: object

>  <halogenbond:VAL:124>  (42) 
halogenbond:VAL:124    NaN
halogenbond:VAL:124     -1
Name: 40, dtype: object

>  <hbond:SER:125>  (42) 
hbond:SER:125    0
hbond:SER:125    0
Name: 40, dtype: object

>  <halogenbond:SER:125>  (42) 
halogenbond:SER:125    0.0
halogenbond:SER:125      0
Name: 40, dtype: object

>  <hydroph_interaction:THR:126>  (42) 
hydroph_interaction:THR:126    0.0
hydroph_interaction:THR:126      0
Name: 40, dtype: object

>  <hbond:THR:126>  (42) 
hbond:THR:126    NaN
hbond:THR:126     -1
Name: 40, dtype: object

>  <halogenbond:THR:126>  (42) 
halogenbond:THR:126    NaN
halogenbond:THR:126     -1
Name: 40, dtype: object

>  <hbond:GLY:127>  (42) 
hbond:GLY:127    0
hbond:GLY:127    0
Name: 40, dtype: object

>  <halogenbond:GLY:127>  (42) 
halogenbond:GLY:127    NaN
halogenbond:GLY:127     -1
Name: 40, dtype: object

>  <hydroph_interaction:GLY:127>  (42) 
hydroph_interaction:GLY:127    NaN
hydroph_interaction:GLY:127     -1
Name: 40, dtype: object

>  <hbond:GLY:128>  (42) 
hbond:GLY:128    NaN
hbond:GLY:128     -1
Name: 40, dtype: object

>  <halogenbond:GLY:128>  (42) 
halogenbond:GLY:128    NaN
halogenbond:GLY:128     -1
Name: 40, dtype: object

>  <hydroph_interaction:GLY:128>  (42) 
hydroph_interaction:GLY:128    NaN
hydroph_interaction:GLY:128     -1
Name: 40, dtype: object

>  <hbond:ASN:129>  (42) 
hbond:ASN:129    NaN
hbond:ASN:129     -1
Name: 40, dtype: object

>  <hydroph_interaction:ASN:129>  (42) 
hydroph_interaction:ASN:129    NaN
hydroph_interaction:ASN:129     -1
Name: 40, dtype: object

>  <halogenbond:ASN:129>  (42) 
halogenbond:ASN:129    NaN
halogenbond:ASN:129     -1
Name: 40, dtype: object

>  <hbond:GLY:130>  (42) 
hbond:GLY:130    NaN
hbond:GLY:130     -1
Name: 40, dtype: object

>  <hbond:LEU:131>  (42) 
hbond:LEU:131    NaN
hbond:LEU:131     -1
Name: 40, dtype: object

>  <hydroph_interaction:LEU:131>  (42) 
hydroph_interaction:LEU:131    NaN
hydroph_interaction:LEU:131     -1
Name: 40, dtype: object

>  <halogenbond:LEU:131>  (42) 
halogenbond:LEU:131    NaN
halogenbond:LEU:131     -1
Name: 40, dtype: object

>  <hydroph_interaction:VAL:132>  (42) 
hydroph_interaction:VAL:132    NaN
hydroph_interaction:VAL:132     -1
Name: 40, dtype: object

>  <hbond:VAL:132>  (42) 
hbond:VAL:132    NaN
hbond:VAL:132     -1
Name: 40, dtype: object

>  <hbond:GLY:133>  (42) 
hbond:GLY:133    NaN
hbond:GLY:133     -1
Name: 40, dtype: object

>  <halogenbond:GLY:133>  (42) 
halogenbond:GLY:133    NaN
halogenbond:GLY:133     -1
Name: 40, dtype: object

>  <hydroph_interaction:PHE:134>  (42) 
hydroph_interaction:PHE:134    NaN
hydroph_interaction:PHE:134     -1
Name: 40, dtype: object

>  <hbond:PHE:134>  (42) 
hbond:PHE:134    NaN
hbond:PHE:134     -1
Name: 40, dtype: object

>  <pistack:PHE:134>  (42) 
pistack:PHE:134    NaN
pistack:PHE:134     -1
Name: 40, dtype: object

>  <pication:PHE:134>  (42) 
pication:PHE:134    NaN
pication:PHE:134     -1
Name: 40, dtype: object

>  <halogenbond:PHE:134>  (42) 
halogenbond:PHE:134    NaN
halogenbond:PHE:134     -1
Name: 40, dtype: object

>  <hydroph_interaction:ALA:135>  (42) 
hydroph_interaction:ALA:135    NaN
hydroph_interaction:ALA:135     -1
Name: 40, dtype: object

>  <hbond:ALA:135>  (42) 
hbond:ALA:135    NaN
hbond:ALA:135     -1
Name: 40, dtype: object

$$$$
PV_002244842792
     RDKit          3D

 12 12  0  0  0  0  0  0  0  0999 V2000
   28.2723   15.2303    8.4359 C   0  0  0  0  0  0  0  0  0  0  0  0
   28.2877   13.8272    8.9993 C   0  0  0  0  0  0  0  0  0  0  0  0
   29.5541   13.1622    8.7928 N   0  0  0  0  0  0  0  0  0  0  0  0
   29.9683   12.9419    7.5020 C   0  0  0  0  0  0  0  0  0  0  0  0
   29.5747   13.6250    6.5685 O   0  0  0  0  0  0  0  0  0  0  0  0
   30.8144   11.9375    7.2134 C   0  0  0  0  0  0  0  0  0  0  0  0
   31.9284   12.1048    6.2334 C   0  0  0  0  0  0  0  0  0  0  0  0
   32.7500   11.0306    5.9434 C   0  0  0  0  0  0  0  0  0  0  0  0
   32.5136    9.8124    6.5756 C   0  0  0  0  0  0  0  0  0  0  0  0
   33.3208    8.8071    6.2496 F   0  0  0  0  0  0  0  0  0  0  0  0
   31.4941    9.6216    7.5057 C   0  0  0  0  0  0  0  0  0  0  0  0
   30.6481   10.6868    7.8282 C   0  0  0  0  0  0  0  0  0  0  0  0
  1  2  1  0
  2  3  1  0
  3  4  1  0
  4  5  2  0
  4  6  1  0
  6  7  2  0
  7  8  1  0
  8  9  2  0
  9 10  1  0
  9 11  1  0
 11 12  2  0
 12  6  1  0
A    1
 C1 
A    2
 C2 
A    3
 N1 
A    4
 C3 
A    5
 O1 
A    6
 C4 
A    7
 C5 
A    8
 C6 
A    9
 C7 
A   10
 F1 
A   11
 C8 
A   12
 C9 
M  END
>  <ref_pdb>  (43) 
Ax0310a

>  <ref_mols>  (43) 
Ax0554a,Ax0719a

>  <original SMILES>  (43) 
CCNC(=O)c1ccc(F)cc1

>  <rationale>  (43) 
info halogenbond:S105+G127+D39+A86+S125+E85+Q95+E106+T126+P107+H104+Y64+C65+S87+N129+F83+R93+L131+I82+G128+P91+N19+H21+V84+G133+Y90+Y89+H97+L81+F134+L98+R20+G103+S66+S67+S7+G108+R38+V124+M99+S36; hbond:S87+S125+Y90+G108+G103+G128+G130+L131+N129+N19+H104+R68+V124+R93+P91+F83+S67+S7+S66+G112+V132+R20+Y89+S77+A135+Y63+A92+A101+M99+F134+L100+I82+Y64+S36+L98+V84+L81+Y94+S80+R38+S37+V102+G8+I123+G111+I113+L114+C65+L22+S96; hydroph_interaction:Y90+Y89+P107+E106+N129+N19+L40+I123+A135+Q95+I82+L100+L98+L131+F83+R93+V132+Y63+F134+H104+R20+A86+V74+P91+A101+F76+M99+L114+A92+Y94+R68+Y72+Y64+V18+V102+W28+G127+G128+L81; pication:H21+H104+R93+Y63+F134+Y90+R68+F83+R20; pistack:H21+Y89+Y90+H104+F134+Y63+F83+Y94; saltbridge:D39+R93+H104+E106+D109+E85+E88+R68+R20; 

>  <intxn_cluster>  (43) 
-1

>  <intxn_cluster_rank>  (43) 
-1

>  <N_interactions>  (43) 
6

>  <∆∆G>  (43) 
-6.947464

>  <$/mg>  (43) 
163.0

>  <comRMSD>  (43) 
0.555796

>  <N_rotatable_bonds>  (43) 
3

>  <deep_P1_sidechain>  (43) 
nan

>  <farthest_distance_to_substrate>  (43) 
3.115696

>  <hbond:SER:7>  (43) 
hbond:SER:7    NaN
hbond:SER:7     -1
Name: 41, dtype: object

>  <halogenbond:SER:7>  (43) 
halogenbond:SER:7    NaN
halogenbond:SER:7     -1
Name: 41, dtype: object

>  <hbond:GLY:8>  (43) 
hbond:GLY:8    NaN
hbond:GLY:8     -1
Name: 41, dtype: object

>  <hydroph_interaction:VAL:18>  (43) 
hydroph_interaction:VAL:18    NaN
hydroph_interaction:VAL:18     -1
Name: 41, dtype: object

>  <hbond:ASN:19>  (43) 
hbond:ASN:19    NaN
hbond:ASN:19     -1
Name: 41, dtype: object

>  <hydroph_interaction:ASN:19>  (43) 
hydroph_interaction:ASN:19    NaN
hydroph_interaction:ASN:19     -1
Name: 41, dtype: object

>  <halogenbond:ASN:19>  (43) 
halogenbond:ASN:19    NaN
halogenbond:ASN:19     -1
Name: 41, dtype: object

>  <hbond:ARG:20>  (43) 
hbond:ARG:20    NaN
hbond:ARG:20     -1
Name: 41, dtype: object

>  <hydroph_interaction:ARG:20>  (43) 
hydroph_interaction:ARG:20    NaN
hydroph_interaction:ARG:20     -1
Name: 41, dtype: object

>  <saltbridge:ARG:20>  (43) 
saltbridge:ARG:20    NaN
saltbridge:ARG:20     -1
Name: 41, dtype: object

>  <halogenbond:ARG:20>  (43) 
halogenbond:ARG:20    NaN
halogenbond:ARG:20     -1
Name: 41, dtype: object

>  <pication:ARG:20>  (43) 
pication:ARG:20    NaN
pication:ARG:20     -1
Name: 41, dtype: object

>  <hbond:HIS:21>  (43) 
hbond:HIS:21    0.0
hbond:HIS:21      0
Name: 41, dtype: object

>  <hydroph_interaction:HIS:21>  (43) 
hydroph_interaction:HIS:21    0.0
hydroph_interaction:HIS:21      0
Name: 41, dtype: object

>  <pistack:HIS:21>  (43) 
pistack:HIS:21    NaN
pistack:HIS:21     -1
Name: 41, dtype: object

>  <pication:HIS:21>  (43) 
pication:HIS:21    NaN
pication:HIS:21     -1
Name: 41, dtype: object

>  <saltbridge:HIS:21>  (43) 
saltbridge:HIS:21    0.0
saltbridge:HIS:21      0
Name: 41, dtype: object

>  <halogenbond:HIS:21>  (43) 
halogenbond:HIS:21    NaN
halogenbond:HIS:21     -1
Name: 41, dtype: object

>  <hydroph_interaction:LEU:22>  (43) 
hydroph_interaction:LEU:22    0.0
hydroph_interaction:LEU:22      0
Name: 41, dtype: object

>  <hbond:LEU:22>  (43) 
hbond:LEU:22    NaN
hbond:LEU:22     -1
Name: 41, dtype: object

>  <hydroph_interaction:TRP:28>  (43) 
hydroph_interaction:TRP:28    NaN
hydroph_interaction:TRP:28     -1
Name: 41, dtype: object

>  <hbond:SER:36>  (43) 
hbond:SER:36    NaN
hbond:SER:36     -1
Name: 41, dtype: object

>  <halogenbond:SER:36>  (43) 
halogenbond:SER:36    NaN
halogenbond:SER:36     -1
Name: 41, dtype: object

>  <hbond:SER:37>  (43) 
hbond:SER:37    NaN
hbond:SER:37     -1
Name: 41, dtype: object

>  <hbond:ARG:38>  (43) 
hbond:ARG:38    NaN
hbond:ARG:38     -1
Name: 41, dtype: object

>  <halogenbond:ARG:38>  (43) 
halogenbond:ARG:38    NaN
halogenbond:ARG:38     -1
Name: 41, dtype: object

>  <saltbridge:ASP:39>  (43) 
saltbridge:ASP:39    NaN
saltbridge:ASP:39     -1
Name: 41, dtype: object

>  <halogenbond:ASP:39>  (43) 
halogenbond:ASP:39    NaN
halogenbond:ASP:39     -1
Name: 41, dtype: object

>  <hbond:ASP:39>  (43) 
hbond:ASP:39    0.0
hbond:ASP:39      0
Name: 41, dtype: object

>  <hydroph_interaction:ASP:39>  (43) 
hydroph_interaction:ASP:39    0.0
hydroph_interaction:ASP:39      0
Name: 41, dtype: object

>  <hydroph_interaction:LEU:40>  (43) 
hydroph_interaction:LEU:40    NaN
hydroph_interaction:LEU:40     -1
Name: 41, dtype: object

>  <hydroph_interaction:TYR:63>  (43) 
hydroph_interaction:TYR:63    NaN
hydroph_interaction:TYR:63     -1
Name: 41, dtype: object

>  <hbond:TYR:63>  (43) 
hbond:TYR:63    NaN
hbond:TYR:63     -1
Name: 41, dtype: object

>  <pistack:TYR:63>  (43) 
pistack:TYR:63    NaN
pistack:TYR:63     -1
Name: 41, dtype: object

>  <pication:TYR:63>  (43) 
pication:TYR:63    NaN
pication:TYR:63     -1
Name: 41, dtype: object

>  <halogenbond:TYR:64>  (43) 
halogenbond:TYR:64    NaN
halogenbond:TYR:64     -1
Name: 41, dtype: object

>  <hbond:TYR:64>  (43) 
hbond:TYR:64    NaN
hbond:TYR:64     -1
Name: 41, dtype: object

>  <hydroph_interaction:TYR:64>  (43) 
hydroph_interaction:TYR:64    NaN
hydroph_interaction:TYR:64     -1
Name: 41, dtype: object

>  <halogenbond:CYS:65>  (43) 
halogenbond:CYS:65    NaN
halogenbond:CYS:65     -1
Name: 41, dtype: object

>  <hbond:CYS:65>  (43) 
hbond:CYS:65    NaN
hbond:CYS:65     -1
Name: 41, dtype: object

>  <hbond:SER:66>  (43) 
hbond:SER:66    NaN
hbond:SER:66     -1
Name: 41, dtype: object

>  <halogenbond:SER:66>  (43) 
halogenbond:SER:66    NaN
halogenbond:SER:66     -1
Name: 41, dtype: object

>  <hbond:SER:67>  (43) 
hbond:SER:67    NaN
hbond:SER:67     -1
Name: 41, dtype: object

>  <halogenbond:SER:67>  (43) 
halogenbond:SER:67    NaN
halogenbond:SER:67     -1
Name: 41, dtype: object

>  <hbond:ARG:68>  (43) 
hbond:ARG:68    NaN
hbond:ARG:68     -1
Name: 41, dtype: object

>  <saltbridge:ARG:68>  (43) 
saltbridge:ARG:68    NaN
saltbridge:ARG:68     -1
Name: 41, dtype: object

>  <hydroph_interaction:ARG:68>  (43) 
hydroph_interaction:ARG:68    NaN
hydroph_interaction:ARG:68     -1
Name: 41, dtype: object

>  <pication:ARG:68>  (43) 
pication:ARG:68    NaN
pication:ARG:68     -1
Name: 41, dtype: object

>  <hydroph_interaction:TYR:72>  (43) 
hydroph_interaction:TYR:72    NaN
hydroph_interaction:TYR:72     -1
Name: 41, dtype: object

>  <hydroph_interaction:VAL:74>  (43) 
hydroph_interaction:VAL:74    NaN
hydroph_interaction:VAL:74     -1
Name: 41, dtype: object

>  <hydroph_interaction:PHE:76>  (43) 
hydroph_interaction:PHE:76    NaN
hydroph_interaction:PHE:76     -1
Name: 41, dtype: object

>  <hbond:SER:77>  (43) 
hbond:SER:77    NaN
hbond:SER:77     -1
Name: 41, dtype: object

>  <hbond:SER:80>  (43) 
hbond:SER:80    NaN
hbond:SER:80     -1
Name: 41, dtype: object

>  <hbond:LEU:81>  (43) 
hbond:LEU:81    NaN
hbond:LEU:81     -1
Name: 41, dtype: object

>  <halogenbond:LEU:81>  (43) 
halogenbond:LEU:81    NaN
halogenbond:LEU:81     -1
Name: 41, dtype: object

>  <hydroph_interaction:LEU:81>  (43) 
hydroph_interaction:LEU:81    NaN
hydroph_interaction:LEU:81     -1
Name: 41, dtype: object

>  <hydroph_interaction:ILE:82>  (43) 
hydroph_interaction:ILE:82    NaN
hydroph_interaction:ILE:82     -1
Name: 41, dtype: object

>  <halogenbond:ILE:82>  (43) 
halogenbond:ILE:82    NaN
halogenbond:ILE:82     -1
Name: 41, dtype: object

>  <hbond:ILE:82>  (43) 
hbond:ILE:82    NaN
hbond:ILE:82     -1
Name: 41, dtype: object

>  <hbond:PHE:83>  (43) 
hbond:PHE:83    NaN
hbond:PHE:83     -1
Name: 41, dtype: object

>  <hydroph_interaction:PHE:83>  (43) 
hydroph_interaction:PHE:83    NaN
hydroph_interaction:PHE:83     -1
Name: 41, dtype: object

>  <halogenbond:PHE:83>  (43) 
halogenbond:PHE:83    NaN
halogenbond:PHE:83     -1
Name: 41, dtype: object

>  <pistack:PHE:83>  (43) 
pistack:PHE:83    NaN
pistack:PHE:83     -1
Name: 41, dtype: object

>  <pication:PHE:83>  (43) 
pication:PHE:83    NaN
pication:PHE:83     -1
Name: 41, dtype: object

>  <hydroph_interaction:VAL:84>  (43) 
hydroph_interaction:VAL:84    0.0
hydroph_interaction:VAL:84      0
Name: 41, dtype: object

>  <halogenbond:VAL:84>  (43) 
halogenbond:VAL:84    NaN
halogenbond:VAL:84     -1
Name: 41, dtype: object

>  <hbond:VAL:84>  (43) 
hbond:VAL:84    NaN
hbond:VAL:84     -1
Name: 41, dtype: object

>  <hydroph_interaction:GLU:85>  (43) 
hydroph_interaction:GLU:85    0.0
hydroph_interaction:GLU:85      0
Name: 41, dtype: object

>  <hbond:GLU:85>  (43) 
hbond:GLU:85    0.0
hbond:GLU:85      0
Name: 41, dtype: object

>  <halogenbond:GLU:85>  (43) 
halogenbond:GLU:85    NaN
halogenbond:GLU:85     -1
Name: 41, dtype: object

>  <saltbridge:GLU:85>  (43) 
saltbridge:GLU:85    NaN
saltbridge:GLU:85     -1
Name: 41, dtype: object

>  <halogenbond:ALA:86>  (43) 
halogenbond:ALA:86    NaN
halogenbond:ALA:86     -1
Name: 41, dtype: object

>  <hbond:ALA:86>  (43) 
hbond:ALA:86    0.0
hbond:ALA:86      0
Name: 41, dtype: object

>  <hydroph_interaction:ALA:86>  (43) 
hydroph_interaction:ALA:86    NaN
hydroph_interaction:ALA:86     -1
Name: 41, dtype: object

>  <hbond:SER:87>  (43) 
hbond:SER:87    1
hbond:SER:87    1
Name: 41, dtype: object

>  <halogenbond:SER:87>  (43) 
halogenbond:SER:87    NaN
halogenbond:SER:87     -1
Name: 41, dtype: object

>  <hbond:GLU:88>  (43) 
hbond:GLU:88    0.0
hbond:GLU:88      0
Name: 41, dtype: object

>  <hydroph_interaction:GLU:88>  (43) 
hydroph_interaction:GLU:88    0.0
hydroph_interaction:GLU:88      0
Name: 41, dtype: object

>  <halogenbond:GLU:88>  (43) 
halogenbond:GLU:88    0.0
halogenbond:GLU:88      0
Name: 41, dtype: object

>  <saltbridge:GLU:88>  (43) 
saltbridge:GLU:88    NaN
saltbridge:GLU:88     -1
Name: 41, dtype: object

>  <hydroph_interaction:TYR:89>  (43) 
hydroph_interaction:TYR:89    1.0
hydroph_interaction:TYR:89      1
Name: 41, dtype: object

>  <pistack:TYR:89>  (43) 
pistack:TYR:89    NaN
pistack:TYR:89     -1
Name: 41, dtype: object

>  <hbond:TYR:89>  (43) 
hbond:TYR:89    NaN
hbond:TYR:89     -1
Name: 41, dtype: object

>  <halogenbond:TYR:89>  (43) 
halogenbond:TYR:89    NaN
halogenbond:TYR:89     -1
Name: 41, dtype: object

>  <hydroph_interaction:TYR:90>  (43) 
hydroph_interaction:TYR:90    1.0
hydroph_interaction:TYR:90      1
Name: 41, dtype: object

>  <hbond:TYR:90>  (43) 
hbond:TYR:90    NaN
hbond:TYR:90     -1
Name: 41, dtype: object

>  <pistack:TYR:90>  (43) 
pistack:TYR:90    NaN
pistack:TYR:90     -1
Name: 41, dtype: object

>  <halogenbond:TYR:90>  (43) 
halogenbond:TYR:90    NaN
halogenbond:TYR:90     -1
Name: 41, dtype: object

>  <pication:TYR:90>  (43) 
pication:TYR:90    NaN
pication:TYR:90     -1
Name: 41, dtype: object

>  <hbond:PRO:91>  (43) 
hbond:PRO:91    NaN
hbond:PRO:91     -1
Name: 41, dtype: object

>  <hydroph_interaction:PRO:91>  (43) 
hydroph_interaction:PRO:91    NaN
hydroph_interaction:PRO:91     -1
Name: 41, dtype: object

>  <halogenbond:PRO:91>  (43) 
halogenbond:PRO:91    NaN
halogenbond:PRO:91     -1
Name: 41, dtype: object

>  <hbond:ALA:92>  (43) 
hbond:ALA:92    NaN
hbond:ALA:92     -1
Name: 41, dtype: object

>  <hydroph_interaction:ALA:92>  (43) 
hydroph_interaction:ALA:92    NaN
hydroph_interaction:ALA:92     -1
Name: 41, dtype: object

>  <saltbridge:ARG:93>  (43) 
saltbridge:ARG:93    NaN
saltbridge:ARG:93     -1
Name: 41, dtype: object

>  <hbond:ARG:93>  (43) 
hbond:ARG:93    NaN
hbond:ARG:93     -1
Name: 41, dtype: object

>  <hydroph_interaction:ARG:93>  (43) 
hydroph_interaction:ARG:93    NaN
hydroph_interaction:ARG:93     -1
Name: 41, dtype: object

>  <halogenbond:ARG:93>  (43) 
halogenbond:ARG:93    NaN
halogenbond:ARG:93     -1
Name: 41, dtype: object

>  <pication:ARG:93>  (43) 
pication:ARG:93    NaN
pication:ARG:93     -1
Name: 41, dtype: object

>  <hydroph_interaction:TYR:94>  (43) 
hydroph_interaction:TYR:94    NaN
hydroph_interaction:TYR:94     -1
Name: 41, dtype: object

>  <pistack:TYR:94>  (43) 
pistack:TYR:94    NaN
pistack:TYR:94     -1
Name: 41, dtype: object

>  <hbond:TYR:94>  (43) 
hbond:TYR:94    NaN
hbond:TYR:94     -1
Name: 41, dtype: object

>  <hbond:GLN:95>  (43) 
hbond:GLN:95    0.0
hbond:GLN:95      0
Name: 41, dtype: object

>  <hydroph_interaction:GLN:95>  (43) 
hydroph_interaction:GLN:95    NaN
hydroph_interaction:GLN:95     -1
Name: 41, dtype: object

>  <halogenbond:GLN:95>  (43) 
halogenbond:GLN:95    NaN
halogenbond:GLN:95     -1
Name: 41, dtype: object

>  <hbond:SER:96>  (43) 
hbond:SER:96    NaN
hbond:SER:96     -1
Name: 41, dtype: object

>  <halogenbond:HIS:97>  (43) 
halogenbond:HIS:97    NaN
halogenbond:HIS:97     -1
Name: 41, dtype: object

>  <hydroph_interaction:LEU:98>  (43) 
hydroph_interaction:LEU:98    NaN
hydroph_interaction:LEU:98     -1
Name: 41, dtype: object

>  <hbond:LEU:98>  (43) 
hbond:LEU:98    NaN
hbond:LEU:98     -1
Name: 41, dtype: object

>  <halogenbond:LEU:98>  (43) 
halogenbond:LEU:98    NaN
halogenbond:LEU:98     -1
Name: 41, dtype: object

>  <hbond:MET:99>  (43) 
hbond:MET:99    NaN
hbond:MET:99     -1
Name: 41, dtype: object

>  <hydroph_interaction:MET:99>  (43) 
hydroph_interaction:MET:99    NaN
hydroph_interaction:MET:99     -1
Name: 41, dtype: object

>  <halogenbond:MET:99>  (43) 
halogenbond:MET:99    NaN
halogenbond:MET:99     -1
Name: 41, dtype: object

>  <hydroph_interaction:LEU:100>  (43) 
hydroph_interaction:LEU:100    NaN
hydroph_interaction:LEU:100     -1
Name: 41, dtype: object

>  <hbond:LEU:100>  (43) 
hbond:LEU:100    NaN
hbond:LEU:100     -1
Name: 41, dtype: object

>  <hbond:ALA:101>  (43) 
hbond:ALA:101    NaN
hbond:ALA:101     -1
Name: 41, dtype: object

>  <hydroph_interaction:ALA:101>  (43) 
hydroph_interaction:ALA:101    NaN
hydroph_interaction:ALA:101     -1
Name: 41, dtype: object

>  <hydroph_interaction:VAL:102>  (43) 
hydroph_interaction:VAL:102    NaN
hydroph_interaction:VAL:102     -1
Name: 41, dtype: object

>  <hbond:VAL:102>  (43) 
hbond:VAL:102    NaN
hbond:VAL:102     -1
Name: 41, dtype: object

>  <hbond:GLY:103>  (43) 
hbond:GLY:103    NaN
hbond:GLY:103     -1
Name: 41, dtype: object

>  <halogenbond:GLY:103>  (43) 
halogenbond:GLY:103    NaN
halogenbond:GLY:103     -1
Name: 41, dtype: object

>  <hbond:HIS:104>  (43) 
hbond:HIS:104    NaN
hbond:HIS:104     -1
Name: 41, dtype: object

>  <saltbridge:HIS:104>  (43) 
saltbridge:HIS:104    NaN
saltbridge:HIS:104     -1
Name: 41, dtype: object

>  <pication:HIS:104>  (43) 
pication:HIS:104    NaN
pication:HIS:104     -1
Name: 41, dtype: object

>  <halogenbond:HIS:104>  (43) 
halogenbond:HIS:104    NaN
halogenbond:HIS:104     -1
Name: 41, dtype: object

>  <hydroph_interaction:HIS:104>  (43) 
hydroph_interaction:HIS:104    NaN
hydroph_interaction:HIS:104     -1
Name: 41, dtype: object

>  <pistack:HIS:104>  (43) 
pistack:HIS:104    NaN
pistack:HIS:104     -1
Name: 41, dtype: object

>  <halogenbond:SER:105>  (43) 
halogenbond:SER:105    1.0
halogenbond:SER:105      1
Name: 41, dtype: object

>  <hbond:SER:105>  (43) 
hbond:SER:105    0.0
hbond:SER:105      0
Name: 41, dtype: object

>  <hbond:GLU:106>  (43) 
hbond:GLU:106    0.0
hbond:GLU:106      0
Name: 41, dtype: object

>  <hydroph_interaction:GLU:106>  (43) 
hydroph_interaction:GLU:106    NaN
hydroph_interaction:GLU:106     -1
Name: 41, dtype: object

>  <saltbridge:GLU:106>  (43) 
saltbridge:GLU:106    NaN
saltbridge:GLU:106     -1
Name: 41, dtype: object

>  <halogenbond:GLU:106>  (43) 
halogenbond:GLU:106    NaN
halogenbond:GLU:106     -1
Name: 41, dtype: object

>  <hydroph_interaction:PRO:107>  (43) 
hydroph_interaction:PRO:107    1
hydroph_interaction:PRO:107    1
Name: 41, dtype: object

>  <hbond:PRO:107>  (43) 
hbond:PRO:107    0.0
hbond:PRO:107      0
Name: 41, dtype: object

>  <halogenbond:PRO:107>  (43) 
halogenbond:PRO:107    NaN
halogenbond:PRO:107     -1
Name: 41, dtype: object

>  <hbond:GLY:108>  (43) 
hbond:GLY:108    NaN
hbond:GLY:108     -1
Name: 41, dtype: object

>  <halogenbond:GLY:108>  (43) 
halogenbond:GLY:108    NaN
halogenbond:GLY:108     -1
Name: 41, dtype: object

>  <hbond:ASP:109>  (43) 
hbond:ASP:109    0.0
hbond:ASP:109      0
Name: 41, dtype: object

>  <hydroph_interaction:ASP:109>  (43) 
hydroph_interaction:ASP:109    0.0
hydroph_interaction:ASP:109      0
Name: 41, dtype: object

>  <saltbridge:ASP:109>  (43) 
saltbridge:ASP:109    NaN
saltbridge:ASP:109     -1
Name: 41, dtype: object

>  <halogenbond:CYS:110>  (43) 
halogenbond:CYS:110    0.0
halogenbond:CYS:110      0
Name: 41, dtype: object

>  <hbond:CYS:110>  (43) 
hbond:CYS:110    0.0
hbond:CYS:110      0
Name: 41, dtype: object

>  <hbond:GLY:111>  (43) 
hbond:GLY:111    NaN
hbond:GLY:111     -1
Name: 41, dtype: object

>  <hbond:GLY:112>  (43) 
hbond:GLY:112    NaN
hbond:GLY:112     -1
Name: 41, dtype: object

>  <hbond:ILE:113>  (43) 
hbond:ILE:113    NaN
hbond:ILE:113     -1
Name: 41, dtype: object

>  <hydroph_interaction:LEU:114>  (43) 
hydroph_interaction:LEU:114    NaN
hydroph_interaction:LEU:114     -1
Name: 41, dtype: object

>  <hbond:LEU:114>  (43) 
hbond:LEU:114    NaN
hbond:LEU:114     -1
Name: 41, dtype: object

>  <hydroph_interaction:ILE:123>  (43) 
hydroph_interaction:ILE:123    NaN
hydroph_interaction:ILE:123     -1
Name: 41, dtype: object

>  <hbond:ILE:123>  (43) 
hbond:ILE:123    NaN
hbond:ILE:123     -1
Name: 41, dtype: object

>  <hydroph_interaction:VAL:124>  (43) 
hydroph_interaction:VAL:124    0.0
hydroph_interaction:VAL:124      0
Name: 41, dtype: object

>  <hbond:VAL:124>  (43) 
hbond:VAL:124    NaN
hbond:VAL:124     -1
Name: 41, dtype: object

>  <halogenbond:VAL:124>  (43) 
halogenbond:VAL:124    NaN
halogenbond:VAL:124     -1
Name: 41, dtype: object

>  <hbond:SER:125>  (43) 
hbond:SER:125    1
hbond:SER:125    1
Name: 41, dtype: object

>  <halogenbond:SER:125>  (43) 
halogenbond:SER:125    NaN
halogenbond:SER:125     -1
Name: 41, dtype: object

>  <hydroph_interaction:THR:126>  (43) 
hydroph_interaction:THR:126    0.0
hydroph_interaction:THR:126      0
Name: 41, dtype: object

>  <hbond:THR:126>  (43) 
hbond:THR:126    0.0
hbond:THR:126      0
Name: 41, dtype: object

>  <halogenbond:THR:126>  (43) 
halogenbond:THR:126    NaN
halogenbond:THR:126     -1
Name: 41, dtype: object

>  <hbond:GLY:127>  (43) 
hbond:GLY:127    0
hbond:GLY:127    0
Name: 41, dtype: object

>  <halogenbond:GLY:127>  (43) 
halogenbond:GLY:127    NaN
halogenbond:GLY:127     -1
Name: 41, dtype: object

>  <hydroph_interaction:GLY:127>  (43) 
hydroph_interaction:GLY:127    NaN
hydroph_interaction:GLY:127     -1
Name: 41, dtype: object

>  <hbond:GLY:128>  (43) 
hbond:GLY:128    NaN
hbond:GLY:128     -1
Name: 41, dtype: object

>  <halogenbond:GLY:128>  (43) 
halogenbond:GLY:128    NaN
halogenbond:GLY:128     -1
Name: 41, dtype: object

>  <hydroph_interaction:GLY:128>  (43) 
hydroph_interaction:GLY:128    NaN
hydroph_interaction:GLY:128     -1
Name: 41, dtype: object

>  <hbond:ASN:129>  (43) 
hbond:ASN:129    NaN
hbond:ASN:129     -1
Name: 41, dtype: object

>  <hydroph_interaction:ASN:129>  (43) 
hydroph_interaction:ASN:129    NaN
hydroph_interaction:ASN:129     -1
Name: 41, dtype: object

>  <halogenbond:ASN:129>  (43) 
halogenbond:ASN:129    NaN
halogenbond:ASN:129     -1
Name: 41, dtype: object

>  <hbond:GLY:130>  (43) 
hbond:GLY:130    NaN
hbond:GLY:130     -1
Name: 41, dtype: object

>  <hbond:LEU:131>  (43) 
hbond:LEU:131    NaN
hbond:LEU:131     -1
Name: 41, dtype: object

>  <hydroph_interaction:LEU:131>  (43) 
hydroph_interaction:LEU:131    NaN
hydroph_interaction:LEU:131     -1
Name: 41, dtype: object

>  <halogenbond:LEU:131>  (43) 
halogenbond:LEU:131    NaN
halogenbond:LEU:131     -1
Name: 41, dtype: object

>  <hydroph_interaction:VAL:132>  (43) 
hydroph_interaction:VAL:132    NaN
hydroph_interaction:VAL:132     -1
Name: 41, dtype: object

>  <hbond:VAL:132>  (43) 
hbond:VAL:132    NaN
hbond:VAL:132     -1
Name: 41, dtype: object

>  <hbond:GLY:133>  (43) 
hbond:GLY:133    0.0
hbond:GLY:133      0
Name: 41, dtype: object

>  <halogenbond:GLY:133>  (43) 
halogenbond:GLY:133    NaN
halogenbond:GLY:133     -1
Name: 41, dtype: object

>  <hydroph_interaction:PHE:134>  (43) 
hydroph_interaction:PHE:134    NaN
hydroph_interaction:PHE:134     -1
Name: 41, dtype: object

>  <hbond:PHE:134>  (43) 
hbond:PHE:134    NaN
hbond:PHE:134     -1
Name: 41, dtype: object

>  <pistack:PHE:134>  (43) 
pistack:PHE:134    NaN
pistack:PHE:134     -1
Name: 41, dtype: object

>  <pication:PHE:134>  (43) 
pication:PHE:134    NaN
pication:PHE:134     -1
Name: 41, dtype: object

>  <halogenbond:PHE:134>  (43) 
halogenbond:PHE:134    NaN
halogenbond:PHE:134     -1
Name: 41, dtype: object

>  <hydroph_interaction:ALA:135>  (43) 
hydroph_interaction:ALA:135    NaN
hydroph_interaction:ALA:135     -1
Name: 41, dtype: object

>  <hbond:ALA:135>  (43) 
hbond:ALA:135    NaN
hbond:ALA:135     -1
Name: 41, dtype: object

$$$$
Z1529755699
     RDKit          3D

 14 14  0  0  0  0  0  0  0  0999 V2000
   31.2915   16.4309   11.5484 C   0  0  0  0  0  0  0  0  0  0  0  0
   31.8429   15.7726   10.3269 C   0  0  0  0  0  0  0  0  0  0  0  0
   31.5268   14.4920    9.8404 C   0  0  0  0  0  0  0  0  0  0  0  0
   32.1117   13.8815    8.7387 C   0  0  0  0  0  0  0  0  0  0  0  0
   33.3240   13.9700    8.5779 O   0  0  0  0  0  0  0  0  0  0  0  0
   31.2579   13.1820    7.9133 N   0  0  0  0  0  0  0  0  0  0  0  0
   31.6041   11.8995    7.4566 C   0  0  0  0  0  0  0  0  0  0  0  0
   32.6755   11.6437    6.5987 C   0  0  0  0  0  0  0  0  0  0  0  0
   32.9734   10.3312    6.2083 C   0  0  0  0  0  0  0  0  0  0  0  0
   34.1278   10.0412    5.2702 C   0  0  0  0  0  0  0  0  0  0  0  0
   32.2032    9.2833    6.6903 C   0  0  0  0  0  0  0  0  0  0  0  0
   31.1371    9.5196    7.5326 C   0  0  0  0  0  0  0  0  0  0  0  0
   30.8490   10.8238    7.8930 C   0  0  0  0  0  0  0  0  0  0  0  0
   29.8053   11.0969    8.6882 O   0  0  0  0  0  0  0  0  0  0  0  0
  1  2  1  0
  2  3  2  3
  3  4  1  0
  4  5  2  0
  4  6  1  0
  6  7  1  0
  7  8  2  0
  8  9  1  0
  9 10  1  0
  9 11  2  0
 11 12  1  0
 12 13  2  0
 13 14  1  0
 13  7  1  0
A    1
 C1 
A    2
 C2 
A    3
 C3 
A    4
 C4 
A    5
 O1 
A    6
 N1 
A    7
 C5 
A    8
 C6 
A    9
 C7 
A   10
 C8 
A   11
 C9 
A   12
 C10
A   13
 C11
A   14
 O2 
M  END
>  <ref_pdb>  (44) 
Ax0310a

>  <ref_mols>  (44) 
Ax0554a,Ax0732a

>  <original SMILES>  (44) 
CC=CC(=O)Nc1cc(C)ccc1O

>  <rationale>  (44) 
info halogenbond:G127+D39+A86+E85+E106+T126+H104+Y64+C65+S87+N129+F83+R93+L131+I82+G128+P91+N19+H21+V84+G133+Y90+Y89+H97+L81+F134+L98+R20+G103+S66+S67+S7+G108+R38+V124+M99+S36; hbond:S87+G127+D39+G108+G103+G128+G130+L131+N129+N19+H104+R68+V124+R93+P91+F83+S67+S7+S66+G112+G133+V132+R20+Y89+S77+A135+Y63+A92+A101+M99+F134+L100+I82+Y64+S36+L98+V84+L81+Y94+S80+R38+S37+V102+G8+I123+G111+I113+L114+C65+L22+S96; hydroph_interaction:V84+Y90+T126+L22+N129+N19+L40+I123+A135+Q95+I82+L98+F83+R93+Y63+F134+H104+R20+A86+V74+P91+A101+F76+M99+L114+A92+Y94+R68+Y72+Y64+V18+V102+W28+G127+G128+L81; pication:H21+H104+R93+Y63+F134+Y90+R68+F83+R20; pistack:H21+Y89+Y90+H104+F134+Y63+F83+Y94; saltbridge:D39+H21+R93+H104+E106+D109+E88+R68+R20; 

>  <intxn_cluster>  (44) 
-1

>  <intxn_cluster_rank>  (44) 
-1

>  <N_interactions>  (44) 
6

>  <∆∆G>  (44) 
-7.741576

>  <$/mg>  (44) 
163.0

>  <comRMSD>  (44) 
0.850126

>  <N_rotatable_bonds>  (44) 
5

>  <deep_P1_sidechain>  (44) 
nan

>  <farthest_distance_to_substrate>  (44) 
2.368896

>  <hbond:SER:7>  (44) 
hbond:SER:7    NaN
hbond:SER:7     -1
Name: 42, dtype: object

>  <halogenbond:SER:7>  (44) 
halogenbond:SER:7    NaN
halogenbond:SER:7     -1
Name: 42, dtype: object

>  <hbond:GLY:8>  (44) 
hbond:GLY:8    NaN
hbond:GLY:8     -1
Name: 42, dtype: object

>  <hydroph_interaction:VAL:18>  (44) 
hydroph_interaction:VAL:18    NaN
hydroph_interaction:VAL:18     -1
Name: 42, dtype: object

>  <hbond:ASN:19>  (44) 
hbond:ASN:19    NaN
hbond:ASN:19     -1
Name: 42, dtype: object

>  <hydroph_interaction:ASN:19>  (44) 
hydroph_interaction:ASN:19    NaN
hydroph_interaction:ASN:19     -1
Name: 42, dtype: object

>  <halogenbond:ASN:19>  (44) 
halogenbond:ASN:19    NaN
halogenbond:ASN:19     -1
Name: 42, dtype: object

>  <hbond:ARG:20>  (44) 
hbond:ARG:20    NaN
hbond:ARG:20     -1
Name: 42, dtype: object

>  <hydroph_interaction:ARG:20>  (44) 
hydroph_interaction:ARG:20    NaN
hydroph_interaction:ARG:20     -1
Name: 42, dtype: object

>  <saltbridge:ARG:20>  (44) 
saltbridge:ARG:20    NaN
saltbridge:ARG:20     -1
Name: 42, dtype: object

>  <halogenbond:ARG:20>  (44) 
halogenbond:ARG:20    NaN
halogenbond:ARG:20     -1
Name: 42, dtype: object

>  <pication:ARG:20>  (44) 
pication:ARG:20    NaN
pication:ARG:20     -1
Name: 42, dtype: object

>  <hbond:HIS:21>  (44) 
hbond:HIS:21    0.0
hbond:HIS:21      0
Name: 42, dtype: object

>  <hydroph_interaction:HIS:21>  (44) 
hydroph_interaction:HIS:21    0.0
hydroph_interaction:HIS:21      0
Name: 42, dtype: object

>  <pistack:HIS:21>  (44) 
pistack:HIS:21    NaN
pistack:HIS:21     -1
Name: 42, dtype: object

>  <pication:HIS:21>  (44) 
pication:HIS:21    NaN
pication:HIS:21     -1
Name: 42, dtype: object

>  <saltbridge:HIS:21>  (44) 
saltbridge:HIS:21    NaN
saltbridge:HIS:21     -1
Name: 42, dtype: object

>  <halogenbond:HIS:21>  (44) 
halogenbond:HIS:21    NaN
halogenbond:HIS:21     -1
Name: 42, dtype: object

>  <hydroph_interaction:LEU:22>  (44) 
hydroph_interaction:LEU:22    NaN
hydroph_interaction:LEU:22     -1
Name: 42, dtype: object

>  <hbond:LEU:22>  (44) 
hbond:LEU:22    NaN
hbond:LEU:22     -1
Name: 42, dtype: object

>  <hydroph_interaction:TRP:28>  (44) 
hydroph_interaction:TRP:28    NaN
hydroph_interaction:TRP:28     -1
Name: 42, dtype: object

>  <hbond:SER:36>  (44) 
hbond:SER:36    NaN
hbond:SER:36     -1
Name: 42, dtype: object

>  <halogenbond:SER:36>  (44) 
halogenbond:SER:36    NaN
halogenbond:SER:36     -1
Name: 42, dtype: object

>  <hbond:SER:37>  (44) 
hbond:SER:37    NaN
hbond:SER:37     -1
Name: 42, dtype: object

>  <hbond:ARG:38>  (44) 
hbond:ARG:38    NaN
hbond:ARG:38     -1
Name: 42, dtype: object

>  <halogenbond:ARG:38>  (44) 
halogenbond:ARG:38    NaN
halogenbond:ARG:38     -1
Name: 42, dtype: object

>  <saltbridge:ASP:39>  (44) 
saltbridge:ASP:39    NaN
saltbridge:ASP:39     -1
Name: 42, dtype: object

>  <halogenbond:ASP:39>  (44) 
halogenbond:ASP:39    NaN
halogenbond:ASP:39     -1
Name: 42, dtype: object

>  <hbond:ASP:39>  (44) 
hbond:ASP:39    NaN
hbond:ASP:39     -1
Name: 42, dtype: object

>  <hydroph_interaction:ASP:39>  (44) 
hydroph_interaction:ASP:39    0.0
hydroph_interaction:ASP:39      0
Name: 42, dtype: object

>  <hydroph_interaction:LEU:40>  (44) 
hydroph_interaction:LEU:40    NaN
hydroph_interaction:LEU:40     -1
Name: 42, dtype: object

>  <hydroph_interaction:TYR:63>  (44) 
hydroph_interaction:TYR:63    NaN
hydroph_interaction:TYR:63     -1
Name: 42, dtype: object

>  <hbond:TYR:63>  (44) 
hbond:TYR:63    NaN
hbond:TYR:63     -1
Name: 42, dtype: object

>  <pistack:TYR:63>  (44) 
pistack:TYR:63    NaN
pistack:TYR:63     -1
Name: 42, dtype: object

>  <pication:TYR:63>  (44) 
pication:TYR:63    NaN
pication:TYR:63     -1
Name: 42, dtype: object

>  <halogenbond:TYR:64>  (44) 
halogenbond:TYR:64    NaN
halogenbond:TYR:64     -1
Name: 42, dtype: object

>  <hbond:TYR:64>  (44) 
hbond:TYR:64    NaN
hbond:TYR:64     -1
Name: 42, dtype: object

>  <hydroph_interaction:TYR:64>  (44) 
hydroph_interaction:TYR:64    NaN
hydroph_interaction:TYR:64     -1
Name: 42, dtype: object

>  <halogenbond:CYS:65>  (44) 
halogenbond:CYS:65    NaN
halogenbond:CYS:65     -1
Name: 42, dtype: object

>  <hbond:CYS:65>  (44) 
hbond:CYS:65    NaN
hbond:CYS:65     -1
Name: 42, dtype: object

>  <hbond:SER:66>  (44) 
hbond:SER:66    NaN
hbond:SER:66     -1
Name: 42, dtype: object

>  <halogenbond:SER:66>  (44) 
halogenbond:SER:66    NaN
halogenbond:SER:66     -1
Name: 42, dtype: object

>  <hbond:SER:67>  (44) 
hbond:SER:67    NaN
hbond:SER:67     -1
Name: 42, dtype: object

>  <halogenbond:SER:67>  (44) 
halogenbond:SER:67    NaN
halogenbond:SER:67     -1
Name: 42, dtype: object

>  <hbond:ARG:68>  (44) 
hbond:ARG:68    NaN
hbond:ARG:68     -1
Name: 42, dtype: object

>  <saltbridge:ARG:68>  (44) 
saltbridge:ARG:68    NaN
saltbridge:ARG:68     -1
Name: 42, dtype: object

>  <hydroph_interaction:ARG:68>  (44) 
hydroph_interaction:ARG:68    NaN
hydroph_interaction:ARG:68     -1
Name: 42, dtype: object

>  <pication:ARG:68>  (44) 
pication:ARG:68    NaN
pication:ARG:68     -1
Name: 42, dtype: object

>  <hydroph_interaction:TYR:72>  (44) 
hydroph_interaction:TYR:72    NaN
hydroph_interaction:TYR:72     -1
Name: 42, dtype: object

>  <hydroph_interaction:VAL:74>  (44) 
hydroph_interaction:VAL:74    NaN
hydroph_interaction:VAL:74     -1
Name: 42, dtype: object

>  <hydroph_interaction:PHE:76>  (44) 
hydroph_interaction:PHE:76    NaN
hydroph_interaction:PHE:76     -1
Name: 42, dtype: object

>  <hbond:SER:77>  (44) 
hbond:SER:77    NaN
hbond:SER:77     -1
Name: 42, dtype: object

>  <hbond:SER:80>  (44) 
hbond:SER:80    NaN
hbond:SER:80     -1
Name: 42, dtype: object

>  <hbond:LEU:81>  (44) 
hbond:LEU:81    NaN
hbond:LEU:81     -1
Name: 42, dtype: object

>  <halogenbond:LEU:81>  (44) 
halogenbond:LEU:81    NaN
halogenbond:LEU:81     -1
Name: 42, dtype: object

>  <hydroph_interaction:LEU:81>  (44) 
hydroph_interaction:LEU:81    NaN
hydroph_interaction:LEU:81     -1
Name: 42, dtype: object

>  <hydroph_interaction:ILE:82>  (44) 
hydroph_interaction:ILE:82    NaN
hydroph_interaction:ILE:82     -1
Name: 42, dtype: object

>  <halogenbond:ILE:82>  (44) 
halogenbond:ILE:82    NaN
halogenbond:ILE:82     -1
Name: 42, dtype: object

>  <hbond:ILE:82>  (44) 
hbond:ILE:82    NaN
hbond:ILE:82     -1
Name: 42, dtype: object

>  <hbond:PHE:83>  (44) 
hbond:PHE:83    NaN
hbond:PHE:83     -1
Name: 42, dtype: object

>  <hydroph_interaction:PHE:83>  (44) 
hydroph_interaction:PHE:83    NaN
hydroph_interaction:PHE:83     -1
Name: 42, dtype: object

>  <halogenbond:PHE:83>  (44) 
halogenbond:PHE:83    NaN
halogenbond:PHE:83     -1
Name: 42, dtype: object

>  <pistack:PHE:83>  (44) 
pistack:PHE:83    NaN
pistack:PHE:83     -1
Name: 42, dtype: object

>  <pication:PHE:83>  (44) 
pication:PHE:83    NaN
pication:PHE:83     -1
Name: 42, dtype: object

>  <hydroph_interaction:VAL:84>  (44) 
hydroph_interaction:VAL:84    1.0
hydroph_interaction:VAL:84      1
Name: 42, dtype: object

>  <halogenbond:VAL:84>  (44) 
halogenbond:VAL:84    NaN
halogenbond:VAL:84     -1
Name: 42, dtype: object

>  <hbond:VAL:84>  (44) 
hbond:VAL:84    NaN
hbond:VAL:84     -1
Name: 42, dtype: object

>  <hydroph_interaction:GLU:85>  (44) 
hydroph_interaction:GLU:85    0.0
hydroph_interaction:GLU:85      0
Name: 42, dtype: object

>  <hbond:GLU:85>  (44) 
hbond:GLU:85    0.0
hbond:GLU:85      0
Name: 42, dtype: object

>  <halogenbond:GLU:85>  (44) 
halogenbond:GLU:85    NaN
halogenbond:GLU:85     -1
Name: 42, dtype: object

>  <saltbridge:GLU:85>  (44) 
saltbridge:GLU:85    0.0
saltbridge:GLU:85      0
Name: 42, dtype: object

>  <halogenbond:ALA:86>  (44) 
halogenbond:ALA:86    NaN
halogenbond:ALA:86     -1
Name: 42, dtype: object

>  <hbond:ALA:86>  (44) 
hbond:ALA:86    0.0
hbond:ALA:86      0
Name: 42, dtype: object

>  <hydroph_interaction:ALA:86>  (44) 
hydroph_interaction:ALA:86    NaN
hydroph_interaction:ALA:86     -1
Name: 42, dtype: object

>  <hbond:SER:87>  (44) 
hbond:SER:87    2
hbond:SER:87    2
Name: 42, dtype: object

>  <halogenbond:SER:87>  (44) 
halogenbond:SER:87    NaN
halogenbond:SER:87     -1
Name: 42, dtype: object

>  <hbond:GLU:88>  (44) 
hbond:GLU:88    0.0
hbond:GLU:88      0
Name: 42, dtype: object

>  <hydroph_interaction:GLU:88>  (44) 
hydroph_interaction:GLU:88    0.0
hydroph_interaction:GLU:88      0
Name: 42, dtype: object

>  <halogenbond:GLU:88>  (44) 
halogenbond:GLU:88    0.0
halogenbond:GLU:88      0
Name: 42, dtype: object

>  <saltbridge:GLU:88>  (44) 
saltbridge:GLU:88    NaN
saltbridge:GLU:88     -1
Name: 42, dtype: object

>  <hydroph_interaction:TYR:89>  (44) 
hydroph_interaction:TYR:89    0.0
hydroph_interaction:TYR:89      0
Name: 42, dtype: object

>  <pistack:TYR:89>  (44) 
pistack:TYR:89    NaN
pistack:TYR:89     -1
Name: 42, dtype: object

>  <hbond:TYR:89>  (44) 
hbond:TYR:89    NaN
hbond:TYR:89     -1
Name: 42, dtype: object

>  <halogenbond:TYR:89>  (44) 
halogenbond:TYR:89    NaN
halogenbond:TYR:89     -1
Name: 42, dtype: object

>  <hydroph_interaction:TYR:90>  (44) 
hydroph_interaction:TYR:90    1.0
hydroph_interaction:TYR:90      1
Name: 42, dtype: object

>  <hbond:TYR:90>  (44) 
hbond:TYR:90    0.0
hbond:TYR:90      0
Name: 42, dtype: object

>  <pistack:TYR:90>  (44) 
pistack:TYR:90    NaN
pistack:TYR:90     -1
Name: 42, dtype: object

>  <halogenbond:TYR:90>  (44) 
halogenbond:TYR:90    NaN
halogenbond:TYR:90     -1
Name: 42, dtype: object

>  <pication:TYR:90>  (44) 
pication:TYR:90    NaN
pication:TYR:90     -1
Name: 42, dtype: object

>  <hbond:PRO:91>  (44) 
hbond:PRO:91    NaN
hbond:PRO:91     -1
Name: 42, dtype: object

>  <hydroph_interaction:PRO:91>  (44) 
hydroph_interaction:PRO:91    NaN
hydroph_interaction:PRO:91     -1
Name: 42, dtype: object

>  <halogenbond:PRO:91>  (44) 
halogenbond:PRO:91    NaN
halogenbond:PRO:91     -1
Name: 42, dtype: object

>  <hbond:ALA:92>  (44) 
hbond:ALA:92    NaN
hbond:ALA:92     -1
Name: 42, dtype: object

>  <hydroph_interaction:ALA:92>  (44) 
hydroph_interaction:ALA:92    NaN
hydroph_interaction:ALA:92     -1
Name: 42, dtype: object

>  <saltbridge:ARG:93>  (44) 
saltbridge:ARG:93    NaN
saltbridge:ARG:93     -1
Name: 42, dtype: object

>  <hbond:ARG:93>  (44) 
hbond:ARG:93    NaN
hbond:ARG:93     -1
Name: 42, dtype: object

>  <hydroph_interaction:ARG:93>  (44) 
hydroph_interaction:ARG:93    NaN
hydroph_interaction:ARG:93     -1
Name: 42, dtype: object

>  <halogenbond:ARG:93>  (44) 
halogenbond:ARG:93    NaN
halogenbond:ARG:93     -1
Name: 42, dtype: object

>  <pication:ARG:93>  (44) 
pication:ARG:93    NaN
pication:ARG:93     -1
Name: 42, dtype: object

>  <hydroph_interaction:TYR:94>  (44) 
hydroph_interaction:TYR:94    NaN
hydroph_interaction:TYR:94     -1
Name: 42, dtype: object

>  <pistack:TYR:94>  (44) 
pistack:TYR:94    NaN
pistack:TYR:94     -1
Name: 42, dtype: object

>  <hbond:TYR:94>  (44) 
hbond:TYR:94    NaN
hbond:TYR:94     -1
Name: 42, dtype: object

>  <hbond:GLN:95>  (44) 
hbond:GLN:95    0.0
hbond:GLN:95      0
Name: 42, dtype: object

>  <hydroph_interaction:GLN:95>  (44) 
hydroph_interaction:GLN:95    NaN
hydroph_interaction:GLN:95     -1
Name: 42, dtype: object

>  <halogenbond:GLN:95>  (44) 
halogenbond:GLN:95    0.0
halogenbond:GLN:95      0
Name: 42, dtype: object

>  <hbond:SER:96>  (44) 
hbond:SER:96    NaN
hbond:SER:96     -1
Name: 42, dtype: object

>  <halogenbond:HIS:97>  (44) 
halogenbond:HIS:97    NaN
halogenbond:HIS:97     -1
Name: 42, dtype: object

>  <hydroph_interaction:LEU:98>  (44) 
hydroph_interaction:LEU:98    NaN
hydroph_interaction:LEU:98     -1
Name: 42, dtype: object

>  <hbond:LEU:98>  (44) 
hbond:LEU:98    NaN
hbond:LEU:98     -1
Name: 42, dtype: object

>  <halogenbond:LEU:98>  (44) 
halogenbond:LEU:98    NaN
halogenbond:LEU:98     -1
Name: 42, dtype: object

>  <hbond:MET:99>  (44) 
hbond:MET:99    NaN
hbond:MET:99     -1
Name: 42, dtype: object

>  <hydroph_interaction:MET:99>  (44) 
hydroph_interaction:MET:99    NaN
hydroph_interaction:MET:99     -1
Name: 42, dtype: object

>  <halogenbond:MET:99>  (44) 
halogenbond:MET:99    NaN
halogenbond:MET:99     -1
Name: 42, dtype: object

>  <hydroph_interaction:LEU:100>  (44) 
hydroph_interaction:LEU:100    0.0
hydroph_interaction:LEU:100      0
Name: 42, dtype: object

>  <hbond:LEU:100>  (44) 
hbond:LEU:100    NaN
hbond:LEU:100     -1
Name: 42, dtype: object

>  <hbond:ALA:101>  (44) 
hbond:ALA:101    NaN
hbond:ALA:101     -1
Name: 42, dtype: object

>  <hydroph_interaction:ALA:101>  (44) 
hydroph_interaction:ALA:101    NaN
hydroph_interaction:ALA:101     -1
Name: 42, dtype: object

>  <hydroph_interaction:VAL:102>  (44) 
hydroph_interaction:VAL:102    NaN
hydroph_interaction:VAL:102     -1
Name: 42, dtype: object

>  <hbond:VAL:102>  (44) 
hbond:VAL:102    NaN
hbond:VAL:102     -1
Name: 42, dtype: object

>  <hbond:GLY:103>  (44) 
hbond:GLY:103    NaN
hbond:GLY:103     -1
Name: 42, dtype: object

>  <halogenbond:GLY:103>  (44) 
halogenbond:GLY:103    NaN
halogenbond:GLY:103     -1
Name: 42, dtype: object

>  <hbond:HIS:104>  (44) 
hbond:HIS:104    NaN
hbond:HIS:104     -1
Name: 42, dtype: object

>  <saltbridge:HIS:104>  (44) 
saltbridge:HIS:104    NaN
saltbridge:HIS:104     -1
Name: 42, dtype: object

>  <pication:HIS:104>  (44) 
pication:HIS:104    NaN
pication:HIS:104     -1
Name: 42, dtype: object

>  <halogenbond:HIS:104>  (44) 
halogenbond:HIS:104    NaN
halogenbond:HIS:104     -1
Name: 42, dtype: object

>  <hydroph_interaction:HIS:104>  (44) 
hydroph_interaction:HIS:104    NaN
hydroph_interaction:HIS:104     -1
Name: 42, dtype: object

>  <pistack:HIS:104>  (44) 
pistack:HIS:104    NaN
pistack:HIS:104     -1
Name: 42, dtype: object

>  <halogenbond:SER:105>  (44) 
halogenbond:SER:105    0.0
halogenbond:SER:105      0
Name: 42, dtype: object

>  <hbond:SER:105>  (44) 
hbond:SER:105    0.0
hbond:SER:105      0
Name: 42, dtype: object

>  <hbond:GLU:106>  (44) 
hbond:GLU:106    0.0
hbond:GLU:106      0
Name: 42, dtype: object

>  <hydroph_interaction:GLU:106>  (44) 
hydroph_interaction:GLU:106    0.0
hydroph_interaction:GLU:106      0
Name: 42, dtype: object

>  <saltbridge:GLU:106>  (44) 
saltbridge:GLU:106    NaN
saltbridge:GLU:106     -1
Name: 42, dtype: object

>  <halogenbond:GLU:106>  (44) 
halogenbond:GLU:106    NaN
halogenbond:GLU:106     -1
Name: 42, dtype: object

>  <hydroph_interaction:PRO:107>  (44) 
hydroph_interaction:PRO:107    0
hydroph_interaction:PRO:107    0
Name: 42, dtype: object

>  <hbond:PRO:107>  (44) 
hbond:PRO:107    0.0
hbond:PRO:107      0
Name: 42, dtype: object

>  <halogenbond:PRO:107>  (44) 
halogenbond:PRO:107    0.0
halogenbond:PRO:107      0
Name: 42, dtype: object

>  <hbond:GLY:108>  (44) 
hbond:GLY:108    NaN
hbond:GLY:108     -1
Name: 42, dtype: object

>  <halogenbond:GLY:108>  (44) 
halogenbond:GLY:108    NaN
halogenbond:GLY:108     -1
Name: 42, dtype: object

>  <hbond:ASP:109>  (44) 
hbond:ASP:109    0.0
hbond:ASP:109      0
Name: 42, dtype: object

>  <hydroph_interaction:ASP:109>  (44) 
hydroph_interaction:ASP:109    0.0
hydroph_interaction:ASP:109      0
Name: 42, dtype: object

>  <saltbridge:ASP:109>  (44) 
saltbridge:ASP:109    NaN
saltbridge:ASP:109     -1
Name: 42, dtype: object

>  <halogenbond:CYS:110>  (44) 
halogenbond:CYS:110    0.0
halogenbond:CYS:110      0
Name: 42, dtype: object

>  <hbond:CYS:110>  (44) 
hbond:CYS:110    0.0
hbond:CYS:110      0
Name: 42, dtype: object

>  <hbond:GLY:111>  (44) 
hbond:GLY:111    NaN
hbond:GLY:111     -1
Name: 42, dtype: object

>  <hbond:GLY:112>  (44) 
hbond:GLY:112    NaN
hbond:GLY:112     -1
Name: 42, dtype: object

>  <hbond:ILE:113>  (44) 
hbond:ILE:113    NaN
hbond:ILE:113     -1
Name: 42, dtype: object

>  <hydroph_interaction:LEU:114>  (44) 
hydroph_interaction:LEU:114    NaN
hydroph_interaction:LEU:114     -1
Name: 42, dtype: object

>  <hbond:LEU:114>  (44) 
hbond:LEU:114    NaN
hbond:LEU:114     -1
Name: 42, dtype: object

>  <hydroph_interaction:ILE:123>  (44) 
hydroph_interaction:ILE:123    NaN
hydroph_interaction:ILE:123     -1
Name: 42, dtype: object

>  <hbond:ILE:123>  (44) 
hbond:ILE:123    NaN
hbond:ILE:123     -1
Name: 42, dtype: object

>  <hydroph_interaction:VAL:124>  (44) 
hydroph_interaction:VAL:124    0.0
hydroph_interaction:VAL:124      0
Name: 42, dtype: object

>  <hbond:VAL:124>  (44) 
hbond:VAL:124    NaN
hbond:VAL:124     -1
Name: 42, dtype: object

>  <halogenbond:VAL:124>  (44) 
halogenbond:VAL:124    NaN
halogenbond:VAL:124     -1
Name: 42, dtype: object

>  <hbond:SER:125>  (44) 
hbond:SER:125    0
hbond:SER:125    0
Name: 42, dtype: object

>  <halogenbond:SER:125>  (44) 
halogenbond:SER:125    0.0
halogenbond:SER:125      0
Name: 42, dtype: object

>  <hydroph_interaction:THR:126>  (44) 
hydroph_interaction:THR:126    1.0
hydroph_interaction:THR:126      1
Name: 42, dtype: object

>  <hbond:THR:126>  (44) 
hbond:THR:126    0.0
hbond:THR:126      0
Name: 42, dtype: object

>  <halogenbond:THR:126>  (44) 
halogenbond:THR:126    NaN
halogenbond:THR:126     -1
Name: 42, dtype: object

>  <hbond:GLY:127>  (44) 
hbond:GLY:127    1
hbond:GLY:127    1
Name: 42, dtype: object

>  <halogenbond:GLY:127>  (44) 
halogenbond:GLY:127    NaN
halogenbond:GLY:127     -1
Name: 42, dtype: object

>  <hydroph_interaction:GLY:127>  (44) 
hydroph_interaction:GLY:127    NaN
hydroph_interaction:GLY:127     -1
Name: 42, dtype: object

>  <hbond:GLY:128>  (44) 
hbond:GLY:128    NaN
hbond:GLY:128     -1
Name: 42, dtype: object

>  <halogenbond:GLY:128>  (44) 
halogenbond:GLY:128    NaN
halogenbond:GLY:128     -1
Name: 42, dtype: object

>  <hydroph_interaction:GLY:128>  (44) 
hydroph_interaction:GLY:128    NaN
hydroph_interaction:GLY:128     -1
Name: 42, dtype: object

>  <hbond:ASN:129>  (44) 
hbond:ASN:129    NaN
hbond:ASN:129     -1
Name: 42, dtype: object

>  <hydroph_interaction:ASN:129>  (44) 
hydroph_interaction:ASN:129    NaN
hydroph_interaction:ASN:129     -1
Name: 42, dtype: object

>  <halogenbond:ASN:129>  (44) 
halogenbond:ASN:129    NaN
halogenbond:ASN:129     -1
Name: 42, dtype: object

>  <hbond:GLY:130>  (44) 
hbond:GLY:130    NaN
hbond:GLY:130     -1
Name: 42, dtype: object

>  <hbond:LEU:131>  (44) 
hbond:LEU:131    NaN
hbond:LEU:131     -1
Name: 42, dtype: object

>  <hydroph_interaction:LEU:131>  (44) 
hydroph_interaction:LEU:131    0.0
hydroph_interaction:LEU:131      0
Name: 42, dtype: object

>  <halogenbond:LEU:131>  (44) 
halogenbond:LEU:131    NaN
halogenbond:LEU:131     -1
Name: 42, dtype: object

>  <hydroph_interaction:VAL:132>  (44) 
hydroph_interaction:VAL:132    0.0
hydroph_interaction:VAL:132      0
Name: 42, dtype: object

>  <hbond:VAL:132>  (44) 
hbond:VAL:132    NaN
hbond:VAL:132     -1
Name: 42, dtype: object

>  <hbond:GLY:133>  (44) 
hbond:GLY:133    NaN
hbond:GLY:133     -1
Name: 42, dtype: object

>  <halogenbond:GLY:133>  (44) 
halogenbond:GLY:133    NaN
halogenbond:GLY:133     -1
Name: 42, dtype: object

>  <hydroph_interaction:PHE:134>  (44) 
hydroph_interaction:PHE:134    NaN
hydroph_interaction:PHE:134     -1
Name: 42, dtype: object

>  <hbond:PHE:134>  (44) 
hbond:PHE:134    NaN
hbond:PHE:134     -1
Name: 42, dtype: object

>  <pistack:PHE:134>  (44) 
pistack:PHE:134    NaN
pistack:PHE:134     -1
Name: 42, dtype: object

>  <pication:PHE:134>  (44) 
pication:PHE:134    NaN
pication:PHE:134     -1
Name: 42, dtype: object

>  <halogenbond:PHE:134>  (44) 
halogenbond:PHE:134    NaN
halogenbond:PHE:134     -1
Name: 42, dtype: object

>  <hydroph_interaction:ALA:135>  (44) 
hydroph_interaction:ALA:135    NaN
hydroph_interaction:ALA:135     -1
Name: 42, dtype: object

>  <hbond:ALA:135>  (44) 
hbond:ALA:135    NaN
hbond:ALA:135     -1
Name: 42, dtype: object

$$$$
PV_006188596149
     RDKit          3D

 12 12  0  0  0  0  0  0  0  0999 V2000
   30.2820    8.4588    9.1040 C   0  0  0  0  0  0  0  0  0  0  0  0
   30.9473    9.4592    8.1957 C   0  0  0  0  0  0  0  0  0  0  0  0
   31.9881    9.1320    7.3479 C   0  0  0  0  0  0  0  0  0  0  0  0
   32.6167   10.1956    6.4844 C   0  0  0  0  0  0  0  0  0  0  0  0
   33.6811    9.7741    5.6643 C   0  0  0  0  0  0  0  0  0  0  0  0
   32.1190   11.4977    6.5517 C   0  0  0  0  0  0  0  0  0  0  0  0
   32.6574   12.5098    5.7782 C   0  0  0  0  0  0  0  0  0  0  0  0
   31.0393   11.7484    7.4340 C   0  0  0  0  0  0  0  0  0  0  0  0
   30.4563   12.9919    7.5612 C   0  0  0  0  0  0  0  0  0  0  0  0
   30.3311   13.4856    8.8334 N   0  0  0  0  0  0  0  0  0  0  0  0
   30.0421   13.6027    6.5879 O   0  0  0  0  0  0  0  0  0  0  0  0
   30.4964   10.7507    8.2179 C   0  0  0  0  0  0  0  0  0  0  0  0
  1  2  1  0
  2  3  2  0
  3  4  1  0
  4  5  1  0
  4  6  2  0
  6  7  1  0
  6  8  1  0
  8  9  1  0
  9 10  1  0
  9 11  2  0
  8 12  2  0
 12  2  1  0
A    1
 C1 
A    2
 C2 
A    3
 C3 
A    4
 C4 
A    5
 C5 
A    6
 C6 
A    7
 C7 
A    8
 C8 
A    9
 C9 
A   10
 N1 
A   11
 O1 
A   12
 C10
M  END
>  <ref_pdb>  (45) 
Ax0310a

>  <ref_mols>  (45) 
Ax0451a,Ax0739a

>  <original SMILES>  (45) 
Cc1cc(C)c(C)c(C(N)=O)c1

>  <rationale>  (45) 
info halogenbond:C110+G127+D39+S125+E85+Q95+E106+E88+T126+P107+H104+Y64+C65+S87+N129+F83+R93+L131+I82+G128+P91+N19+H21+V84+G133+Y90+Y89+H97+L81+F134+L98+R20+G103+S66+S67+S7+G108+R38+V124+M99+S36; hbond:S87+S125+Q95+A86+E85+G108+G103+G128+G130+L131+N129+N19+H104+R68+V124+R93+P91+F83+S67+S7+S66+G112+V132+R20+Y89+S77+A135+Y63+A92+A101+M99+F134+L100+I82+Y64+S36+L98+V84+L81+Y94+S80+R38+S37+V102+G8+I123+G111+I113+L114+C65+L22+S96; hydroph_interaction:V124+H21+P107+L22+E106+N129+D39+N19+L40+I123+A135+Q95+I82+L100+L98+L131+F83+R93+V132+Y63+F134+H104+R20+A86+V74+P91+A101+F76+M99+L114+A92+Y94+R68+Y72+Y64+V18+V102+W28+G127+G128+L81; pication:H104+R93+Y63+F134+Y90+R68+F83+R20; pistack:H21+Y89+Y90+H104+F134+Y63+F83+Y94; saltbridge:D39+R93+H104+E106+D109+E85+E88+R68+R20; 

>  <intxn_cluster>  (45) 
-1

>  <intxn_cluster_rank>  (45) 
-1

>  <N_interactions>  (45) 
4

>  <∆∆G>  (45) 
-10.190661

>  <$/mg>  (45) 
163.0

>  <comRMSD>  (45) 
0.668853

>  <N_rotatable_bonds>  (45) 
4

>  <deep_P1_sidechain>  (45) 
nan

>  <farthest_distance_to_substrate>  (45) 
2.421111

>  <hbond:SER:7>  (45) 
hbond:SER:7    NaN
hbond:SER:7     -1
Name: 43, dtype: object

>  <halogenbond:SER:7>  (45) 
halogenbond:SER:7    NaN
halogenbond:SER:7     -1
Name: 43, dtype: object

>  <hbond:GLY:8>  (45) 
hbond:GLY:8    NaN
hbond:GLY:8     -1
Name: 43, dtype: object

>  <hydroph_interaction:VAL:18>  (45) 
hydroph_interaction:VAL:18    NaN
hydroph_interaction:VAL:18     -1
Name: 43, dtype: object

>  <hbond:ASN:19>  (45) 
hbond:ASN:19    NaN
hbond:ASN:19     -1
Name: 43, dtype: object

>  <hydroph_interaction:ASN:19>  (45) 
hydroph_interaction:ASN:19    NaN
hydroph_interaction:ASN:19     -1
Name: 43, dtype: object

>  <halogenbond:ASN:19>  (45) 
halogenbond:ASN:19    NaN
halogenbond:ASN:19     -1
Name: 43, dtype: object

>  <hbond:ARG:20>  (45) 
hbond:ARG:20    NaN
hbond:ARG:20     -1
Name: 43, dtype: object

>  <hydroph_interaction:ARG:20>  (45) 
hydroph_interaction:ARG:20    NaN
hydroph_interaction:ARG:20     -1
Name: 43, dtype: object

>  <saltbridge:ARG:20>  (45) 
saltbridge:ARG:20    NaN
saltbridge:ARG:20     -1
Name: 43, dtype: object

>  <halogenbond:ARG:20>  (45) 
halogenbond:ARG:20    NaN
halogenbond:ARG:20     -1
Name: 43, dtype: object

>  <pication:ARG:20>  (45) 
pication:ARG:20    NaN
pication:ARG:20     -1
Name: 43, dtype: object

>  <hbond:HIS:21>  (45) 
hbond:HIS:21    0.0
hbond:HIS:21      0
Name: 43, dtype: object

>  <hydroph_interaction:HIS:21>  (45) 
hydroph_interaction:HIS:21    NaN
hydroph_interaction:HIS:21     -1
Name: 43, dtype: object

>  <pistack:HIS:21>  (45) 
pistack:HIS:21    NaN
pistack:HIS:21     -1
Name: 43, dtype: object

>  <pication:HIS:21>  (45) 
pication:HIS:21    0.0
pication:HIS:21      0
Name: 43, dtype: object

>  <saltbridge:HIS:21>  (45) 
saltbridge:HIS:21    0.0
saltbridge:HIS:21      0
Name: 43, dtype: object

>  <halogenbond:HIS:21>  (45) 
halogenbond:HIS:21    NaN
halogenbond:HIS:21     -1
Name: 43, dtype: object

>  <hydroph_interaction:LEU:22>  (45) 
hydroph_interaction:LEU:22    NaN
hydroph_interaction:LEU:22     -1
Name: 43, dtype: object

>  <hbond:LEU:22>  (45) 
hbond:LEU:22    NaN
hbond:LEU:22     -1
Name: 43, dtype: object

>  <hydroph_interaction:TRP:28>  (45) 
hydroph_interaction:TRP:28    NaN
hydroph_interaction:TRP:28     -1
Name: 43, dtype: object

>  <hbond:SER:36>  (45) 
hbond:SER:36    NaN
hbond:SER:36     -1
Name: 43, dtype: object

>  <halogenbond:SER:36>  (45) 
halogenbond:SER:36    NaN
halogenbond:SER:36     -1
Name: 43, dtype: object

>  <hbond:SER:37>  (45) 
hbond:SER:37    NaN
hbond:SER:37     -1
Name: 43, dtype: object

>  <hbond:ARG:38>  (45) 
hbond:ARG:38    NaN
hbond:ARG:38     -1
Name: 43, dtype: object

>  <halogenbond:ARG:38>  (45) 
halogenbond:ARG:38    NaN
halogenbond:ARG:38     -1
Name: 43, dtype: object

>  <saltbridge:ASP:39>  (45) 
saltbridge:ASP:39    NaN
saltbridge:ASP:39     -1
Name: 43, dtype: object

>  <halogenbond:ASP:39>  (45) 
halogenbond:ASP:39    NaN
halogenbond:ASP:39     -1
Name: 43, dtype: object

>  <hbond:ASP:39>  (45) 
hbond:ASP:39    0.0
hbond:ASP:39      0
Name: 43, dtype: object

>  <hydroph_interaction:ASP:39>  (45) 
hydroph_interaction:ASP:39    NaN
hydroph_interaction:ASP:39     -1
Name: 43, dtype: object

>  <hydroph_interaction:LEU:40>  (45) 
hydroph_interaction:LEU:40    NaN
hydroph_interaction:LEU:40     -1
Name: 43, dtype: object

>  <hydroph_interaction:TYR:63>  (45) 
hydroph_interaction:TYR:63    NaN
hydroph_interaction:TYR:63     -1
Name: 43, dtype: object

>  <hbond:TYR:63>  (45) 
hbond:TYR:63    NaN
hbond:TYR:63     -1
Name: 43, dtype: object

>  <pistack:TYR:63>  (45) 
pistack:TYR:63    NaN
pistack:TYR:63     -1
Name: 43, dtype: object

>  <pication:TYR:63>  (45) 
pication:TYR:63    NaN
pication:TYR:63     -1
Name: 43, dtype: object

>  <halogenbond:TYR:64>  (45) 
halogenbond:TYR:64    NaN
halogenbond:TYR:64     -1
Name: 43, dtype: object

>  <hbond:TYR:64>  (45) 
hbond:TYR:64    NaN
hbond:TYR:64     -1
Name: 43, dtype: object

>  <hydroph_interaction:TYR:64>  (45) 
hydroph_interaction:TYR:64    NaN
hydroph_interaction:TYR:64     -1
Name: 43, dtype: object

>  <halogenbond:CYS:65>  (45) 
halogenbond:CYS:65    NaN
halogenbond:CYS:65     -1
Name: 43, dtype: object

>  <hbond:CYS:65>  (45) 
hbond:CYS:65    NaN
hbond:CYS:65     -1
Name: 43, dtype: object

>  <hbond:SER:66>  (45) 
hbond:SER:66    NaN
hbond:SER:66     -1
Name: 43, dtype: object

>  <halogenbond:SER:66>  (45) 
halogenbond:SER:66    NaN
halogenbond:SER:66     -1
Name: 43, dtype: object

>  <hbond:SER:67>  (45) 
hbond:SER:67    NaN
hbond:SER:67     -1
Name: 43, dtype: object

>  <halogenbond:SER:67>  (45) 
halogenbond:SER:67    NaN
halogenbond:SER:67     -1
Name: 43, dtype: object

>  <hbond:ARG:68>  (45) 
hbond:ARG:68    NaN
hbond:ARG:68     -1
Name: 43, dtype: object

>  <saltbridge:ARG:68>  (45) 
saltbridge:ARG:68    NaN
saltbridge:ARG:68     -1
Name: 43, dtype: object

>  <hydroph_interaction:ARG:68>  (45) 
hydroph_interaction:ARG:68    NaN
hydroph_interaction:ARG:68     -1
Name: 43, dtype: object

>  <pication:ARG:68>  (45) 
pication:ARG:68    NaN
pication:ARG:68     -1
Name: 43, dtype: object

>  <hydroph_interaction:TYR:72>  (45) 
hydroph_interaction:TYR:72    NaN
hydroph_interaction:TYR:72     -1
Name: 43, dtype: object

>  <hydroph_interaction:VAL:74>  (45) 
hydroph_interaction:VAL:74    NaN
hydroph_interaction:VAL:74     -1
Name: 43, dtype: object

>  <hydroph_interaction:PHE:76>  (45) 
hydroph_interaction:PHE:76    NaN
hydroph_interaction:PHE:76     -1
Name: 43, dtype: object

>  <hbond:SER:77>  (45) 
hbond:SER:77    NaN
hbond:SER:77     -1
Name: 43, dtype: object

>  <hbond:SER:80>  (45) 
hbond:SER:80    NaN
hbond:SER:80     -1
Name: 43, dtype: object

>  <hbond:LEU:81>  (45) 
hbond:LEU:81    NaN
hbond:LEU:81     -1
Name: 43, dtype: object

>  <halogenbond:LEU:81>  (45) 
halogenbond:LEU:81    NaN
halogenbond:LEU:81     -1
Name: 43, dtype: object

>  <hydroph_interaction:LEU:81>  (45) 
hydroph_interaction:LEU:81    NaN
hydroph_interaction:LEU:81     -1
Name: 43, dtype: object

>  <hydroph_interaction:ILE:82>  (45) 
hydroph_interaction:ILE:82    NaN
hydroph_interaction:ILE:82     -1
Name: 43, dtype: object

>  <halogenbond:ILE:82>  (45) 
halogenbond:ILE:82    NaN
halogenbond:ILE:82     -1
Name: 43, dtype: object

>  <hbond:ILE:82>  (45) 
hbond:ILE:82    NaN
hbond:ILE:82     -1
Name: 43, dtype: object

>  <hbond:PHE:83>  (45) 
hbond:PHE:83    NaN
hbond:PHE:83     -1
Name: 43, dtype: object

>  <hydroph_interaction:PHE:83>  (45) 
hydroph_interaction:PHE:83    NaN
hydroph_interaction:PHE:83     -1
Name: 43, dtype: object

>  <halogenbond:PHE:83>  (45) 
halogenbond:PHE:83    NaN
halogenbond:PHE:83     -1
Name: 43, dtype: object

>  <pistack:PHE:83>  (45) 
pistack:PHE:83    NaN
pistack:PHE:83     -1
Name: 43, dtype: object

>  <pication:PHE:83>  (45) 
pication:PHE:83    NaN
pication:PHE:83     -1
Name: 43, dtype: object

>  <hydroph_interaction:VAL:84>  (45) 
hydroph_interaction:VAL:84    0.0
hydroph_interaction:VAL:84      0
Name: 43, dtype: object

>  <halogenbond:VAL:84>  (45) 
halogenbond:VAL:84    NaN
halogenbond:VAL:84     -1
Name: 43, dtype: object

>  <hbond:VAL:84>  (45) 
hbond:VAL:84    NaN
hbond:VAL:84     -1
Name: 43, dtype: object

>  <hydroph_interaction:GLU:85>  (45) 
hydroph_interaction:GLU:85    0.0
hydroph_interaction:GLU:85      0
Name: 43, dtype: object

>  <hbond:GLU:85>  (45) 
hbond:GLU:85    NaN
hbond:GLU:85     -1
Name: 43, dtype: object

>  <halogenbond:GLU:85>  (45) 
halogenbond:GLU:85    NaN
halogenbond:GLU:85     -1
Name: 43, dtype: object

>  <saltbridge:GLU:85>  (45) 
saltbridge:GLU:85    NaN
saltbridge:GLU:85     -1
Name: 43, dtype: object

>  <halogenbond:ALA:86>  (45) 
halogenbond:ALA:86    0.0
halogenbond:ALA:86      0
Name: 43, dtype: object

>  <hbond:ALA:86>  (45) 
hbond:ALA:86    NaN
hbond:ALA:86     -1
Name: 43, dtype: object

>  <hydroph_interaction:ALA:86>  (45) 
hydroph_interaction:ALA:86    NaN
hydroph_interaction:ALA:86     -1
Name: 43, dtype: object

>  <hbond:SER:87>  (45) 
hbond:SER:87    1
hbond:SER:87    1
Name: 43, dtype: object

>  <halogenbond:SER:87>  (45) 
halogenbond:SER:87    NaN
halogenbond:SER:87     -1
Name: 43, dtype: object

>  <hbond:GLU:88>  (45) 
hbond:GLU:88    0.0
hbond:GLU:88      0
Name: 43, dtype: object

>  <hydroph_interaction:GLU:88>  (45) 
hydroph_interaction:GLU:88    0.0
hydroph_interaction:GLU:88      0
Name: 43, dtype: object

>  <halogenbond:GLU:88>  (45) 
halogenbond:GLU:88    NaN
halogenbond:GLU:88     -1
Name: 43, dtype: object

>  <saltbridge:GLU:88>  (45) 
saltbridge:GLU:88    NaN
saltbridge:GLU:88     -1
Name: 43, dtype: object

>  <hydroph_interaction:TYR:89>  (45) 
hydroph_interaction:TYR:89    0.0
hydroph_interaction:TYR:89      0
Name: 43, dtype: object

>  <pistack:TYR:89>  (45) 
pistack:TYR:89    NaN
pistack:TYR:89     -1
Name: 43, dtype: object

>  <hbond:TYR:89>  (45) 
hbond:TYR:89    NaN
hbond:TYR:89     -1
Name: 43, dtype: object

>  <halogenbond:TYR:89>  (45) 
halogenbond:TYR:89    NaN
halogenbond:TYR:89     -1
Name: 43, dtype: object

>  <hydroph_interaction:TYR:90>  (45) 
hydroph_interaction:TYR:90    0.0
hydroph_interaction:TYR:90      0
Name: 43, dtype: object

>  <hbond:TYR:90>  (45) 
hbond:TYR:90    0.0
hbond:TYR:90      0
Name: 43, dtype: object

>  <pistack:TYR:90>  (45) 
pistack:TYR:90    NaN
pistack:TYR:90     -1
Name: 43, dtype: object

>  <halogenbond:TYR:90>  (45) 
halogenbond:TYR:90    NaN
halogenbond:TYR:90     -1
Name: 43, dtype: object

>  <pication:TYR:90>  (45) 
pication:TYR:90    NaN
pication:TYR:90     -1
Name: 43, dtype: object

>  <hbond:PRO:91>  (45) 
hbond:PRO:91    NaN
hbond:PRO:91     -1
Name: 43, dtype: object

>  <hydroph_interaction:PRO:91>  (45) 
hydroph_interaction:PRO:91    NaN
hydroph_interaction:PRO:91     -1
Name: 43, dtype: object

>  <halogenbond:PRO:91>  (45) 
halogenbond:PRO:91    NaN
halogenbond:PRO:91     -1
Name: 43, dtype: object

>  <hbond:ALA:92>  (45) 
hbond:ALA:92    NaN
hbond:ALA:92     -1
Name: 43, dtype: object

>  <hydroph_interaction:ALA:92>  (45) 
hydroph_interaction:ALA:92    NaN
hydroph_interaction:ALA:92     -1
Name: 43, dtype: object

>  <saltbridge:ARG:93>  (45) 
saltbridge:ARG:93    NaN
saltbridge:ARG:93     -1
Name: 43, dtype: object

>  <hbond:ARG:93>  (45) 
hbond:ARG:93    NaN
hbond:ARG:93     -1
Name: 43, dtype: object

>  <hydroph_interaction:ARG:93>  (45) 
hydroph_interaction:ARG:93    NaN
hydroph_interaction:ARG:93     -1
Name: 43, dtype: object

>  <halogenbond:ARG:93>  (45) 
halogenbond:ARG:93    NaN
halogenbond:ARG:93     -1
Name: 43, dtype: object

>  <pication:ARG:93>  (45) 
pication:ARG:93    NaN
pication:ARG:93     -1
Name: 43, dtype: object

>  <hydroph_interaction:TYR:94>  (45) 
hydroph_interaction:TYR:94    NaN
hydroph_interaction:TYR:94     -1
Name: 43, dtype: object

>  <pistack:TYR:94>  (45) 
pistack:TYR:94    NaN
pistack:TYR:94     -1
Name: 43, dtype: object

>  <hbond:TYR:94>  (45) 
hbond:TYR:94    NaN
hbond:TYR:94     -1
Name: 43, dtype: object

>  <hbond:GLN:95>  (45) 
hbond:GLN:95    NaN
hbond:GLN:95     -1
Name: 43, dtype: object

>  <hydroph_interaction:GLN:95>  (45) 
hydroph_interaction:GLN:95    NaN
hydroph_interaction:GLN:95     -1
Name: 43, dtype: object

>  <halogenbond:GLN:95>  (45) 
halogenbond:GLN:95    NaN
halogenbond:GLN:95     -1
Name: 43, dtype: object

>  <hbond:SER:96>  (45) 
hbond:SER:96    NaN
hbond:SER:96     -1
Name: 43, dtype: object

>  <halogenbond:HIS:97>  (45) 
halogenbond:HIS:97    NaN
halogenbond:HIS:97     -1
Name: 43, dtype: object

>  <hydroph_interaction:LEU:98>  (45) 
hydroph_interaction:LEU:98    NaN
hydroph_interaction:LEU:98     -1
Name: 43, dtype: object

>  <hbond:LEU:98>  (45) 
hbond:LEU:98    NaN
hbond:LEU:98     -1
Name: 43, dtype: object

>  <halogenbond:LEU:98>  (45) 
halogenbond:LEU:98    NaN
halogenbond:LEU:98     -1
Name: 43, dtype: object

>  <hbond:MET:99>  (45) 
hbond:MET:99    NaN
hbond:MET:99     -1
Name: 43, dtype: object

>  <hydroph_interaction:MET:99>  (45) 
hydroph_interaction:MET:99    NaN
hydroph_interaction:MET:99     -1
Name: 43, dtype: object

>  <halogenbond:MET:99>  (45) 
halogenbond:MET:99    NaN
halogenbond:MET:99     -1
Name: 43, dtype: object

>  <hydroph_interaction:LEU:100>  (45) 
hydroph_interaction:LEU:100    NaN
hydroph_interaction:LEU:100     -1
Name: 43, dtype: object

>  <hbond:LEU:100>  (45) 
hbond:LEU:100    NaN
hbond:LEU:100     -1
Name: 43, dtype: object

>  <hbond:ALA:101>  (45) 
hbond:ALA:101    NaN
hbond:ALA:101     -1
Name: 43, dtype: object

>  <hydroph_interaction:ALA:101>  (45) 
hydroph_interaction:ALA:101    NaN
hydroph_interaction:ALA:101     -1
Name: 43, dtype: object

>  <hydroph_interaction:VAL:102>  (45) 
hydroph_interaction:VAL:102    NaN
hydroph_interaction:VAL:102     -1
Name: 43, dtype: object

>  <hbond:VAL:102>  (45) 
hbond:VAL:102    NaN
hbond:VAL:102     -1
Name: 43, dtype: object

>  <hbond:GLY:103>  (45) 
hbond:GLY:103    NaN
hbond:GLY:103     -1
Name: 43, dtype: object

>  <halogenbond:GLY:103>  (45) 
halogenbond:GLY:103    NaN
halogenbond:GLY:103     -1
Name: 43, dtype: object

>  <hbond:HIS:104>  (45) 
hbond:HIS:104    NaN
hbond:HIS:104     -1
Name: 43, dtype: object

>  <saltbridge:HIS:104>  (45) 
saltbridge:HIS:104    NaN
saltbridge:HIS:104     -1
Name: 43, dtype: object

>  <pication:HIS:104>  (45) 
pication:HIS:104    NaN
pication:HIS:104     -1
Name: 43, dtype: object

>  <halogenbond:HIS:104>  (45) 
halogenbond:HIS:104    NaN
halogenbond:HIS:104     -1
Name: 43, dtype: object

>  <hydroph_interaction:HIS:104>  (45) 
hydroph_interaction:HIS:104    NaN
hydroph_interaction:HIS:104     -1
Name: 43, dtype: object

>  <pistack:HIS:104>  (45) 
pistack:HIS:104    NaN
pistack:HIS:104     -1
Name: 43, dtype: object

>  <halogenbond:SER:105>  (45) 
halogenbond:SER:105    0.0
halogenbond:SER:105      0
Name: 43, dtype: object

>  <hbond:SER:105>  (45) 
hbond:SER:105    0.0
hbond:SER:105      0
Name: 43, dtype: object

>  <hbond:GLU:106>  (45) 
hbond:GLU:106    0.0
hbond:GLU:106      0
Name: 43, dtype: object

>  <hydroph_interaction:GLU:106>  (45) 
hydroph_interaction:GLU:106    NaN
hydroph_interaction:GLU:106     -1
Name: 43, dtype: object

>  <saltbridge:GLU:106>  (45) 
saltbridge:GLU:106    NaN
saltbridge:GLU:106     -1
Name: 43, dtype: object

>  <halogenbond:GLU:106>  (45) 
halogenbond:GLU:106    NaN
halogenbond:GLU:106     -1
Name: 43, dtype: object

>  <hydroph_interaction:PRO:107>  (45) 
hydroph_interaction:PRO:107    1
hydroph_interaction:PRO:107    1
Name: 43, dtype: object

>  <hbond:PRO:107>  (45) 
hbond:PRO:107    0.0
hbond:PRO:107      0
Name: 43, dtype: object

>  <halogenbond:PRO:107>  (45) 
halogenbond:PRO:107    NaN
halogenbond:PRO:107     -1
Name: 43, dtype: object

>  <hbond:GLY:108>  (45) 
hbond:GLY:108    NaN
hbond:GLY:108     -1
Name: 43, dtype: object

>  <halogenbond:GLY:108>  (45) 
halogenbond:GLY:108    NaN
halogenbond:GLY:108     -1
Name: 43, dtype: object

>  <hbond:ASP:109>  (45) 
hbond:ASP:109    0.0
hbond:ASP:109      0
Name: 43, dtype: object

>  <hydroph_interaction:ASP:109>  (45) 
hydroph_interaction:ASP:109    0.0
hydroph_interaction:ASP:109      0
Name: 43, dtype: object

>  <saltbridge:ASP:109>  (45) 
saltbridge:ASP:109    NaN
saltbridge:ASP:109     -1
Name: 43, dtype: object

>  <halogenbond:CYS:110>  (45) 
halogenbond:CYS:110    NaN
halogenbond:CYS:110     -1
Name: 43, dtype: object

>  <hbond:CYS:110>  (45) 
hbond:CYS:110    0.0
hbond:CYS:110      0
Name: 43, dtype: object

>  <hbond:GLY:111>  (45) 
hbond:GLY:111    NaN
hbond:GLY:111     -1
Name: 43, dtype: object

>  <hbond:GLY:112>  (45) 
hbond:GLY:112    NaN
hbond:GLY:112     -1
Name: 43, dtype: object

>  <hbond:ILE:113>  (45) 
hbond:ILE:113    NaN
hbond:ILE:113     -1
Name: 43, dtype: object

>  <hydroph_interaction:LEU:114>  (45) 
hydroph_interaction:LEU:114    NaN
hydroph_interaction:LEU:114     -1
Name: 43, dtype: object

>  <hbond:LEU:114>  (45) 
hbond:LEU:114    NaN
hbond:LEU:114     -1
Name: 43, dtype: object

>  <hydroph_interaction:ILE:123>  (45) 
hydroph_interaction:ILE:123    NaN
hydroph_interaction:ILE:123     -1
Name: 43, dtype: object

>  <hbond:ILE:123>  (45) 
hbond:ILE:123    NaN
hbond:ILE:123     -1
Name: 43, dtype: object

>  <hydroph_interaction:VAL:124>  (45) 
hydroph_interaction:VAL:124    1.0
hydroph_interaction:VAL:124      1
Name: 43, dtype: object

>  <hbond:VAL:124>  (45) 
hbond:VAL:124    NaN
hbond:VAL:124     -1
Name: 43, dtype: object

>  <halogenbond:VAL:124>  (45) 
halogenbond:VAL:124    NaN
halogenbond:VAL:124     -1
Name: 43, dtype: object

>  <hbond:SER:125>  (45) 
hbond:SER:125    1
hbond:SER:125    1
Name: 43, dtype: object

>  <halogenbond:SER:125>  (45) 
halogenbond:SER:125    NaN
halogenbond:SER:125     -1
Name: 43, dtype: object

>  <hydroph_interaction:THR:126>  (45) 
hydroph_interaction:THR:126    0.0
hydroph_interaction:THR:126      0
Name: 43, dtype: object

>  <hbond:THR:126>  (45) 
hbond:THR:126    0.0
hbond:THR:126      0
Name: 43, dtype: object

>  <halogenbond:THR:126>  (45) 
halogenbond:THR:126    NaN
halogenbond:THR:126     -1
Name: 43, dtype: object

>  <hbond:GLY:127>  (45) 
hbond:GLY:127    0
hbond:GLY:127    0
Name: 43, dtype: object

>  <halogenbond:GLY:127>  (45) 
halogenbond:GLY:127    NaN
halogenbond:GLY:127     -1
Name: 43, dtype: object

>  <hydroph_interaction:GLY:127>  (45) 
hydroph_interaction:GLY:127    NaN
hydroph_interaction:GLY:127     -1
Name: 43, dtype: object

>  <hbond:GLY:128>  (45) 
hbond:GLY:128    NaN
hbond:GLY:128     -1
Name: 43, dtype: object

>  <halogenbond:GLY:128>  (45) 
halogenbond:GLY:128    NaN
halogenbond:GLY:128     -1
Name: 43, dtype: object

>  <hydroph_interaction:GLY:128>  (45) 
hydroph_interaction:GLY:128    NaN
hydroph_interaction:GLY:128     -1
Name: 43, dtype: object

>  <hbond:ASN:129>  (45) 
hbond:ASN:129    NaN
hbond:ASN:129     -1
Name: 43, dtype: object

>  <hydroph_interaction:ASN:129>  (45) 
hydroph_interaction:ASN:129    NaN
hydroph_interaction:ASN:129     -1
Name: 43, dtype: object

>  <halogenbond:ASN:129>  (45) 
halogenbond:ASN:129    NaN
halogenbond:ASN:129     -1
Name: 43, dtype: object

>  <hbond:GLY:130>  (45) 
hbond:GLY:130    NaN
hbond:GLY:130     -1
Name: 43, dtype: object

>  <hbond:LEU:131>  (45) 
hbond:LEU:131    NaN
hbond:LEU:131     -1
Name: 43, dtype: object

>  <hydroph_interaction:LEU:131>  (45) 
hydroph_interaction:LEU:131    NaN
hydroph_interaction:LEU:131     -1
Name: 43, dtype: object

>  <halogenbond:LEU:131>  (45) 
halogenbond:LEU:131    NaN
halogenbond:LEU:131     -1
Name: 43, dtype: object

>  <hydroph_interaction:VAL:132>  (45) 
hydroph_interaction:VAL:132    NaN
hydroph_interaction:VAL:132     -1
Name: 43, dtype: object

>  <hbond:VAL:132>  (45) 
hbond:VAL:132    NaN
hbond:VAL:132     -1
Name: 43, dtype: object

>  <hbond:GLY:133>  (45) 
hbond:GLY:133    0.0
hbond:GLY:133      0
Name: 43, dtype: object

>  <halogenbond:GLY:133>  (45) 
halogenbond:GLY:133    NaN
halogenbond:GLY:133     -1
Name: 43, dtype: object

>  <hydroph_interaction:PHE:134>  (45) 
hydroph_interaction:PHE:134    NaN
hydroph_interaction:PHE:134     -1
Name: 43, dtype: object

>  <hbond:PHE:134>  (45) 
hbond:PHE:134    NaN
hbond:PHE:134     -1
Name: 43, dtype: object

>  <pistack:PHE:134>  (45) 
pistack:PHE:134    NaN
pistack:PHE:134     -1
Name: 43, dtype: object

>  <pication:PHE:134>  (45) 
pication:PHE:134    NaN
pication:PHE:134     -1
Name: 43, dtype: object

>  <halogenbond:PHE:134>  (45) 
halogenbond:PHE:134    NaN
halogenbond:PHE:134     -1
Name: 43, dtype: object

>  <hydroph_interaction:ALA:135>  (45) 
hydroph_interaction:ALA:135    NaN
hydroph_interaction:ALA:135     -1
Name: 43, dtype: object

>  <hbond:ALA:135>  (45) 
hbond:ALA:135    NaN
hbond:ALA:135     -1
Name: 43, dtype: object

$$$$
Z1618294828
     RDKit          3D

 17 18  0  0  0  0  0  0  0  0999 V2000
   30.4792    8.6539    8.5928 C   0  0  0  0  0  0  0  0  0  0  0  0
   31.2564    9.6199    7.7223 C   0  0  0  0  0  0  0  0  0  0  0  0
   32.2712    9.2277    6.6948 C   0  0  0  0  0  0  0  0  0  0  0  0
   32.8929   10.3054    5.9743 C   0  0  0  0  0  0  0  0  0  0  0  0
   32.6075   11.6212    6.1867 C   0  0  0  0  0  0  0  0  0  0  0  0
   33.2381   12.5545    5.4598 F   0  0  0  0  0  0  0  0  0  0  0  0
   31.6782   11.9934    7.1391 C   0  0  0  0  0  0  0  0  0  0  0  0
   31.3517   13.2828    7.4119 O   0  0  0  0  0  0  0  0  0  0  0  0
   30.1240   13.3028    8.1203 C   0  0  2  0  0  0  0  0  0  0  0  0
   29.0797   13.0564    7.1057 C   0  0  0  0  0  0  0  0  0  0  0  0
   27.7839   13.7502    7.0804 C   0  0  0  0  0  0  0  0  0  0  0  0
   27.5701   14.5105    8.3852 C   0  0  0  0  0  0  0  0  0  0  0  0
   28.7356   15.2267    8.8400 N   0  0  0  0  0  0  0  0  0  0  0  0
   28.7725   16.6552    8.6017 C   0  0  0  0  0  0  0  0  0  0  0  0
   29.9778   14.6278    8.8815 C   0  0  0  0  0  0  0  0  0  0  0  0
   31.0686   15.2308    9.5821 O   0  0  0  0  0  0  0  0  0  0  0  0
   31.0124   10.9989    7.8904 C   0  0  0  0  0  0  0  0  0  0  0  0
  1  2  1  0
  2  3  2  0
  3  4  1  0
  4  5  2  0
  5  6  1  0
  5  7  1  0
  7  8  1  0
  9  8  1  6
  9 10  1  0
 10 11  1  0
 11 12  1  0
 12 13  1  0
 13 14  1  0
 13 15  1  0
 15 16  2  0
  7 17  2  0
 17  2  1  0
 15  9  1  0
A    1
 C1 
A    2
 C2 
A    3
 C3 
A    4
 C4 
A    5
 C5 
A    6
 F1 
A    7
 C6 
A    8
 O1 
A    9
 C7 
A   10
 C8 
A   11
 C9 
A   12
 C10
A   13
 N1 
A   14
 C11
A   15
 C12
A   16
 O2 
A   17
 C13
M  END
>  <ref_pdb>  (46) 
Ax0310a

>  <ref_mols>  (46) 
Ax0416a,Ax0528a

>  <original SMILES>  (46) 
Cc1ccc(F)c(OC2CCCN(C)C2=O)c1

>  <rationale>  (46) 
info halogenbond:C110+G127+A86+E85+Q95+E106+E88+T126+H104+Y64+C65+S87+N129+F83+R93+L131+I82+G128+P91+N19+H21+V84+G133+Y90+Y89+H97+L81+F134+L98+R20+G103+S66+S67+S7+G108+R38+V124+M99+S36; hbond:S87+Q95+D39+G108+G103+G128+G130+L131+N129+N19+H104+R68+V124+R93+P91+F83+S7+S66+G112+G133+V132+R20+Y89+S77+A135+Y63+A92+A101+M99+F134+L100+I82+Y64+S36+L98+V84+L81+Y94+S80+R38+S37+V102+G8+I123+G111+I113+L114+C65+L22+S96; hydroph_interaction:V124+P107+L22+E106+N129+N19+L40+I123+A135+I82+L100+L98+L131+F83+R93+F134+H104+A86+V74+P91+A101+F76+M99+L114+A92+Y94+R68+Y72+Y64+V18+V102+W28+G127+G128+L81; pication:H104+Y63+F134+Y90+R68+F83+R20; pistack:Y89+H104+F134+Y63+F83+Y94; saltbridge:R93+H104+E106+D109+E85+E88+R68+R20; 

>  <intxn_cluster>  (46) 
-1

>  <intxn_cluster_rank>  (46) 
-1

>  <N_interactions>  (46) 
3

>  <∆∆G>  (46) 
-12.868964

>  <$/mg>  (46) 
0.0

>  <comRMSD>  (46) 
0.702248

>  <N_rotatable_bonds>  (46) 
4

>  <deep_P1_sidechain>  (46) 
nan

>  <farthest_distance_to_substrate>  (46) 
2.389696

>  <hbond:SER:7>  (46) 
hbond:SER:7    NaN
hbond:SER:7     -1
Name: 44, dtype: object

>  <halogenbond:SER:7>  (46) 
halogenbond:SER:7    NaN
halogenbond:SER:7     -1
Name: 44, dtype: object

>  <hbond:GLY:8>  (46) 
hbond:GLY:8    NaN
hbond:GLY:8     -1
Name: 44, dtype: object

>  <hydroph_interaction:VAL:18>  (46) 
hydroph_interaction:VAL:18    NaN
hydroph_interaction:VAL:18     -1
Name: 44, dtype: object

>  <hbond:ASN:19>  (46) 
hbond:ASN:19    NaN
hbond:ASN:19     -1
Name: 44, dtype: object

>  <hydroph_interaction:ASN:19>  (46) 
hydroph_interaction:ASN:19    NaN
hydroph_interaction:ASN:19     -1
Name: 44, dtype: object

>  <halogenbond:ASN:19>  (46) 
halogenbond:ASN:19    NaN
halogenbond:ASN:19     -1
Name: 44, dtype: object

>  <hbond:ARG:20>  (46) 
hbond:ARG:20    NaN
hbond:ARG:20     -1
Name: 44, dtype: object

>  <hydroph_interaction:ARG:20>  (46) 
hydroph_interaction:ARG:20    0.0
hydroph_interaction:ARG:20      0
Name: 44, dtype: object

>  <saltbridge:ARG:20>  (46) 
saltbridge:ARG:20    NaN
saltbridge:ARG:20     -1
Name: 44, dtype: object

>  <halogenbond:ARG:20>  (46) 
halogenbond:ARG:20    NaN
halogenbond:ARG:20     -1
Name: 44, dtype: object

>  <pication:ARG:20>  (46) 
pication:ARG:20    NaN
pication:ARG:20     -1
Name: 44, dtype: object

>  <hbond:HIS:21>  (46) 
hbond:HIS:21    0.0
hbond:HIS:21      0
Name: 44, dtype: object

>  <hydroph_interaction:HIS:21>  (46) 
hydroph_interaction:HIS:21    0.0
hydroph_interaction:HIS:21      0
Name: 44, dtype: object

>  <pistack:HIS:21>  (46) 
pistack:HIS:21    0.0
pistack:HIS:21      0
Name: 44, dtype: object

>  <pication:HIS:21>  (46) 
pication:HIS:21    0.0
pication:HIS:21      0
Name: 44, dtype: object

>  <saltbridge:HIS:21>  (46) 
saltbridge:HIS:21    0.0
saltbridge:HIS:21      0
Name: 44, dtype: object

>  <halogenbond:HIS:21>  (46) 
halogenbond:HIS:21    NaN
halogenbond:HIS:21     -1
Name: 44, dtype: object

>  <hydroph_interaction:LEU:22>  (46) 
hydroph_interaction:LEU:22    NaN
hydroph_interaction:LEU:22     -1
Name: 44, dtype: object

>  <hbond:LEU:22>  (46) 
hbond:LEU:22    NaN
hbond:LEU:22     -1
Name: 44, dtype: object

>  <hydroph_interaction:TRP:28>  (46) 
hydroph_interaction:TRP:28    NaN
hydroph_interaction:TRP:28     -1
Name: 44, dtype: object

>  <hbond:SER:36>  (46) 
hbond:SER:36    NaN
hbond:SER:36     -1
Name: 44, dtype: object

>  <halogenbond:SER:36>  (46) 
halogenbond:SER:36    NaN
halogenbond:SER:36     -1
Name: 44, dtype: object

>  <hbond:SER:37>  (46) 
hbond:SER:37    NaN
hbond:SER:37     -1
Name: 44, dtype: object

>  <hbond:ARG:38>  (46) 
hbond:ARG:38    NaN
hbond:ARG:38     -1
Name: 44, dtype: object

>  <halogenbond:ARG:38>  (46) 
halogenbond:ARG:38    NaN
halogenbond:ARG:38     -1
Name: 44, dtype: object

>  <saltbridge:ASP:39>  (46) 
saltbridge:ASP:39    0.0
saltbridge:ASP:39      0
Name: 44, dtype: object

>  <halogenbond:ASP:39>  (46) 
halogenbond:ASP:39    0.0
halogenbond:ASP:39      0
Name: 44, dtype: object

>  <hbond:ASP:39>  (46) 
hbond:ASP:39    NaN
hbond:ASP:39     -1
Name: 44, dtype: object

>  <hydroph_interaction:ASP:39>  (46) 
hydroph_interaction:ASP:39    0.0
hydroph_interaction:ASP:39      0
Name: 44, dtype: object

>  <hydroph_interaction:LEU:40>  (46) 
hydroph_interaction:LEU:40    NaN
hydroph_interaction:LEU:40     -1
Name: 44, dtype: object

>  <hydroph_interaction:TYR:63>  (46) 
hydroph_interaction:TYR:63    0.0
hydroph_interaction:TYR:63      0
Name: 44, dtype: object

>  <hbond:TYR:63>  (46) 
hbond:TYR:63    NaN
hbond:TYR:63     -1
Name: 44, dtype: object

>  <pistack:TYR:63>  (46) 
pistack:TYR:63    NaN
pistack:TYR:63     -1
Name: 44, dtype: object

>  <pication:TYR:63>  (46) 
pication:TYR:63    NaN
pication:TYR:63     -1
Name: 44, dtype: object

>  <halogenbond:TYR:64>  (46) 
halogenbond:TYR:64    NaN
halogenbond:TYR:64     -1
Name: 44, dtype: object

>  <hbond:TYR:64>  (46) 
hbond:TYR:64    NaN
hbond:TYR:64     -1
Name: 44, dtype: object

>  <hydroph_interaction:TYR:64>  (46) 
hydroph_interaction:TYR:64    NaN
hydroph_interaction:TYR:64     -1
Name: 44, dtype: object

>  <halogenbond:CYS:65>  (46) 
halogenbond:CYS:65    NaN
halogenbond:CYS:65     -1
Name: 44, dtype: object

>  <hbond:CYS:65>  (46) 
hbond:CYS:65    NaN
hbond:CYS:65     -1
Name: 44, dtype: object

>  <hbond:SER:66>  (46) 
hbond:SER:66    NaN
hbond:SER:66     -1
Name: 44, dtype: object

>  <halogenbond:SER:66>  (46) 
halogenbond:SER:66    NaN
halogenbond:SER:66     -1
Name: 44, dtype: object

>  <hbond:SER:67>  (46) 
hbond:SER:67    0.0
hbond:SER:67      0
Name: 44, dtype: object

>  <halogenbond:SER:67>  (46) 
halogenbond:SER:67    NaN
halogenbond:SER:67     -1
Name: 44, dtype: object

>  <hbond:ARG:68>  (46) 
hbond:ARG:68    NaN
hbond:ARG:68     -1
Name: 44, dtype: object

>  <saltbridge:ARG:68>  (46) 
saltbridge:ARG:68    NaN
saltbridge:ARG:68     -1
Name: 44, dtype: object

>  <hydroph_interaction:ARG:68>  (46) 
hydroph_interaction:ARG:68    NaN
hydroph_interaction:ARG:68     -1
Name: 44, dtype: object

>  <pication:ARG:68>  (46) 
pication:ARG:68    NaN
pication:ARG:68     -1
Name: 44, dtype: object

>  <hydroph_interaction:TYR:72>  (46) 
hydroph_interaction:TYR:72    NaN
hydroph_interaction:TYR:72     -1
Name: 44, dtype: object

>  <hydroph_interaction:VAL:74>  (46) 
hydroph_interaction:VAL:74    NaN
hydroph_interaction:VAL:74     -1
Name: 44, dtype: object

>  <hydroph_interaction:PHE:76>  (46) 
hydroph_interaction:PHE:76    NaN
hydroph_interaction:PHE:76     -1
Name: 44, dtype: object

>  <hbond:SER:77>  (46) 
hbond:SER:77    NaN
hbond:SER:77     -1
Name: 44, dtype: object

>  <hbond:SER:80>  (46) 
hbond:SER:80    NaN
hbond:SER:80     -1
Name: 44, dtype: object

>  <hbond:LEU:81>  (46) 
hbond:LEU:81    NaN
hbond:LEU:81     -1
Name: 44, dtype: object

>  <halogenbond:LEU:81>  (46) 
halogenbond:LEU:81    NaN
halogenbond:LEU:81     -1
Name: 44, dtype: object

>  <hydroph_interaction:LEU:81>  (46) 
hydroph_interaction:LEU:81    NaN
hydroph_interaction:LEU:81     -1
Name: 44, dtype: object

>  <hydroph_interaction:ILE:82>  (46) 
hydroph_interaction:ILE:82    NaN
hydroph_interaction:ILE:82     -1
Name: 44, dtype: object

>  <halogenbond:ILE:82>  (46) 
halogenbond:ILE:82    NaN
halogenbond:ILE:82     -1
Name: 44, dtype: object

>  <hbond:ILE:82>  (46) 
hbond:ILE:82    NaN
hbond:ILE:82     -1
Name: 44, dtype: object

>  <hbond:PHE:83>  (46) 
hbond:PHE:83    NaN
hbond:PHE:83     -1
Name: 44, dtype: object

>  <hydroph_interaction:PHE:83>  (46) 
hydroph_interaction:PHE:83    NaN
hydroph_interaction:PHE:83     -1
Name: 44, dtype: object

>  <halogenbond:PHE:83>  (46) 
halogenbond:PHE:83    NaN
halogenbond:PHE:83     -1
Name: 44, dtype: object

>  <pistack:PHE:83>  (46) 
pistack:PHE:83    NaN
pistack:PHE:83     -1
Name: 44, dtype: object

>  <pication:PHE:83>  (46) 
pication:PHE:83    NaN
pication:PHE:83     -1
Name: 44, dtype: object

>  <hydroph_interaction:VAL:84>  (46) 
hydroph_interaction:VAL:84    0.0
hydroph_interaction:VAL:84      0
Name: 44, dtype: object

>  <halogenbond:VAL:84>  (46) 
halogenbond:VAL:84    NaN
halogenbond:VAL:84     -1
Name: 44, dtype: object

>  <hbond:VAL:84>  (46) 
hbond:VAL:84    NaN
hbond:VAL:84     -1
Name: 44, dtype: object

>  <hydroph_interaction:GLU:85>  (46) 
hydroph_interaction:GLU:85    0.0
hydroph_interaction:GLU:85      0
Name: 44, dtype: object

>  <hbond:GLU:85>  (46) 
hbond:GLU:85    0.0
hbond:GLU:85      0
Name: 44, dtype: object

>  <halogenbond:GLU:85>  (46) 
halogenbond:GLU:85    NaN
halogenbond:GLU:85     -1
Name: 44, dtype: object

>  <saltbridge:GLU:85>  (46) 
saltbridge:GLU:85    NaN
saltbridge:GLU:85     -1
Name: 44, dtype: object

>  <halogenbond:ALA:86>  (46) 
halogenbond:ALA:86    NaN
halogenbond:ALA:86     -1
Name: 44, dtype: object

>  <hbond:ALA:86>  (46) 
hbond:ALA:86    0.0
hbond:ALA:86      0
Name: 44, dtype: object

>  <hydroph_interaction:ALA:86>  (46) 
hydroph_interaction:ALA:86    NaN
hydroph_interaction:ALA:86     -1
Name: 44, dtype: object

>  <hbond:SER:87>  (46) 
hbond:SER:87    1
hbond:SER:87    1
Name: 44, dtype: object

>  <halogenbond:SER:87>  (46) 
halogenbond:SER:87    NaN
halogenbond:SER:87     -1
Name: 44, dtype: object

>  <hbond:GLU:88>  (46) 
hbond:GLU:88    0.0
hbond:GLU:88      0
Name: 44, dtype: object

>  <hydroph_interaction:GLU:88>  (46) 
hydroph_interaction:GLU:88    0.0
hydroph_interaction:GLU:88      0
Name: 44, dtype: object

>  <halogenbond:GLU:88>  (46) 
halogenbond:GLU:88    NaN
halogenbond:GLU:88     -1
Name: 44, dtype: object

>  <saltbridge:GLU:88>  (46) 
saltbridge:GLU:88    NaN
saltbridge:GLU:88     -1
Name: 44, dtype: object

>  <hydroph_interaction:TYR:89>  (46) 
hydroph_interaction:TYR:89    0.0
hydroph_interaction:TYR:89      0
Name: 44, dtype: object

>  <pistack:TYR:89>  (46) 
pistack:TYR:89    NaN
pistack:TYR:89     -1
Name: 44, dtype: object

>  <hbond:TYR:89>  (46) 
hbond:TYR:89    NaN
hbond:TYR:89     -1
Name: 44, dtype: object

>  <halogenbond:TYR:89>  (46) 
halogenbond:TYR:89    NaN
halogenbond:TYR:89     -1
Name: 44, dtype: object

>  <hydroph_interaction:TYR:90>  (46) 
hydroph_interaction:TYR:90    0.0
hydroph_interaction:TYR:90      0
Name: 44, dtype: object

>  <hbond:TYR:90>  (46) 
hbond:TYR:90    0.0
hbond:TYR:90      0
Name: 44, dtype: object

>  <pistack:TYR:90>  (46) 
pistack:TYR:90    0.0
pistack:TYR:90      0
Name: 44, dtype: object

>  <halogenbond:TYR:90>  (46) 
halogenbond:TYR:90    NaN
halogenbond:TYR:90     -1
Name: 44, dtype: object

>  <pication:TYR:90>  (46) 
pication:TYR:90    NaN
pication:TYR:90     -1
Name: 44, dtype: object

>  <hbond:PRO:91>  (46) 
hbond:PRO:91    NaN
hbond:PRO:91     -1
Name: 44, dtype: object

>  <hydroph_interaction:PRO:91>  (46) 
hydroph_interaction:PRO:91    NaN
hydroph_interaction:PRO:91     -1
Name: 44, dtype: object

>  <halogenbond:PRO:91>  (46) 
halogenbond:PRO:91    NaN
halogenbond:PRO:91     -1
Name: 44, dtype: object

>  <hbond:ALA:92>  (46) 
hbond:ALA:92    NaN
hbond:ALA:92     -1
Name: 44, dtype: object

>  <hydroph_interaction:ALA:92>  (46) 
hydroph_interaction:ALA:92    NaN
hydroph_interaction:ALA:92     -1
Name: 44, dtype: object

>  <saltbridge:ARG:93>  (46) 
saltbridge:ARG:93    NaN
saltbridge:ARG:93     -1
Name: 44, dtype: object

>  <hbond:ARG:93>  (46) 
hbond:ARG:93    NaN
hbond:ARG:93     -1
Name: 44, dtype: object

>  <hydroph_interaction:ARG:93>  (46) 
hydroph_interaction:ARG:93    NaN
hydroph_interaction:ARG:93     -1
Name: 44, dtype: object

>  <halogenbond:ARG:93>  (46) 
halogenbond:ARG:93    NaN
halogenbond:ARG:93     -1
Name: 44, dtype: object

>  <pication:ARG:93>  (46) 
pication:ARG:93    0.0
pication:ARG:93      0
Name: 44, dtype: object

>  <hydroph_interaction:TYR:94>  (46) 
hydroph_interaction:TYR:94    NaN
hydroph_interaction:TYR:94     -1
Name: 44, dtype: object

>  <pistack:TYR:94>  (46) 
pistack:TYR:94    NaN
pistack:TYR:94     -1
Name: 44, dtype: object

>  <hbond:TYR:94>  (46) 
hbond:TYR:94    NaN
hbond:TYR:94     -1
Name: 44, dtype: object

>  <hbond:GLN:95>  (46) 
hbond:GLN:95    NaN
hbond:GLN:95     -1
Name: 44, dtype: object

>  <hydroph_interaction:GLN:95>  (46) 
hydroph_interaction:GLN:95    0.0
hydroph_interaction:GLN:95      0
Name: 44, dtype: object

>  <halogenbond:GLN:95>  (46) 
halogenbond:GLN:95    NaN
halogenbond:GLN:95     -1
Name: 44, dtype: object

>  <hbond:SER:96>  (46) 
hbond:SER:96    NaN
hbond:SER:96     -1
Name: 44, dtype: object

>  <halogenbond:HIS:97>  (46) 
halogenbond:HIS:97    NaN
halogenbond:HIS:97     -1
Name: 44, dtype: object

>  <hydroph_interaction:LEU:98>  (46) 
hydroph_interaction:LEU:98    NaN
hydroph_interaction:LEU:98     -1
Name: 44, dtype: object

>  <hbond:LEU:98>  (46) 
hbond:LEU:98    NaN
hbond:LEU:98     -1
Name: 44, dtype: object

>  <halogenbond:LEU:98>  (46) 
halogenbond:LEU:98    NaN
halogenbond:LEU:98     -1
Name: 44, dtype: object

>  <hbond:MET:99>  (46) 
hbond:MET:99    NaN
hbond:MET:99     -1
Name: 44, dtype: object

>  <hydroph_interaction:MET:99>  (46) 
hydroph_interaction:MET:99    NaN
hydroph_interaction:MET:99     -1
Name: 44, dtype: object

>  <halogenbond:MET:99>  (46) 
halogenbond:MET:99    NaN
halogenbond:MET:99     -1
Name: 44, dtype: object

>  <hydroph_interaction:LEU:100>  (46) 
hydroph_interaction:LEU:100    NaN
hydroph_interaction:LEU:100     -1
Name: 44, dtype: object

>  <hbond:LEU:100>  (46) 
hbond:LEU:100    NaN
hbond:LEU:100     -1
Name: 44, dtype: object

>  <hbond:ALA:101>  (46) 
hbond:ALA:101    NaN
hbond:ALA:101     -1
Name: 44, dtype: object

>  <hydroph_interaction:ALA:101>  (46) 
hydroph_interaction:ALA:101    NaN
hydroph_interaction:ALA:101     -1
Name: 44, dtype: object

>  <hydroph_interaction:VAL:102>  (46) 
hydroph_interaction:VAL:102    NaN
hydroph_interaction:VAL:102     -1
Name: 44, dtype: object

>  <hbond:VAL:102>  (46) 
hbond:VAL:102    NaN
hbond:VAL:102     -1
Name: 44, dtype: object

>  <hbond:GLY:103>  (46) 
hbond:GLY:103    NaN
hbond:GLY:103     -1
Name: 44, dtype: object

>  <halogenbond:GLY:103>  (46) 
halogenbond:GLY:103    NaN
halogenbond:GLY:103     -1
Name: 44, dtype: object

>  <hbond:HIS:104>  (46) 
hbond:HIS:104    NaN
hbond:HIS:104     -1
Name: 44, dtype: object

>  <saltbridge:HIS:104>  (46) 
saltbridge:HIS:104    NaN
saltbridge:HIS:104     -1
Name: 44, dtype: object

>  <pication:HIS:104>  (46) 
pication:HIS:104    NaN
pication:HIS:104     -1
Name: 44, dtype: object

>  <halogenbond:HIS:104>  (46) 
halogenbond:HIS:104    NaN
halogenbond:HIS:104     -1
Name: 44, dtype: object

>  <hydroph_interaction:HIS:104>  (46) 
hydroph_interaction:HIS:104    NaN
hydroph_interaction:HIS:104     -1
Name: 44, dtype: object

>  <pistack:HIS:104>  (46) 
pistack:HIS:104    NaN
pistack:HIS:104     -1
Name: 44, dtype: object

>  <halogenbond:SER:105>  (46) 
halogenbond:SER:105    0.0
halogenbond:SER:105      0
Name: 44, dtype: object

>  <hbond:SER:105>  (46) 
hbond:SER:105    0.0
hbond:SER:105      0
Name: 44, dtype: object

>  <hbond:GLU:106>  (46) 
hbond:GLU:106    0.0
hbond:GLU:106      0
Name: 44, dtype: object

>  <hydroph_interaction:GLU:106>  (46) 
hydroph_interaction:GLU:106    NaN
hydroph_interaction:GLU:106     -1
Name: 44, dtype: object

>  <saltbridge:GLU:106>  (46) 
saltbridge:GLU:106    NaN
saltbridge:GLU:106     -1
Name: 44, dtype: object

>  <halogenbond:GLU:106>  (46) 
halogenbond:GLU:106    NaN
halogenbond:GLU:106     -1
Name: 44, dtype: object

>  <hydroph_interaction:PRO:107>  (46) 
hydroph_interaction:PRO:107    1
hydroph_interaction:PRO:107    1
Name: 44, dtype: object

>  <hbond:PRO:107>  (46) 
hbond:PRO:107    0.0
hbond:PRO:107      0
Name: 44, dtype: object

>  <halogenbond:PRO:107>  (46) 
halogenbond:PRO:107    0.0
halogenbond:PRO:107      0
Name: 44, dtype: object

>  <hbond:GLY:108>  (46) 
hbond:GLY:108    NaN
hbond:GLY:108     -1
Name: 44, dtype: object

>  <halogenbond:GLY:108>  (46) 
halogenbond:GLY:108    NaN
halogenbond:GLY:108     -1
Name: 44, dtype: object

>  <hbond:ASP:109>  (46) 
hbond:ASP:109    0.0
hbond:ASP:109      0
Name: 44, dtype: object

>  <hydroph_interaction:ASP:109>  (46) 
hydroph_interaction:ASP:109    0.0
hydroph_interaction:ASP:109      0
Name: 44, dtype: object

>  <saltbridge:ASP:109>  (46) 
saltbridge:ASP:109    NaN
saltbridge:ASP:109     -1
Name: 44, dtype: object

>  <halogenbond:CYS:110>  (46) 
halogenbond:CYS:110    NaN
halogenbond:CYS:110     -1
Name: 44, dtype: object

>  <hbond:CYS:110>  (46) 
hbond:CYS:110    0.0
hbond:CYS:110      0
Name: 44, dtype: object

>  <hbond:GLY:111>  (46) 
hbond:GLY:111    NaN
hbond:GLY:111     -1
Name: 44, dtype: object

>  <hbond:GLY:112>  (46) 
hbond:GLY:112    NaN
hbond:GLY:112     -1
Name: 44, dtype: object

>  <hbond:ILE:113>  (46) 
hbond:ILE:113    NaN
hbond:ILE:113     -1
Name: 44, dtype: object

>  <hydroph_interaction:LEU:114>  (46) 
hydroph_interaction:LEU:114    NaN
hydroph_interaction:LEU:114     -1
Name: 44, dtype: object

>  <hbond:LEU:114>  (46) 
hbond:LEU:114    NaN
hbond:LEU:114     -1
Name: 44, dtype: object

>  <hydroph_interaction:ILE:123>  (46) 
hydroph_interaction:ILE:123    NaN
hydroph_interaction:ILE:123     -1
Name: 44, dtype: object

>  <hbond:ILE:123>  (46) 
hbond:ILE:123    NaN
hbond:ILE:123     -1
Name: 44, dtype: object

>  <hydroph_interaction:VAL:124>  (46) 
hydroph_interaction:VAL:124    1.0
hydroph_interaction:VAL:124      1
Name: 44, dtype: object

>  <hbond:VAL:124>  (46) 
hbond:VAL:124    NaN
hbond:VAL:124     -1
Name: 44, dtype: object

>  <halogenbond:VAL:124>  (46) 
halogenbond:VAL:124    NaN
halogenbond:VAL:124     -1
Name: 44, dtype: object

>  <hbond:SER:125>  (46) 
hbond:SER:125    0
hbond:SER:125    0
Name: 44, dtype: object

>  <halogenbond:SER:125>  (46) 
halogenbond:SER:125    0.0
halogenbond:SER:125      0
Name: 44, dtype: object

>  <hydroph_interaction:THR:126>  (46) 
hydroph_interaction:THR:126    0.0
hydroph_interaction:THR:126      0
Name: 44, dtype: object

>  <hbond:THR:126>  (46) 
hbond:THR:126    0.0
hbond:THR:126      0
Name: 44, dtype: object

>  <halogenbond:THR:126>  (46) 
halogenbond:THR:126    NaN
halogenbond:THR:126     -1
Name: 44, dtype: object

>  <hbond:GLY:127>  (46) 
hbond:GLY:127    0
hbond:GLY:127    0
Name: 44, dtype: object

>  <halogenbond:GLY:127>  (46) 
halogenbond:GLY:127    NaN
halogenbond:GLY:127     -1
Name: 44, dtype: object

>  <hydroph_interaction:GLY:127>  (46) 
hydroph_interaction:GLY:127    NaN
hydroph_interaction:GLY:127     -1
Name: 44, dtype: object

>  <hbond:GLY:128>  (46) 
hbond:GLY:128    NaN
hbond:GLY:128     -1
Name: 44, dtype: object

>  <halogenbond:GLY:128>  (46) 
halogenbond:GLY:128    NaN
halogenbond:GLY:128     -1
Name: 44, dtype: object

>  <hydroph_interaction:GLY:128>  (46) 
hydroph_interaction:GLY:128    NaN
hydroph_interaction:GLY:128     -1
Name: 44, dtype: object

>  <hbond:ASN:129>  (46) 
hbond:ASN:129    NaN
hbond:ASN:129     -1
Name: 44, dtype: object

>  <hydroph_interaction:ASN:129>  (46) 
hydroph_interaction:ASN:129    NaN
hydroph_interaction:ASN:129     -1
Name: 44, dtype: object

>  <halogenbond:ASN:129>  (46) 
halogenbond:ASN:129    NaN
halogenbond:ASN:129     -1
Name: 44, dtype: object

>  <hbond:GLY:130>  (46) 
hbond:GLY:130    NaN
hbond:GLY:130     -1
Name: 44, dtype: object

>  <hbond:LEU:131>  (46) 
hbond:LEU:131    NaN
hbond:LEU:131     -1
Name: 44, dtype: object

>  <hydroph_interaction:LEU:131>  (46) 
hydroph_interaction:LEU:131    NaN
hydroph_interaction:LEU:131     -1
Name: 44, dtype: object

>  <halogenbond:LEU:131>  (46) 
halogenbond:LEU:131    NaN
halogenbond:LEU:131     -1
Name: 44, dtype: object

>  <hydroph_interaction:VAL:132>  (46) 
hydroph_interaction:VAL:132    0.0
hydroph_interaction:VAL:132      0
Name: 44, dtype: object

>  <hbond:VAL:132>  (46) 
hbond:VAL:132    NaN
hbond:VAL:132     -1
Name: 44, dtype: object

>  <hbond:GLY:133>  (46) 
hbond:GLY:133    NaN
hbond:GLY:133     -1
Name: 44, dtype: object

>  <halogenbond:GLY:133>  (46) 
halogenbond:GLY:133    NaN
halogenbond:GLY:133     -1
Name: 44, dtype: object

>  <hydroph_interaction:PHE:134>  (46) 
hydroph_interaction:PHE:134    NaN
hydroph_interaction:PHE:134     -1
Name: 44, dtype: object

>  <hbond:PHE:134>  (46) 
hbond:PHE:134    NaN
hbond:PHE:134     -1
Name: 44, dtype: object

>  <pistack:PHE:134>  (46) 
pistack:PHE:134    NaN
pistack:PHE:134     -1
Name: 44, dtype: object

>  <pication:PHE:134>  (46) 
pication:PHE:134    NaN
pication:PHE:134     -1
Name: 44, dtype: object

>  <halogenbond:PHE:134>  (46) 
halogenbond:PHE:134    NaN
halogenbond:PHE:134     -1
Name: 44, dtype: object

>  <hydroph_interaction:ALA:135>  (46) 
hydroph_interaction:ALA:135    NaN
hydroph_interaction:ALA:135     -1
Name: 44, dtype: object

>  <hbond:ALA:135>  (46) 
hbond:ALA:135    NaN
hbond:ALA:135     -1
Name: 44, dtype: object

$$$$
Z1537098021
     RDKit          3D

 15 16  0  0  0  0  0  0  0  0999 V2000
   30.4119    8.6852    8.7704 C   0  0  0  0  0  0  0  0  0  0  0  0
   31.1261    9.6226    7.8518 C   0  0  0  0  0  0  0  0  0  0  0  0
   32.0983    9.2208    6.9386 C   0  0  0  0  0  0  0  0  0  0  0  0
   32.7235   10.1667    6.1247 C   0  0  0  0  0  0  0  0  0  0  0  0
   32.3767   11.5216    6.2237 C   0  0  0  0  0  0  0  0  0  0  0  0
   33.2704   12.7623    5.0814 Br  0  0  0  0  0  0  0  0  0  0  0  0
   31.3958   11.9327    7.1412 C   0  0  0  0  0  0  0  0  0  0  0  0
   30.9976   13.2516    7.2965 N   0  0  0  0  0  0  0  0  0  0  0  0
   30.0008   13.5623    8.3175 C   0  0  2  0  0  0  0  0  0  0  0  0
   28.5880   13.3673    7.8276 C   0  0  0  0  0  0  0  0  0  0  0  0
   28.0385   14.7457    7.6722 C   0  0  0  0  0  0  0  0  0  0  0  0
   28.7067   15.4969    8.6739 N   0  0  0  0  0  0  0  0  0  0  0  0
   29.9482   14.9493    8.9550 C   0  0  0  0  0  0  0  0  0  0  0  0
   30.8156   15.5148    9.5947 O   0  0  0  0  0  0  0  0  0  0  0  0
   30.7997   10.9601    7.9286 C   0  0  0  0  0  0  0  0  0  0  0  0
  1  2  1  0
  2  3  2  0
  3  4  1  0
  4  5  2  0
  5  6  1  0
  5  7  1  0
  7  8  1  0
  9  8  1  6
  9 10  1  0
 10 11  1  0
 11 12  1  0
 12 13  1  0
 13 14  2  0
  7 15  2  0
 15  2  1  0
 13  9  1  0
A    1
 C1 
A    2
 C2 
A    3
 C3 
A    4
 C4 
A    5
 C5 
A    6
BR1 
A    7
 C6 
A    8
 N1 
A    9
 C7 
A   10
 C8 
A   11
 C9 
A   12
 N2 
A   13
 C10
A   14
 O1 
A   15
 C11
M  END
>  <ref_pdb>  (47) 
Ax0310a

>  <ref_mols>  (47) 
Ax0416a,Ax0528a

>  <original SMILES>  (47) 
Cc1ccc(Br)c(NC2CCNC2=O)c1

>  <rationale>  (47) 
info halogenbond:C110+G127+A86+E85+Q95+E106+E88+T126+H104+Y64+C65+S87+N129+F83+R93+L131+I82+G128+P91+N19+H21+V84+G133+Y90+Y89+H97+L81+F134+L98+R20+G103+S66+S67+S7+G108+R38+V124+M99+S36; hbond:S87+Q95+D39+G108+G103+G128+G130+L131+N129+N19+H104+R68+V124+R93+P91+F83+S7+S66+G112+G133+V132+R20+Y89+S77+A135+Y63+A92+A101+M99+F134+L100+I82+Y64+S36+L98+V84+L81+Y94+S80+R38+S37+V102+G8+I123+G111+I113+L114+C65+L22+S96; hydroph_interaction:V124+P107+L22+E106+N129+N19+L40+I123+A135+I82+L100+L98+L131+F83+R93+F134+H104+A86+V74+P91+A101+F76+M99+L114+A92+Y94+R68+Y72+Y64+V18+V102+W28+G127+G128+L81; pication:H104+Y63+F134+Y90+R68+F83+R20; pistack:Y89+H104+F134+Y63+F83+Y94; saltbridge:R93+H104+E106+D109+E85+E88+R68+R20; 

>  <intxn_cluster>  (47) 
-1

>  <intxn_cluster_rank>  (47) 
-1

>  <N_interactions>  (47) 
4

>  <∆∆G>  (47) 
-9.023702

>  <$/mg>  (47) 
0.0

>  <comRMSD>  (47) 
0.501323

>  <N_rotatable_bonds>  (47) 
3

>  <deep_P1_sidechain>  (47) 
nan

>  <farthest_distance_to_substrate>  (47) 
2.204728

>  <hbond:SER:7>  (47) 
hbond:SER:7    NaN
hbond:SER:7     -1
Name: 45, dtype: object

>  <halogenbond:SER:7>  (47) 
halogenbond:SER:7    NaN
halogenbond:SER:7     -1
Name: 45, dtype: object

>  <hbond:GLY:8>  (47) 
hbond:GLY:8    NaN
hbond:GLY:8     -1
Name: 45, dtype: object

>  <hydroph_interaction:VAL:18>  (47) 
hydroph_interaction:VAL:18    NaN
hydroph_interaction:VAL:18     -1
Name: 45, dtype: object

>  <hbond:ASN:19>  (47) 
hbond:ASN:19    NaN
hbond:ASN:19     -1
Name: 45, dtype: object

>  <hydroph_interaction:ASN:19>  (47) 
hydroph_interaction:ASN:19    NaN
hydroph_interaction:ASN:19     -1
Name: 45, dtype: object

>  <halogenbond:ASN:19>  (47) 
halogenbond:ASN:19    NaN
halogenbond:ASN:19     -1
Name: 45, dtype: object

>  <hbond:ARG:20>  (47) 
hbond:ARG:20    NaN
hbond:ARG:20     -1
Name: 45, dtype: object

>  <hydroph_interaction:ARG:20>  (47) 
hydroph_interaction:ARG:20    0.0
hydroph_interaction:ARG:20      0
Name: 45, dtype: object

>  <saltbridge:ARG:20>  (47) 
saltbridge:ARG:20    NaN
saltbridge:ARG:20     -1
Name: 45, dtype: object

>  <halogenbond:ARG:20>  (47) 
halogenbond:ARG:20    NaN
halogenbond:ARG:20     -1
Name: 45, dtype: object

>  <pication:ARG:20>  (47) 
pication:ARG:20    NaN
pication:ARG:20     -1
Name: 45, dtype: object

>  <hbond:HIS:21>  (47) 
hbond:HIS:21    0.0
hbond:HIS:21      0
Name: 45, dtype: object

>  <hydroph_interaction:HIS:21>  (47) 
hydroph_interaction:HIS:21    0.0
hydroph_interaction:HIS:21      0
Name: 45, dtype: object

>  <pistack:HIS:21>  (47) 
pistack:HIS:21    0.0
pistack:HIS:21      0
Name: 45, dtype: object

>  <pication:HIS:21>  (47) 
pication:HIS:21    0.0
pication:HIS:21      0
Name: 45, dtype: object

>  <saltbridge:HIS:21>  (47) 
saltbridge:HIS:21    0.0
saltbridge:HIS:21      0
Name: 45, dtype: object

>  <halogenbond:HIS:21>  (47) 
halogenbond:HIS:21    NaN
halogenbond:HIS:21     -1
Name: 45, dtype: object

>  <hydroph_interaction:LEU:22>  (47) 
hydroph_interaction:LEU:22    NaN
hydroph_interaction:LEU:22     -1
Name: 45, dtype: object

>  <hbond:LEU:22>  (47) 
hbond:LEU:22    NaN
hbond:LEU:22     -1
Name: 45, dtype: object

>  <hydroph_interaction:TRP:28>  (47) 
hydroph_interaction:TRP:28    NaN
hydroph_interaction:TRP:28     -1
Name: 45, dtype: object

>  <hbond:SER:36>  (47) 
hbond:SER:36    NaN
hbond:SER:36     -1
Name: 45, dtype: object

>  <halogenbond:SER:36>  (47) 
halogenbond:SER:36    NaN
halogenbond:SER:36     -1
Name: 45, dtype: object

>  <hbond:SER:37>  (47) 
hbond:SER:37    NaN
hbond:SER:37     -1
Name: 45, dtype: object

>  <hbond:ARG:38>  (47) 
hbond:ARG:38    NaN
hbond:ARG:38     -1
Name: 45, dtype: object

>  <halogenbond:ARG:38>  (47) 
halogenbond:ARG:38    NaN
halogenbond:ARG:38     -1
Name: 45, dtype: object

>  <saltbridge:ASP:39>  (47) 
saltbridge:ASP:39    0.0
saltbridge:ASP:39      0
Name: 45, dtype: object

>  <halogenbond:ASP:39>  (47) 
halogenbond:ASP:39    0.0
halogenbond:ASP:39      0
Name: 45, dtype: object

>  <hbond:ASP:39>  (47) 
hbond:ASP:39    NaN
hbond:ASP:39     -1
Name: 45, dtype: object

>  <hydroph_interaction:ASP:39>  (47) 
hydroph_interaction:ASP:39    0.0
hydroph_interaction:ASP:39      0
Name: 45, dtype: object

>  <hydroph_interaction:LEU:40>  (47) 
hydroph_interaction:LEU:40    NaN
hydroph_interaction:LEU:40     -1
Name: 45, dtype: object

>  <hydroph_interaction:TYR:63>  (47) 
hydroph_interaction:TYR:63    0.0
hydroph_interaction:TYR:63      0
Name: 45, dtype: object

>  <hbond:TYR:63>  (47) 
hbond:TYR:63    NaN
hbond:TYR:63     -1
Name: 45, dtype: object

>  <pistack:TYR:63>  (47) 
pistack:TYR:63    NaN
pistack:TYR:63     -1
Name: 45, dtype: object

>  <pication:TYR:63>  (47) 
pication:TYR:63    NaN
pication:TYR:63     -1
Name: 45, dtype: object

>  <halogenbond:TYR:64>  (47) 
halogenbond:TYR:64    NaN
halogenbond:TYR:64     -1
Name: 45, dtype: object

>  <hbond:TYR:64>  (47) 
hbond:TYR:64    NaN
hbond:TYR:64     -1
Name: 45, dtype: object

>  <hydroph_interaction:TYR:64>  (47) 
hydroph_interaction:TYR:64    NaN
hydroph_interaction:TYR:64     -1
Name: 45, dtype: object

>  <halogenbond:CYS:65>  (47) 
halogenbond:CYS:65    NaN
halogenbond:CYS:65     -1
Name: 45, dtype: object

>  <hbond:CYS:65>  (47) 
hbond:CYS:65    NaN
hbond:CYS:65     -1
Name: 45, dtype: object

>  <hbond:SER:66>  (47) 
hbond:SER:66    NaN
hbond:SER:66     -1
Name: 45, dtype: object

>  <halogenbond:SER:66>  (47) 
halogenbond:SER:66    NaN
halogenbond:SER:66     -1
Name: 45, dtype: object

>  <hbond:SER:67>  (47) 
hbond:SER:67    0.0
hbond:SER:67      0
Name: 45, dtype: object

>  <halogenbond:SER:67>  (47) 
halogenbond:SER:67    NaN
halogenbond:SER:67     -1
Name: 45, dtype: object

>  <hbond:ARG:68>  (47) 
hbond:ARG:68    NaN
hbond:ARG:68     -1
Name: 45, dtype: object

>  <saltbridge:ARG:68>  (47) 
saltbridge:ARG:68    NaN
saltbridge:ARG:68     -1
Name: 45, dtype: object

>  <hydroph_interaction:ARG:68>  (47) 
hydroph_interaction:ARG:68    NaN
hydroph_interaction:ARG:68     -1
Name: 45, dtype: object

>  <pication:ARG:68>  (47) 
pication:ARG:68    NaN
pication:ARG:68     -1
Name: 45, dtype: object

>  <hydroph_interaction:TYR:72>  (47) 
hydroph_interaction:TYR:72    NaN
hydroph_interaction:TYR:72     -1
Name: 45, dtype: object

>  <hydroph_interaction:VAL:74>  (47) 
hydroph_interaction:VAL:74    NaN
hydroph_interaction:VAL:74     -1
Name: 45, dtype: object

>  <hydroph_interaction:PHE:76>  (47) 
hydroph_interaction:PHE:76    NaN
hydroph_interaction:PHE:76     -1
Name: 45, dtype: object

>  <hbond:SER:77>  (47) 
hbond:SER:77    NaN
hbond:SER:77     -1
Name: 45, dtype: object

>  <hbond:SER:80>  (47) 
hbond:SER:80    NaN
hbond:SER:80     -1
Name: 45, dtype: object

>  <hbond:LEU:81>  (47) 
hbond:LEU:81    NaN
hbond:LEU:81     -1
Name: 45, dtype: object

>  <halogenbond:LEU:81>  (47) 
halogenbond:LEU:81    NaN
halogenbond:LEU:81     -1
Name: 45, dtype: object

>  <hydroph_interaction:LEU:81>  (47) 
hydroph_interaction:LEU:81    NaN
hydroph_interaction:LEU:81     -1
Name: 45, dtype: object

>  <hydroph_interaction:ILE:82>  (47) 
hydroph_interaction:ILE:82    NaN
hydroph_interaction:ILE:82     -1
Name: 45, dtype: object

>  <halogenbond:ILE:82>  (47) 
halogenbond:ILE:82    NaN
halogenbond:ILE:82     -1
Name: 45, dtype: object

>  <hbond:ILE:82>  (47) 
hbond:ILE:82    NaN
hbond:ILE:82     -1
Name: 45, dtype: object

>  <hbond:PHE:83>  (47) 
hbond:PHE:83    NaN
hbond:PHE:83     -1
Name: 45, dtype: object

>  <hydroph_interaction:PHE:83>  (47) 
hydroph_interaction:PHE:83    NaN
hydroph_interaction:PHE:83     -1
Name: 45, dtype: object

>  <halogenbond:PHE:83>  (47) 
halogenbond:PHE:83    NaN
halogenbond:PHE:83     -1
Name: 45, dtype: object

>  <pistack:PHE:83>  (47) 
pistack:PHE:83    NaN
pistack:PHE:83     -1
Name: 45, dtype: object

>  <pication:PHE:83>  (47) 
pication:PHE:83    NaN
pication:PHE:83     -1
Name: 45, dtype: object

>  <hydroph_interaction:VAL:84>  (47) 
hydroph_interaction:VAL:84    0.0
hydroph_interaction:VAL:84      0
Name: 45, dtype: object

>  <halogenbond:VAL:84>  (47) 
halogenbond:VAL:84    NaN
halogenbond:VAL:84     -1
Name: 45, dtype: object

>  <hbond:VAL:84>  (47) 
hbond:VAL:84    NaN
hbond:VAL:84     -1
Name: 45, dtype: object

>  <hydroph_interaction:GLU:85>  (47) 
hydroph_interaction:GLU:85    0.0
hydroph_interaction:GLU:85      0
Name: 45, dtype: object

>  <hbond:GLU:85>  (47) 
hbond:GLU:85    0.0
hbond:GLU:85      0
Name: 45, dtype: object

>  <halogenbond:GLU:85>  (47) 
halogenbond:GLU:85    NaN
halogenbond:GLU:85     -1
Name: 45, dtype: object

>  <saltbridge:GLU:85>  (47) 
saltbridge:GLU:85    NaN
saltbridge:GLU:85     -1
Name: 45, dtype: object

>  <halogenbond:ALA:86>  (47) 
halogenbond:ALA:86    NaN
halogenbond:ALA:86     -1
Name: 45, dtype: object

>  <hbond:ALA:86>  (47) 
hbond:ALA:86    0.0
hbond:ALA:86      0
Name: 45, dtype: object

>  <hydroph_interaction:ALA:86>  (47) 
hydroph_interaction:ALA:86    NaN
hydroph_interaction:ALA:86     -1
Name: 45, dtype: object

>  <hbond:SER:87>  (47) 
hbond:SER:87    2
hbond:SER:87    2
Name: 45, dtype: object

>  <halogenbond:SER:87>  (47) 
halogenbond:SER:87    NaN
halogenbond:SER:87     -1
Name: 45, dtype: object

>  <hbond:GLU:88>  (47) 
hbond:GLU:88    0.0
hbond:GLU:88      0
Name: 45, dtype: object

>  <hydroph_interaction:GLU:88>  (47) 
hydroph_interaction:GLU:88    0.0
hydroph_interaction:GLU:88      0
Name: 45, dtype: object

>  <halogenbond:GLU:88>  (47) 
halogenbond:GLU:88    NaN
halogenbond:GLU:88     -1
Name: 45, dtype: object

>  <saltbridge:GLU:88>  (47) 
saltbridge:GLU:88    NaN
saltbridge:GLU:88     -1
Name: 45, dtype: object

>  <hydroph_interaction:TYR:89>  (47) 
hydroph_interaction:TYR:89    0.0
hydroph_interaction:TYR:89      0
Name: 45, dtype: object

>  <pistack:TYR:89>  (47) 
pistack:TYR:89    NaN
pistack:TYR:89     -1
Name: 45, dtype: object

>  <hbond:TYR:89>  (47) 
hbond:TYR:89    NaN
hbond:TYR:89     -1
Name: 45, dtype: object

>  <halogenbond:TYR:89>  (47) 
halogenbond:TYR:89    NaN
halogenbond:TYR:89     -1
Name: 45, dtype: object

>  <hydroph_interaction:TYR:90>  (47) 
hydroph_interaction:TYR:90    0.0
hydroph_interaction:TYR:90      0
Name: 45, dtype: object

>  <hbond:TYR:90>  (47) 
hbond:TYR:90    0.0
hbond:TYR:90      0
Name: 45, dtype: object

>  <pistack:TYR:90>  (47) 
pistack:TYR:90    0.0
pistack:TYR:90      0
Name: 45, dtype: object

>  <halogenbond:TYR:90>  (47) 
halogenbond:TYR:90    NaN
halogenbond:TYR:90     -1
Name: 45, dtype: object

>  <pication:TYR:90>  (47) 
pication:TYR:90    NaN
pication:TYR:90     -1
Name: 45, dtype: object

>  <hbond:PRO:91>  (47) 
hbond:PRO:91    NaN
hbond:PRO:91     -1
Name: 45, dtype: object

>  <hydroph_interaction:PRO:91>  (47) 
hydroph_interaction:PRO:91    NaN
hydroph_interaction:PRO:91     -1
Name: 45, dtype: object

>  <halogenbond:PRO:91>  (47) 
halogenbond:PRO:91    NaN
halogenbond:PRO:91     -1
Name: 45, dtype: object

>  <hbond:ALA:92>  (47) 
hbond:ALA:92    NaN
hbond:ALA:92     -1
Name: 45, dtype: object

>  <hydroph_interaction:ALA:92>  (47) 
hydroph_interaction:ALA:92    NaN
hydroph_interaction:ALA:92     -1
Name: 45, dtype: object

>  <saltbridge:ARG:93>  (47) 
saltbridge:ARG:93    NaN
saltbridge:ARG:93     -1
Name: 45, dtype: object

>  <hbond:ARG:93>  (47) 
hbond:ARG:93    NaN
hbond:ARG:93     -1
Name: 45, dtype: object

>  <hydroph_interaction:ARG:93>  (47) 
hydroph_interaction:ARG:93    NaN
hydroph_interaction:ARG:93     -1
Name: 45, dtype: object

>  <halogenbond:ARG:93>  (47) 
halogenbond:ARG:93    NaN
halogenbond:ARG:93     -1
Name: 45, dtype: object

>  <pication:ARG:93>  (47) 
pication:ARG:93    0.0
pication:ARG:93      0
Name: 45, dtype: object

>  <hydroph_interaction:TYR:94>  (47) 
hydroph_interaction:TYR:94    NaN
hydroph_interaction:TYR:94     -1
Name: 45, dtype: object

>  <pistack:TYR:94>  (47) 
pistack:TYR:94    NaN
pistack:TYR:94     -1
Name: 45, dtype: object

>  <hbond:TYR:94>  (47) 
hbond:TYR:94    NaN
hbond:TYR:94     -1
Name: 45, dtype: object

>  <hbond:GLN:95>  (47) 
hbond:GLN:95    NaN
hbond:GLN:95     -1
Name: 45, dtype: object

>  <hydroph_interaction:GLN:95>  (47) 
hydroph_interaction:GLN:95    0.0
hydroph_interaction:GLN:95      0
Name: 45, dtype: object

>  <halogenbond:GLN:95>  (47) 
halogenbond:GLN:95    NaN
halogenbond:GLN:95     -1
Name: 45, dtype: object

>  <hbond:SER:96>  (47) 
hbond:SER:96    NaN
hbond:SER:96     -1
Name: 45, dtype: object

>  <halogenbond:HIS:97>  (47) 
halogenbond:HIS:97    NaN
halogenbond:HIS:97     -1
Name: 45, dtype: object

>  <hydroph_interaction:LEU:98>  (47) 
hydroph_interaction:LEU:98    NaN
hydroph_interaction:LEU:98     -1
Name: 45, dtype: object

>  <hbond:LEU:98>  (47) 
hbond:LEU:98    NaN
hbond:LEU:98     -1
Name: 45, dtype: object

>  <halogenbond:LEU:98>  (47) 
halogenbond:LEU:98    NaN
halogenbond:LEU:98     -1
Name: 45, dtype: object

>  <hbond:MET:99>  (47) 
hbond:MET:99    NaN
hbond:MET:99     -1
Name: 45, dtype: object

>  <hydroph_interaction:MET:99>  (47) 
hydroph_interaction:MET:99    NaN
hydroph_interaction:MET:99     -1
Name: 45, dtype: object

>  <halogenbond:MET:99>  (47) 
halogenbond:MET:99    NaN
halogenbond:MET:99     -1
Name: 45, dtype: object

>  <hydroph_interaction:LEU:100>  (47) 
hydroph_interaction:LEU:100    NaN
hydroph_interaction:LEU:100     -1
Name: 45, dtype: object

>  <hbond:LEU:100>  (47) 
hbond:LEU:100    NaN
hbond:LEU:100     -1
Name: 45, dtype: object

>  <hbond:ALA:101>  (47) 
hbond:ALA:101    NaN
hbond:ALA:101     -1
Name: 45, dtype: object

>  <hydroph_interaction:ALA:101>  (47) 
hydroph_interaction:ALA:101    NaN
hydroph_interaction:ALA:101     -1
Name: 45, dtype: object

>  <hydroph_interaction:VAL:102>  (47) 
hydroph_interaction:VAL:102    NaN
hydroph_interaction:VAL:102     -1
Name: 45, dtype: object

>  <hbond:VAL:102>  (47) 
hbond:VAL:102    NaN
hbond:VAL:102     -1
Name: 45, dtype: object

>  <hbond:GLY:103>  (47) 
hbond:GLY:103    NaN
hbond:GLY:103     -1
Name: 45, dtype: object

>  <halogenbond:GLY:103>  (47) 
halogenbond:GLY:103    NaN
halogenbond:GLY:103     -1
Name: 45, dtype: object

>  <hbond:HIS:104>  (47) 
hbond:HIS:104    NaN
hbond:HIS:104     -1
Name: 45, dtype: object

>  <saltbridge:HIS:104>  (47) 
saltbridge:HIS:104    NaN
saltbridge:HIS:104     -1
Name: 45, dtype: object

>  <pication:HIS:104>  (47) 
pication:HIS:104    NaN
pication:HIS:104     -1
Name: 45, dtype: object

>  <halogenbond:HIS:104>  (47) 
halogenbond:HIS:104    NaN
halogenbond:HIS:104     -1
Name: 45, dtype: object

>  <hydroph_interaction:HIS:104>  (47) 
hydroph_interaction:HIS:104    NaN
hydroph_interaction:HIS:104     -1
Name: 45, dtype: object

>  <pistack:HIS:104>  (47) 
pistack:HIS:104    NaN
pistack:HIS:104     -1
Name: 45, dtype: object

>  <halogenbond:SER:105>  (47) 
halogenbond:SER:105    0.0
halogenbond:SER:105      0
Name: 45, dtype: object

>  <hbond:SER:105>  (47) 
hbond:SER:105    0.0
hbond:SER:105      0
Name: 45, dtype: object

>  <hbond:GLU:106>  (47) 
hbond:GLU:106    0.0
hbond:GLU:106      0
Name: 45, dtype: object

>  <hydroph_interaction:GLU:106>  (47) 
hydroph_interaction:GLU:106    NaN
hydroph_interaction:GLU:106     -1
Name: 45, dtype: object

>  <saltbridge:GLU:106>  (47) 
saltbridge:GLU:106    NaN
saltbridge:GLU:106     -1
Name: 45, dtype: object

>  <halogenbond:GLU:106>  (47) 
halogenbond:GLU:106    NaN
halogenbond:GLU:106     -1
Name: 45, dtype: object

>  <hydroph_interaction:PRO:107>  (47) 
hydroph_interaction:PRO:107    1
hydroph_interaction:PRO:107    1
Name: 45, dtype: object

>  <hbond:PRO:107>  (47) 
hbond:PRO:107    0.0
hbond:PRO:107      0
Name: 45, dtype: object

>  <halogenbond:PRO:107>  (47) 
halogenbond:PRO:107    0.0
halogenbond:PRO:107      0
Name: 45, dtype: object

>  <hbond:GLY:108>  (47) 
hbond:GLY:108    NaN
hbond:GLY:108     -1
Name: 45, dtype: object

>  <halogenbond:GLY:108>  (47) 
halogenbond:GLY:108    NaN
halogenbond:GLY:108     -1
Name: 45, dtype: object

>  <hbond:ASP:109>  (47) 
hbond:ASP:109    0.0
hbond:ASP:109      0
Name: 45, dtype: object

>  <hydroph_interaction:ASP:109>  (47) 
hydroph_interaction:ASP:109    0.0
hydroph_interaction:ASP:109      0
Name: 45, dtype: object

>  <saltbridge:ASP:109>  (47) 
saltbridge:ASP:109    NaN
saltbridge:ASP:109     -1
Name: 45, dtype: object

>  <halogenbond:CYS:110>  (47) 
halogenbond:CYS:110    NaN
halogenbond:CYS:110     -1
Name: 45, dtype: object

>  <hbond:CYS:110>  (47) 
hbond:CYS:110    0.0
hbond:CYS:110      0
Name: 45, dtype: object

>  <hbond:GLY:111>  (47) 
hbond:GLY:111    NaN
hbond:GLY:111     -1
Name: 45, dtype: object

>  <hbond:GLY:112>  (47) 
hbond:GLY:112    NaN
hbond:GLY:112     -1
Name: 45, dtype: object

>  <hbond:ILE:113>  (47) 
hbond:ILE:113    NaN
hbond:ILE:113     -1
Name: 45, dtype: object

>  <hydroph_interaction:LEU:114>  (47) 
hydroph_interaction:LEU:114    NaN
hydroph_interaction:LEU:114     -1
Name: 45, dtype: object

>  <hbond:LEU:114>  (47) 
hbond:LEU:114    NaN
hbond:LEU:114     -1
Name: 45, dtype: object

>  <hydroph_interaction:ILE:123>  (47) 
hydroph_interaction:ILE:123    NaN
hydroph_interaction:ILE:123     -1
Name: 45, dtype: object

>  <hbond:ILE:123>  (47) 
hbond:ILE:123    NaN
hbond:ILE:123     -1
Name: 45, dtype: object

>  <hydroph_interaction:VAL:124>  (47) 
hydroph_interaction:VAL:124    1.0
hydroph_interaction:VAL:124      1
Name: 45, dtype: object

>  <hbond:VAL:124>  (47) 
hbond:VAL:124    NaN
hbond:VAL:124     -1
Name: 45, dtype: object

>  <halogenbond:VAL:124>  (47) 
halogenbond:VAL:124    NaN
halogenbond:VAL:124     -1
Name: 45, dtype: object

>  <hbond:SER:125>  (47) 
hbond:SER:125    0
hbond:SER:125    0
Name: 45, dtype: object

>  <halogenbond:SER:125>  (47) 
halogenbond:SER:125    0.0
halogenbond:SER:125      0
Name: 45, dtype: object

>  <hydroph_interaction:THR:126>  (47) 
hydroph_interaction:THR:126    0.0
hydroph_interaction:THR:126      0
Name: 45, dtype: object

>  <hbond:THR:126>  (47) 
hbond:THR:126    0.0
hbond:THR:126      0
Name: 45, dtype: object

>  <halogenbond:THR:126>  (47) 
halogenbond:THR:126    NaN
halogenbond:THR:126     -1
Name: 45, dtype: object

>  <hbond:GLY:127>  (47) 
hbond:GLY:127    0
hbond:GLY:127    0
Name: 45, dtype: object

>  <halogenbond:GLY:127>  (47) 
halogenbond:GLY:127    NaN
halogenbond:GLY:127     -1
Name: 45, dtype: object

>  <hydroph_interaction:GLY:127>  (47) 
hydroph_interaction:GLY:127    NaN
hydroph_interaction:GLY:127     -1
Name: 45, dtype: object

>  <hbond:GLY:128>  (47) 
hbond:GLY:128    NaN
hbond:GLY:128     -1
Name: 45, dtype: object

>  <halogenbond:GLY:128>  (47) 
halogenbond:GLY:128    NaN
halogenbond:GLY:128     -1
Name: 45, dtype: object

>  <hydroph_interaction:GLY:128>  (47) 
hydroph_interaction:GLY:128    NaN
hydroph_interaction:GLY:128     -1
Name: 45, dtype: object

>  <hbond:ASN:129>  (47) 
hbond:ASN:129    NaN
hbond:ASN:129     -1
Name: 45, dtype: object

>  <hydroph_interaction:ASN:129>  (47) 
hydroph_interaction:ASN:129    NaN
hydroph_interaction:ASN:129     -1
Name: 45, dtype: object

>  <halogenbond:ASN:129>  (47) 
halogenbond:ASN:129    NaN
halogenbond:ASN:129     -1
Name: 45, dtype: object

>  <hbond:GLY:130>  (47) 
hbond:GLY:130    NaN
hbond:GLY:130     -1
Name: 45, dtype: object

>  <hbond:LEU:131>  (47) 
hbond:LEU:131    NaN
hbond:LEU:131     -1
Name: 45, dtype: object

>  <hydroph_interaction:LEU:131>  (47) 
hydroph_interaction:LEU:131    NaN
hydroph_interaction:LEU:131     -1
Name: 45, dtype: object

>  <halogenbond:LEU:131>  (47) 
halogenbond:LEU:131    NaN
halogenbond:LEU:131     -1
Name: 45, dtype: object

>  <hydroph_interaction:VAL:132>  (47) 
hydroph_interaction:VAL:132    0.0
hydroph_interaction:VAL:132      0
Name: 45, dtype: object

>  <hbond:VAL:132>  (47) 
hbond:VAL:132    NaN
hbond:VAL:132     -1
Name: 45, dtype: object

>  <hbond:GLY:133>  (47) 
hbond:GLY:133    NaN
hbond:GLY:133     -1
Name: 45, dtype: object

>  <halogenbond:GLY:133>  (47) 
halogenbond:GLY:133    NaN
halogenbond:GLY:133     -1
Name: 45, dtype: object

>  <hydroph_interaction:PHE:134>  (47) 
hydroph_interaction:PHE:134    NaN
hydroph_interaction:PHE:134     -1
Name: 45, dtype: object

>  <hbond:PHE:134>  (47) 
hbond:PHE:134    NaN
hbond:PHE:134     -1
Name: 45, dtype: object

>  <pistack:PHE:134>  (47) 
pistack:PHE:134    NaN
pistack:PHE:134     -1
Name: 45, dtype: object

>  <pication:PHE:134>  (47) 
pication:PHE:134    NaN
pication:PHE:134     -1
Name: 45, dtype: object

>  <halogenbond:PHE:134>  (47) 
halogenbond:PHE:134    NaN
halogenbond:PHE:134     -1
Name: 45, dtype: object

>  <hydroph_interaction:ALA:135>  (47) 
hydroph_interaction:ALA:135    NaN
hydroph_interaction:ALA:135     -1
Name: 45, dtype: object

>  <hbond:ALA:135>  (47) 
hbond:ALA:135    NaN
hbond:ALA:135     -1
Name: 45, dtype: object

$$$$
Z1708143477
     RDKit          3D

 13 13  0  0  0  0  0  0  0  0999 V2000
   27.5803   15.5642    9.1390 C   0  0  0  0  0  0  0  0  0  0  0  0
   28.6257   15.0599    9.2209 C   0  0  0  0  0  0  0  0  0  0  0  0
   29.9203   14.4479    9.3198 C   0  0  0  0  0  0  0  0  0  0  0  0
   30.0114   13.4331    8.2022 C   0  0  0  0  0  0  0  0  0  0  0  0
   31.3866   13.0671    8.0372 N   0  0  0  0  0  0  0  0  0  0  0  0
   31.6481   11.7700    7.5991 C   0  0  0  0  0  0  0  0  0  0  0  0
   32.6582   11.5019    6.6573 C   0  0  0  0  0  0  0  0  0  0  0  0
   33.6883   12.9448    5.9455 Br  0  0  0  0  0  0  0  0  0  0  0  0
   32.9163   10.1940    6.2468 C   0  0  0  0  0  0  0  0  0  0  0  0
   33.9842    9.8569    5.2500 C   0  0  0  0  0  0  0  0  0  0  0  0
   32.1576    9.1632    6.7865 C   0  0  0  0  0  0  0  0  0  0  0  0
   31.1535    9.4021    7.7055 C   0  0  0  0  0  0  0  0  0  0  0  0
   30.9010   10.6984    8.1050 C   0  0  0  0  0  0  0  0  0  0  0  0
  1  2  3  0
  2  3  1  0
  3  4  1  0
  4  5  1  0
  5  6  1  0
  6  7  2  0
  7  8  1  0
  7  9  1  0
  9 10  1  0
  9 11  2  0
 11 12  1  0
 12 13  2  0
 13  6  1  0
A    1
 C1 
A    2
 C2 
A    3
 C3 
A    4
 C4 
A    5
 N1 
A    6
 C5 
A    7
 C6 
A    8
BR1 
A    9
 C7 
A   10
 C8 
A   11
 C9 
A   12
 C10
A   13
 C11
M  END
>  <ref_pdb>  (48) 
Ax0310a

>  <ref_mols>  (48) 
Ax0554a,Ax0732a

>  <original SMILES>  (48) 
C#CCCNc1cccc(C)c1Br

>  <rationale>  (48) 
info halogenbond:G127+D39+A86+E85+Q95+E106+E88+T126+P107+H104+Y64+C65+S87+N129+F83+R93+L131+I82+G128+P91+N19+H21+V84+G133+Y90+Y89+H97+L81+F134+L98+R20+G103+S66+S67+S7+G108+R38+V124+M99+S36; hbond:S87+D39+G108+G103+G128+G130+L131+N129+N19+H104+R68+V124+R93+P91+F83+S67+S7+S66+G112+G133+V132+Y89+S77+A135+Y63+A92+A101+M99+F134+L100+I82+Y64+S36+L98+V84+L81+Y94+S80+R38+S37+V102+G8+I123+G111+I113+L114+C65+L22+S96; hydroph_interaction:Y90+Y89+H21+L22+E106+N129+N19+L40+I123+A135+Q95+I82+L100+L98+L131+F83+R93+V132+Y63+F134+H104+R20+A86+V74+P91+A101+F76+M99+L114+A92+Y94+R68+Y72+Y64+V18+V102+W28+G127+G128+L81; pication:H104+R93+Y63+F134+Y90+R68+F83+R20; pistack:H21+Y89+Y90+H104+F134+Y63+F83+Y94; saltbridge:D39+R93+H104+E106+D109+E85+E88+R68+R20; 

>  <intxn_cluster>  (48) 
-1

>  <intxn_cluster_rank>  (48) 
-1

>  <N_interactions>  (48) 
5

>  <∆∆G>  (48) 
-6.963761

>  <$/mg>  (48) 
0.0

>  <comRMSD>  (48) 
0.881966

>  <N_rotatable_bonds>  (48) 
4

>  <deep_P1_sidechain>  (48) 
nan

>  <farthest_distance_to_substrate>  (48) 
2.485025

>  <hbond:SER:7>  (48) 
hbond:SER:7    NaN
hbond:SER:7     -1
Name: 46, dtype: object

>  <halogenbond:SER:7>  (48) 
halogenbond:SER:7    NaN
halogenbond:SER:7     -1
Name: 46, dtype: object

>  <hbond:GLY:8>  (48) 
hbond:GLY:8    NaN
hbond:GLY:8     -1
Name: 46, dtype: object

>  <hydroph_interaction:VAL:18>  (48) 
hydroph_interaction:VAL:18    NaN
hydroph_interaction:VAL:18     -1
Name: 46, dtype: object

>  <hbond:ASN:19>  (48) 
hbond:ASN:19    NaN
hbond:ASN:19     -1
Name: 46, dtype: object

>  <hydroph_interaction:ASN:19>  (48) 
hydroph_interaction:ASN:19    NaN
hydroph_interaction:ASN:19     -1
Name: 46, dtype: object

>  <halogenbond:ASN:19>  (48) 
halogenbond:ASN:19    NaN
halogenbond:ASN:19     -1
Name: 46, dtype: object

>  <hbond:ARG:20>  (48) 
hbond:ARG:20    0.0
hbond:ARG:20      0
Name: 46, dtype: object

>  <hydroph_interaction:ARG:20>  (48) 
hydroph_interaction:ARG:20    NaN
hydroph_interaction:ARG:20     -1
Name: 46, dtype: object

>  <saltbridge:ARG:20>  (48) 
saltbridge:ARG:20    NaN
saltbridge:ARG:20     -1
Name: 46, dtype: object

>  <halogenbond:ARG:20>  (48) 
halogenbond:ARG:20    NaN
halogenbond:ARG:20     -1
Name: 46, dtype: object

>  <pication:ARG:20>  (48) 
pication:ARG:20    NaN
pication:ARG:20     -1
Name: 46, dtype: object

>  <hbond:HIS:21>  (48) 
hbond:HIS:21    0.0
hbond:HIS:21      0
Name: 46, dtype: object

>  <hydroph_interaction:HIS:21>  (48) 
hydroph_interaction:HIS:21    1.0
hydroph_interaction:HIS:21      1
Name: 46, dtype: object

>  <pistack:HIS:21>  (48) 
pistack:HIS:21    NaN
pistack:HIS:21     -1
Name: 46, dtype: object

>  <pication:HIS:21>  (48) 
pication:HIS:21    0.0
pication:HIS:21      0
Name: 46, dtype: object

>  <saltbridge:HIS:21>  (48) 
saltbridge:HIS:21    0.0
saltbridge:HIS:21      0
Name: 46, dtype: object

>  <halogenbond:HIS:21>  (48) 
halogenbond:HIS:21    NaN
halogenbond:HIS:21     -1
Name: 46, dtype: object

>  <hydroph_interaction:LEU:22>  (48) 
hydroph_interaction:LEU:22    NaN
hydroph_interaction:LEU:22     -1
Name: 46, dtype: object

>  <hbond:LEU:22>  (48) 
hbond:LEU:22    NaN
hbond:LEU:22     -1
Name: 46, dtype: object

>  <hydroph_interaction:TRP:28>  (48) 
hydroph_interaction:TRP:28    NaN
hydroph_interaction:TRP:28     -1
Name: 46, dtype: object

>  <hbond:SER:36>  (48) 
hbond:SER:36    NaN
hbond:SER:36     -1
Name: 46, dtype: object

>  <halogenbond:SER:36>  (48) 
halogenbond:SER:36    NaN
halogenbond:SER:36     -1
Name: 46, dtype: object

>  <hbond:SER:37>  (48) 
hbond:SER:37    NaN
hbond:SER:37     -1
Name: 46, dtype: object

>  <hbond:ARG:38>  (48) 
hbond:ARG:38    NaN
hbond:ARG:38     -1
Name: 46, dtype: object

>  <halogenbond:ARG:38>  (48) 
halogenbond:ARG:38    NaN
halogenbond:ARG:38     -1
Name: 46, dtype: object

>  <saltbridge:ASP:39>  (48) 
saltbridge:ASP:39    NaN
saltbridge:ASP:39     -1
Name: 46, dtype: object

>  <halogenbond:ASP:39>  (48) 
halogenbond:ASP:39    NaN
halogenbond:ASP:39     -1
Name: 46, dtype: object

>  <hbond:ASP:39>  (48) 
hbond:ASP:39    NaN
hbond:ASP:39     -1
Name: 46, dtype: object

>  <hydroph_interaction:ASP:39>  (48) 
hydroph_interaction:ASP:39    0.0
hydroph_interaction:ASP:39      0
Name: 46, dtype: object

>  <hydroph_interaction:LEU:40>  (48) 
hydroph_interaction:LEU:40    NaN
hydroph_interaction:LEU:40     -1
Name: 46, dtype: object

>  <hydroph_interaction:TYR:63>  (48) 
hydroph_interaction:TYR:63    NaN
hydroph_interaction:TYR:63     -1
Name: 46, dtype: object

>  <hbond:TYR:63>  (48) 
hbond:TYR:63    NaN
hbond:TYR:63     -1
Name: 46, dtype: object

>  <pistack:TYR:63>  (48) 
pistack:TYR:63    NaN
pistack:TYR:63     -1
Name: 46, dtype: object

>  <pication:TYR:63>  (48) 
pication:TYR:63    NaN
pication:TYR:63     -1
Name: 46, dtype: object

>  <halogenbond:TYR:64>  (48) 
halogenbond:TYR:64    NaN
halogenbond:TYR:64     -1
Name: 46, dtype: object

>  <hbond:TYR:64>  (48) 
hbond:TYR:64    NaN
hbond:TYR:64     -1
Name: 46, dtype: object

>  <hydroph_interaction:TYR:64>  (48) 
hydroph_interaction:TYR:64    NaN
hydroph_interaction:TYR:64     -1
Name: 46, dtype: object

>  <halogenbond:CYS:65>  (48) 
halogenbond:CYS:65    NaN
halogenbond:CYS:65     -1
Name: 46, dtype: object

>  <hbond:CYS:65>  (48) 
hbond:CYS:65    NaN
hbond:CYS:65     -1
Name: 46, dtype: object

>  <hbond:SER:66>  (48) 
hbond:SER:66    NaN
hbond:SER:66     -1
Name: 46, dtype: object

>  <halogenbond:SER:66>  (48) 
halogenbond:SER:66    NaN
halogenbond:SER:66     -1
Name: 46, dtype: object

>  <hbond:SER:67>  (48) 
hbond:SER:67    NaN
hbond:SER:67     -1
Name: 46, dtype: object

>  <halogenbond:SER:67>  (48) 
halogenbond:SER:67    NaN
halogenbond:SER:67     -1
Name: 46, dtype: object

>  <hbond:ARG:68>  (48) 
hbond:ARG:68    NaN
hbond:ARG:68     -1
Name: 46, dtype: object

>  <saltbridge:ARG:68>  (48) 
saltbridge:ARG:68    NaN
saltbridge:ARG:68     -1
Name: 46, dtype: object

>  <hydroph_interaction:ARG:68>  (48) 
hydroph_interaction:ARG:68    NaN
hydroph_interaction:ARG:68     -1
Name: 46, dtype: object

>  <pication:ARG:68>  (48) 
pication:ARG:68    NaN
pication:ARG:68     -1
Name: 46, dtype: object

>  <hydroph_interaction:TYR:72>  (48) 
hydroph_interaction:TYR:72    NaN
hydroph_interaction:TYR:72     -1
Name: 46, dtype: object

>  <hydroph_interaction:VAL:74>  (48) 
hydroph_interaction:VAL:74    NaN
hydroph_interaction:VAL:74     -1
Name: 46, dtype: object

>  <hydroph_interaction:PHE:76>  (48) 
hydroph_interaction:PHE:76    NaN
hydroph_interaction:PHE:76     -1
Name: 46, dtype: object

>  <hbond:SER:77>  (48) 
hbond:SER:77    NaN
hbond:SER:77     -1
Name: 46, dtype: object

>  <hbond:SER:80>  (48) 
hbond:SER:80    NaN
hbond:SER:80     -1
Name: 46, dtype: object

>  <hbond:LEU:81>  (48) 
hbond:LEU:81    NaN
hbond:LEU:81     -1
Name: 46, dtype: object

>  <halogenbond:LEU:81>  (48) 
halogenbond:LEU:81    NaN
halogenbond:LEU:81     -1
Name: 46, dtype: object

>  <hydroph_interaction:LEU:81>  (48) 
hydroph_interaction:LEU:81    NaN
hydroph_interaction:LEU:81     -1
Name: 46, dtype: object

>  <hydroph_interaction:ILE:82>  (48) 
hydroph_interaction:ILE:82    NaN
hydroph_interaction:ILE:82     -1
Name: 46, dtype: object

>  <halogenbond:ILE:82>  (48) 
halogenbond:ILE:82    NaN
halogenbond:ILE:82     -1
Name: 46, dtype: object

>  <hbond:ILE:82>  (48) 
hbond:ILE:82    NaN
hbond:ILE:82     -1
Name: 46, dtype: object

>  <hbond:PHE:83>  (48) 
hbond:PHE:83    NaN
hbond:PHE:83     -1
Name: 46, dtype: object

>  <hydroph_interaction:PHE:83>  (48) 
hydroph_interaction:PHE:83    NaN
hydroph_interaction:PHE:83     -1
Name: 46, dtype: object

>  <halogenbond:PHE:83>  (48) 
halogenbond:PHE:83    NaN
halogenbond:PHE:83     -1
Name: 46, dtype: object

>  <pistack:PHE:83>  (48) 
pistack:PHE:83    NaN
pistack:PHE:83     -1
Name: 46, dtype: object

>  <pication:PHE:83>  (48) 
pication:PHE:83    NaN
pication:PHE:83     -1
Name: 46, dtype: object

>  <hydroph_interaction:VAL:84>  (48) 
hydroph_interaction:VAL:84    0.0
hydroph_interaction:VAL:84      0
Name: 46, dtype: object

>  <halogenbond:VAL:84>  (48) 
halogenbond:VAL:84    NaN
halogenbond:VAL:84     -1
Name: 46, dtype: object

>  <hbond:VAL:84>  (48) 
hbond:VAL:84    NaN
hbond:VAL:84     -1
Name: 46, dtype: object

>  <hydroph_interaction:GLU:85>  (48) 
hydroph_interaction:GLU:85    0.0
hydroph_interaction:GLU:85      0
Name: 46, dtype: object

>  <hbond:GLU:85>  (48) 
hbond:GLU:85    0.0
hbond:GLU:85      0
Name: 46, dtype: object

>  <halogenbond:GLU:85>  (48) 
halogenbond:GLU:85    NaN
halogenbond:GLU:85     -1
Name: 46, dtype: object

>  <saltbridge:GLU:85>  (48) 
saltbridge:GLU:85    NaN
saltbridge:GLU:85     -1
Name: 46, dtype: object

>  <halogenbond:ALA:86>  (48) 
halogenbond:ALA:86    NaN
halogenbond:ALA:86     -1
Name: 46, dtype: object

>  <hbond:ALA:86>  (48) 
hbond:ALA:86    0.0
hbond:ALA:86      0
Name: 46, dtype: object

>  <hydroph_interaction:ALA:86>  (48) 
hydroph_interaction:ALA:86    NaN
hydroph_interaction:ALA:86     -1
Name: 46, dtype: object

>  <hbond:SER:87>  (48) 
hbond:SER:87    2
hbond:SER:87    2
Name: 46, dtype: object

>  <halogenbond:SER:87>  (48) 
halogenbond:SER:87    NaN
halogenbond:SER:87     -1
Name: 46, dtype: object

>  <hbond:GLU:88>  (48) 
hbond:GLU:88    0.0
hbond:GLU:88      0
Name: 46, dtype: object

>  <hydroph_interaction:GLU:88>  (48) 
hydroph_interaction:GLU:88    0.0
hydroph_interaction:GLU:88      0
Name: 46, dtype: object

>  <halogenbond:GLU:88>  (48) 
halogenbond:GLU:88    NaN
halogenbond:GLU:88     -1
Name: 46, dtype: object

>  <saltbridge:GLU:88>  (48) 
saltbridge:GLU:88    NaN
saltbridge:GLU:88     -1
Name: 46, dtype: object

>  <hydroph_interaction:TYR:89>  (48) 
hydroph_interaction:TYR:89    1.0
hydroph_interaction:TYR:89      1
Name: 46, dtype: object

>  <pistack:TYR:89>  (48) 
pistack:TYR:89    NaN
pistack:TYR:89     -1
Name: 46, dtype: object

>  <hbond:TYR:89>  (48) 
hbond:TYR:89    NaN
hbond:TYR:89     -1
Name: 46, dtype: object

>  <halogenbond:TYR:89>  (48) 
halogenbond:TYR:89    NaN
halogenbond:TYR:89     -1
Name: 46, dtype: object

>  <hydroph_interaction:TYR:90>  (48) 
hydroph_interaction:TYR:90    1.0
hydroph_interaction:TYR:90      1
Name: 46, dtype: object

>  <hbond:TYR:90>  (48) 
hbond:TYR:90    0.0
hbond:TYR:90      0
Name: 46, dtype: object

>  <pistack:TYR:90>  (48) 
pistack:TYR:90    NaN
pistack:TYR:90     -1
Name: 46, dtype: object

>  <halogenbond:TYR:90>  (48) 
halogenbond:TYR:90    NaN
halogenbond:TYR:90     -1
Name: 46, dtype: object

>  <pication:TYR:90>  (48) 
pication:TYR:90    NaN
pication:TYR:90     -1
Name: 46, dtype: object

>  <hbond:PRO:91>  (48) 
hbond:PRO:91    NaN
hbond:PRO:91     -1
Name: 46, dtype: object

>  <hydroph_interaction:PRO:91>  (48) 
hydroph_interaction:PRO:91    NaN
hydroph_interaction:PRO:91     -1
Name: 46, dtype: object

>  <halogenbond:PRO:91>  (48) 
halogenbond:PRO:91    NaN
halogenbond:PRO:91     -1
Name: 46, dtype: object

>  <hbond:ALA:92>  (48) 
hbond:ALA:92    NaN
hbond:ALA:92     -1
Name: 46, dtype: object

>  <hydroph_interaction:ALA:92>  (48) 
hydroph_interaction:ALA:92    NaN
hydroph_interaction:ALA:92     -1
Name: 46, dtype: object

>  <saltbridge:ARG:93>  (48) 
saltbridge:ARG:93    NaN
saltbridge:ARG:93     -1
Name: 46, dtype: object

>  <hbond:ARG:93>  (48) 
hbond:ARG:93    NaN
hbond:ARG:93     -1
Name: 46, dtype: object

>  <hydroph_interaction:ARG:93>  (48) 
hydroph_interaction:ARG:93    NaN
hydroph_interaction:ARG:93     -1
Name: 46, dtype: object

>  <halogenbond:ARG:93>  (48) 
halogenbond:ARG:93    NaN
halogenbond:ARG:93     -1
Name: 46, dtype: object

>  <pication:ARG:93>  (48) 
pication:ARG:93    NaN
pication:ARG:93     -1
Name: 46, dtype: object

>  <hydroph_interaction:TYR:94>  (48) 
hydroph_interaction:TYR:94    NaN
hydroph_interaction:TYR:94     -1
Name: 46, dtype: object

>  <pistack:TYR:94>  (48) 
pistack:TYR:94    NaN
pistack:TYR:94     -1
Name: 46, dtype: object

>  <hbond:TYR:94>  (48) 
hbond:TYR:94    NaN
hbond:TYR:94     -1
Name: 46, dtype: object

>  <hbond:GLN:95>  (48) 
hbond:GLN:95    0.0
hbond:GLN:95      0
Name: 46, dtype: object

>  <hydroph_interaction:GLN:95>  (48) 
hydroph_interaction:GLN:95    NaN
hydroph_interaction:GLN:95     -1
Name: 46, dtype: object

>  <halogenbond:GLN:95>  (48) 
halogenbond:GLN:95    NaN
halogenbond:GLN:95     -1
Name: 46, dtype: object

>  <hbond:SER:96>  (48) 
hbond:SER:96    NaN
hbond:SER:96     -1
Name: 46, dtype: object

>  <halogenbond:HIS:97>  (48) 
halogenbond:HIS:97    NaN
halogenbond:HIS:97     -1
Name: 46, dtype: object

>  <hydroph_interaction:LEU:98>  (48) 
hydroph_interaction:LEU:98    NaN
hydroph_interaction:LEU:98     -1
Name: 46, dtype: object

>  <hbond:LEU:98>  (48) 
hbond:LEU:98    NaN
hbond:LEU:98     -1
Name: 46, dtype: object

>  <halogenbond:LEU:98>  (48) 
halogenbond:LEU:98    NaN
halogenbond:LEU:98     -1
Name: 46, dtype: object

>  <hbond:MET:99>  (48) 
hbond:MET:99    NaN
hbond:MET:99     -1
Name: 46, dtype: object

>  <hydroph_interaction:MET:99>  (48) 
hydroph_interaction:MET:99    NaN
hydroph_interaction:MET:99     -1
Name: 46, dtype: object

>  <halogenbond:MET:99>  (48) 
halogenbond:MET:99    NaN
halogenbond:MET:99     -1
Name: 46, dtype: object

>  <hydroph_interaction:LEU:100>  (48) 
hydroph_interaction:LEU:100    NaN
hydroph_interaction:LEU:100     -1
Name: 46, dtype: object

>  <hbond:LEU:100>  (48) 
hbond:LEU:100    NaN
hbond:LEU:100     -1
Name: 46, dtype: object

>  <hbond:ALA:101>  (48) 
hbond:ALA:101    NaN
hbond:ALA:101     -1
Name: 46, dtype: object

>  <hydroph_interaction:ALA:101>  (48) 
hydroph_interaction:ALA:101    NaN
hydroph_interaction:ALA:101     -1
Name: 46, dtype: object

>  <hydroph_interaction:VAL:102>  (48) 
hydroph_interaction:VAL:102    NaN
hydroph_interaction:VAL:102     -1
Name: 46, dtype: object

>  <hbond:VAL:102>  (48) 
hbond:VAL:102    NaN
hbond:VAL:102     -1
Name: 46, dtype: object

>  <hbond:GLY:103>  (48) 
hbond:GLY:103    NaN
hbond:GLY:103     -1
Name: 46, dtype: object

>  <halogenbond:GLY:103>  (48) 
halogenbond:GLY:103    NaN
halogenbond:GLY:103     -1
Name: 46, dtype: object

>  <hbond:HIS:104>  (48) 
hbond:HIS:104    NaN
hbond:HIS:104     -1
Name: 46, dtype: object

>  <saltbridge:HIS:104>  (48) 
saltbridge:HIS:104    NaN
saltbridge:HIS:104     -1
Name: 46, dtype: object

>  <pication:HIS:104>  (48) 
pication:HIS:104    NaN
pication:HIS:104     -1
Name: 46, dtype: object

>  <halogenbond:HIS:104>  (48) 
halogenbond:HIS:104    NaN
halogenbond:HIS:104     -1
Name: 46, dtype: object

>  <hydroph_interaction:HIS:104>  (48) 
hydroph_interaction:HIS:104    NaN
hydroph_interaction:HIS:104     -1
Name: 46, dtype: object

>  <pistack:HIS:104>  (48) 
pistack:HIS:104    NaN
pistack:HIS:104     -1
Name: 46, dtype: object

>  <halogenbond:SER:105>  (48) 
halogenbond:SER:105    0.0
halogenbond:SER:105      0
Name: 46, dtype: object

>  <hbond:SER:105>  (48) 
hbond:SER:105    0.0
hbond:SER:105      0
Name: 46, dtype: object

>  <hbond:GLU:106>  (48) 
hbond:GLU:106    0.0
hbond:GLU:106      0
Name: 46, dtype: object

>  <hydroph_interaction:GLU:106>  (48) 
hydroph_interaction:GLU:106    NaN
hydroph_interaction:GLU:106     -1
Name: 46, dtype: object

>  <saltbridge:GLU:106>  (48) 
saltbridge:GLU:106    NaN
saltbridge:GLU:106     -1
Name: 46, dtype: object

>  <halogenbond:GLU:106>  (48) 
halogenbond:GLU:106    NaN
halogenbond:GLU:106     -1
Name: 46, dtype: object

>  <hydroph_interaction:PRO:107>  (48) 
hydroph_interaction:PRO:107    0
hydroph_interaction:PRO:107    0
Name: 46, dtype: object

>  <hbond:PRO:107>  (48) 
hbond:PRO:107    0.0
hbond:PRO:107      0
Name: 46, dtype: object

>  <halogenbond:PRO:107>  (48) 
halogenbond:PRO:107    NaN
halogenbond:PRO:107     -1
Name: 46, dtype: object

>  <hbond:GLY:108>  (48) 
hbond:GLY:108    NaN
hbond:GLY:108     -1
Name: 46, dtype: object

>  <halogenbond:GLY:108>  (48) 
halogenbond:GLY:108    NaN
halogenbond:GLY:108     -1
Name: 46, dtype: object

>  <hbond:ASP:109>  (48) 
hbond:ASP:109    0.0
hbond:ASP:109      0
Name: 46, dtype: object

>  <hydroph_interaction:ASP:109>  (48) 
hydroph_interaction:ASP:109    0.0
hydroph_interaction:ASP:109      0
Name: 46, dtype: object

>  <saltbridge:ASP:109>  (48) 
saltbridge:ASP:109    NaN
saltbridge:ASP:109     -1
Name: 46, dtype: object

>  <halogenbond:CYS:110>  (48) 
halogenbond:CYS:110    0.0
halogenbond:CYS:110      0
Name: 46, dtype: object

>  <hbond:CYS:110>  (48) 
hbond:CYS:110    0.0
hbond:CYS:110      0
Name: 46, dtype: object

>  <hbond:GLY:111>  (48) 
hbond:GLY:111    NaN
hbond:GLY:111     -1
Name: 46, dtype: object

>  <hbond:GLY:112>  (48) 
hbond:GLY:112    NaN
hbond:GLY:112     -1
Name: 46, dtype: object

>  <hbond:ILE:113>  (48) 
hbond:ILE:113    NaN
hbond:ILE:113     -1
Name: 46, dtype: object

>  <hydroph_interaction:LEU:114>  (48) 
hydroph_interaction:LEU:114    NaN
hydroph_interaction:LEU:114     -1
Name: 46, dtype: object

>  <hbond:LEU:114>  (48) 
hbond:LEU:114    NaN
hbond:LEU:114     -1
Name: 46, dtype: object

>  <hydroph_interaction:ILE:123>  (48) 
hydroph_interaction:ILE:123    NaN
hydroph_interaction:ILE:123     -1
Name: 46, dtype: object

>  <hbond:ILE:123>  (48) 
hbond:ILE:123    NaN
hbond:ILE:123     -1
Name: 46, dtype: object

>  <hydroph_interaction:VAL:124>  (48) 
hydroph_interaction:VAL:124    0.0
hydroph_interaction:VAL:124      0
Name: 46, dtype: object

>  <hbond:VAL:124>  (48) 
hbond:VAL:124    NaN
hbond:VAL:124     -1
Name: 46, dtype: object

>  <halogenbond:VAL:124>  (48) 
halogenbond:VAL:124    NaN
halogenbond:VAL:124     -1
Name: 46, dtype: object

>  <hbond:SER:125>  (48) 
hbond:SER:125    0
hbond:SER:125    0
Name: 46, dtype: object

>  <halogenbond:SER:125>  (48) 
halogenbond:SER:125    0.0
halogenbond:SER:125      0
Name: 46, dtype: object

>  <hydroph_interaction:THR:126>  (48) 
hydroph_interaction:THR:126    0.0
hydroph_interaction:THR:126      0
Name: 46, dtype: object

>  <hbond:THR:126>  (48) 
hbond:THR:126    0.0
hbond:THR:126      0
Name: 46, dtype: object

>  <halogenbond:THR:126>  (48) 
halogenbond:THR:126    NaN
halogenbond:THR:126     -1
Name: 46, dtype: object

>  <hbond:GLY:127>  (48) 
hbond:GLY:127    0
hbond:GLY:127    0
Name: 46, dtype: object

>  <halogenbond:GLY:127>  (48) 
halogenbond:GLY:127    NaN
halogenbond:GLY:127     -1
Name: 46, dtype: object

>  <hydroph_interaction:GLY:127>  (48) 
hydroph_interaction:GLY:127    NaN
hydroph_interaction:GLY:127     -1
Name: 46, dtype: object

>  <hbond:GLY:128>  (48) 
hbond:GLY:128    NaN
hbond:GLY:128     -1
Name: 46, dtype: object

>  <halogenbond:GLY:128>  (48) 
halogenbond:GLY:128    NaN
halogenbond:GLY:128     -1
Name: 46, dtype: object

>  <hydroph_interaction:GLY:128>  (48) 
hydroph_interaction:GLY:128    NaN
hydroph_interaction:GLY:128     -1
Name: 46, dtype: object

>  <hbond:ASN:129>  (48) 
hbond:ASN:129    NaN
hbond:ASN:129     -1
Name: 46, dtype: object

>  <hydroph_interaction:ASN:129>  (48) 
hydroph_interaction:ASN:129    NaN
hydroph_interaction:ASN:129     -1
Name: 46, dtype: object

>  <halogenbond:ASN:129>  (48) 
halogenbond:ASN:129    NaN
halogenbond:ASN:129     -1
Name: 46, dtype: object

>  <hbond:GLY:130>  (48) 
hbond:GLY:130    NaN
hbond:GLY:130     -1
Name: 46, dtype: object

>  <hbond:LEU:131>  (48) 
hbond:LEU:131    NaN
hbond:LEU:131     -1
Name: 46, dtype: object

>  <hydroph_interaction:LEU:131>  (48) 
hydroph_interaction:LEU:131    NaN
hydroph_interaction:LEU:131     -1
Name: 46, dtype: object

>  <halogenbond:LEU:131>  (48) 
halogenbond:LEU:131    NaN
halogenbond:LEU:131     -1
Name: 46, dtype: object

>  <hydroph_interaction:VAL:132>  (48) 
hydroph_interaction:VAL:132    NaN
hydroph_interaction:VAL:132     -1
Name: 46, dtype: object

>  <hbond:VAL:132>  (48) 
hbond:VAL:132    NaN
hbond:VAL:132     -1
Name: 46, dtype: object

>  <hbond:GLY:133>  (48) 
hbond:GLY:133    NaN
hbond:GLY:133     -1
Name: 46, dtype: object

>  <halogenbond:GLY:133>  (48) 
halogenbond:GLY:133    NaN
halogenbond:GLY:133     -1
Name: 46, dtype: object

>  <hydroph_interaction:PHE:134>  (48) 
hydroph_interaction:PHE:134    NaN
hydroph_interaction:PHE:134     -1
Name: 46, dtype: object

>  <hbond:PHE:134>  (48) 
hbond:PHE:134    NaN
hbond:PHE:134     -1
Name: 46, dtype: object

>  <pistack:PHE:134>  (48) 
pistack:PHE:134    NaN
pistack:PHE:134     -1
Name: 46, dtype: object

>  <pication:PHE:134>  (48) 
pication:PHE:134    NaN
pication:PHE:134     -1
Name: 46, dtype: object

>  <halogenbond:PHE:134>  (48) 
halogenbond:PHE:134    NaN
halogenbond:PHE:134     -1
Name: 46, dtype: object

>  <hydroph_interaction:ALA:135>  (48) 
hydroph_interaction:ALA:135    NaN
hydroph_interaction:ALA:135     -1
Name: 46, dtype: object

>  <hbond:ALA:135>  (48) 
hbond:ALA:135    NaN
hbond:ALA:135     -1
Name: 46, dtype: object

$$$$
Z52680052
     RDKit          3D

 15 16  0  0  0  0  0  0  0  0999 V2000
   28.2380   14.8291    8.4019 C   0  0  0  0  0  0  0  0  0  0  0  0
   29.2690   13.8403    8.4651 O   0  0  0  0  0  0  0  0  0  0  0  0
   29.6811   13.3983    7.2495 C   0  0  0  0  0  0  0  0  0  0  0  0
   29.3385   13.9363    6.2098 O   0  0  0  0  0  0  0  0  0  0  0  0
   30.5831   12.2383    7.1962 C   0  0  2  0  0  0  0  0  0  0  0  0
   30.3741   11.1523    8.0284 C   0  0  0  0  0  0  0  0  0  0  0  0
   31.1765    9.9851    7.6773 N   0  0  0  0  0  0  0  0  0  0  0  0
   30.9878    8.7630    8.4384 C   0  0  0  0  0  0  0  0  0  0  0  0
   32.2311   10.2343    6.8017 C   0  0  0  0  0  0  0  0  0  0  0  0
   32.9666    9.2478    6.1483 C   0  0  0  0  0  0  0  0  0  0  0  0
   34.0036    9.5637    5.2719 C   0  0  0  0  0  0  0  0  0  0  0  0
   34.3251   10.8934    5.0353 C   0  0  0  0  0  0  0  0  0  0  0  0
   33.6131   11.8924    5.6780 C   0  0  0  0  0  0  0  0  0  0  0  0
   32.5864   11.5576    6.5488 C   0  0  0  0  0  0  0  0  0  0  0  0
   31.9446   12.5858    7.1355 O   0  0  0  0  0  0  0  0  0  0  0  0
  1  2  1  0
  2  3  1  0
  3  4  2  0
  5  3  1  1
  5  6  1  0
  6  7  1  0
  7  8  1  0
  7  9  1  0
  9 10  2  0
 10 11  1  0
 11 12  2  0
 12 13  1  0
 13 14  2  0
 14 15  1  0
 15  5  1  0
 14  9  1  0
A    1
 C1 
A    2
 O1 
A    3
 C2 
A    4
 O2 
A    5
 C3 
A    6
 C4 
A    7
 N1 
A    8
 C5 
A    9
 C6 
A   10
 C7 
A   11
 C8 
A   12
 C9 
A   13
 C10
A   14
 C11
A   15
 O3 
M  END
>  <ref_pdb>  (49) 
Ax0310a

>  <ref_mols>  (49) 
Ax0451a,Ax0528a

>  <original SMILES>  (49) 
COC(=O)C1CN(C)c2ccccc2O1

>  <rationale>  (49) 
info halogenbond:C110+G127+D39+A86+S125+E85+Q95+E106+E88+T126+P107+H104+Y64+C65+S87+N129+F83+R93+L131+I82+G128+P91+N19+H21+V84+G133+Y90+Y89+H97+L81+F134+L98+R20+G103+S66+S67+S7+G108+R38+V124+M99+S36; hbond:G127+E88+Q95+A86+E85+G108+G103+G128+G130+L131+N129+N19+H104+R68+V124+R93+P91+F83+S67+S7+S66+G112+G133+V132+R20+Y89+S77+A135+Y63+A92+A101+M99+F134+L100+I82+Y64+S36+L98+V84+L81+Y94+S80+R38+S37+V102+G8+I123+G111+I113+L114+C65+L22+S96; hydroph_interaction:T126+E85+E88+D109+N129+D39+L40+I123+A135+Q95+I82+L100+L98+L131+F83+R93+Y63+F134+H104+R20+A86+V74+P91+A101+F76+M99+L114+A92+Y94+R68+Y72+Y64+V18+V102+W28+G127+G128+L81; pication:H104+R93+Y63+F134+Y90+R68+F83+R20; pistack:H21+Y90+H104+F134+Y63+F83+Y94; saltbridge:D39+H21+R93+H104+E106+D109+E85+E88+R68+R20; 

>  <intxn_cluster>  (49) 
-1

>  <intxn_cluster_rank>  (49) 
-1

>  <N_interactions>  (49) 
3

>  <∆∆G>  (49) 
-7.406516

>  <$/mg>  (49) 
163.0

>  <comRMSD>  (49) 
0.918567

>  <N_rotatable_bonds>  (49) 
3

>  <deep_P1_sidechain>  (49) 
nan

>  <farthest_distance_to_substrate>  (49) 
2.727704

>  <hbond:SER:7>  (49) 
hbond:SER:7    NaN
hbond:SER:7     -1
Name: 47, dtype: object

>  <halogenbond:SER:7>  (49) 
halogenbond:SER:7    NaN
halogenbond:SER:7     -1
Name: 47, dtype: object

>  <hbond:GLY:8>  (49) 
hbond:GLY:8    NaN
hbond:GLY:8     -1
Name: 47, dtype: object

>  <hydroph_interaction:VAL:18>  (49) 
hydroph_interaction:VAL:18    NaN
hydroph_interaction:VAL:18     -1
Name: 47, dtype: object

>  <hbond:ASN:19>  (49) 
hbond:ASN:19    NaN
hbond:ASN:19     -1
Name: 47, dtype: object

>  <hydroph_interaction:ASN:19>  (49) 
hydroph_interaction:ASN:19    0.0
hydroph_interaction:ASN:19      0
Name: 47, dtype: object

>  <halogenbond:ASN:19>  (49) 
halogenbond:ASN:19    NaN
halogenbond:ASN:19     -1
Name: 47, dtype: object

>  <hbond:ARG:20>  (49) 
hbond:ARG:20    NaN
hbond:ARG:20     -1
Name: 47, dtype: object

>  <hydroph_interaction:ARG:20>  (49) 
hydroph_interaction:ARG:20    NaN
hydroph_interaction:ARG:20     -1
Name: 47, dtype: object

>  <saltbridge:ARG:20>  (49) 
saltbridge:ARG:20    NaN
saltbridge:ARG:20     -1
Name: 47, dtype: object

>  <halogenbond:ARG:20>  (49) 
halogenbond:ARG:20    NaN
halogenbond:ARG:20     -1
Name: 47, dtype: object

>  <pication:ARG:20>  (49) 
pication:ARG:20    NaN
pication:ARG:20     -1
Name: 47, dtype: object

>  <hbond:HIS:21>  (49) 
hbond:HIS:21    0.0
hbond:HIS:21      0
Name: 47, dtype: object

>  <hydroph_interaction:HIS:21>  (49) 
hydroph_interaction:HIS:21    0.0
hydroph_interaction:HIS:21      0
Name: 47, dtype: object

>  <pistack:HIS:21>  (49) 
pistack:HIS:21    NaN
pistack:HIS:21     -1
Name: 47, dtype: object

>  <pication:HIS:21>  (49) 
pication:HIS:21    0.0
pication:HIS:21      0
Name: 47, dtype: object

>  <saltbridge:HIS:21>  (49) 
saltbridge:HIS:21    1.0
saltbridge:HIS:21      1
Name: 47, dtype: object

>  <halogenbond:HIS:21>  (49) 
halogenbond:HIS:21    NaN
halogenbond:HIS:21     -1
Name: 47, dtype: object

>  <hydroph_interaction:LEU:22>  (49) 
hydroph_interaction:LEU:22    0.0
hydroph_interaction:LEU:22      0
Name: 47, dtype: object

>  <hbond:LEU:22>  (49) 
hbond:LEU:22    NaN
hbond:LEU:22     -1
Name: 47, dtype: object

>  <hydroph_interaction:TRP:28>  (49) 
hydroph_interaction:TRP:28    NaN
hydroph_interaction:TRP:28     -1
Name: 47, dtype: object

>  <hbond:SER:36>  (49) 
hbond:SER:36    NaN
hbond:SER:36     -1
Name: 47, dtype: object

>  <halogenbond:SER:36>  (49) 
halogenbond:SER:36    NaN
halogenbond:SER:36     -1
Name: 47, dtype: object

>  <hbond:SER:37>  (49) 
hbond:SER:37    NaN
hbond:SER:37     -1
Name: 47, dtype: object

>  <hbond:ARG:38>  (49) 
hbond:ARG:38    NaN
hbond:ARG:38     -1
Name: 47, dtype: object

>  <halogenbond:ARG:38>  (49) 
halogenbond:ARG:38    NaN
halogenbond:ARG:38     -1
Name: 47, dtype: object

>  <saltbridge:ASP:39>  (49) 
saltbridge:ASP:39    NaN
saltbridge:ASP:39     -1
Name: 47, dtype: object

>  <halogenbond:ASP:39>  (49) 
halogenbond:ASP:39    NaN
halogenbond:ASP:39     -1
Name: 47, dtype: object

>  <hbond:ASP:39>  (49) 
hbond:ASP:39    0.0
hbond:ASP:39      0
Name: 47, dtype: object

>  <hydroph_interaction:ASP:39>  (49) 
hydroph_interaction:ASP:39    NaN
hydroph_interaction:ASP:39     -1
Name: 47, dtype: object

>  <hydroph_interaction:LEU:40>  (49) 
hydroph_interaction:LEU:40    NaN
hydroph_interaction:LEU:40     -1
Name: 47, dtype: object

>  <hydroph_interaction:TYR:63>  (49) 
hydroph_interaction:TYR:63    NaN
hydroph_interaction:TYR:63     -1
Name: 47, dtype: object

>  <hbond:TYR:63>  (49) 
hbond:TYR:63    NaN
hbond:TYR:63     -1
Name: 47, dtype: object

>  <pistack:TYR:63>  (49) 
pistack:TYR:63    NaN
pistack:TYR:63     -1
Name: 47, dtype: object

>  <pication:TYR:63>  (49) 
pication:TYR:63    NaN
pication:TYR:63     -1
Name: 47, dtype: object

>  <halogenbond:TYR:64>  (49) 
halogenbond:TYR:64    NaN
halogenbond:TYR:64     -1
Name: 47, dtype: object

>  <hbond:TYR:64>  (49) 
hbond:TYR:64    NaN
hbond:TYR:64     -1
Name: 47, dtype: object

>  <hydroph_interaction:TYR:64>  (49) 
hydroph_interaction:TYR:64    NaN
hydroph_interaction:TYR:64     -1
Name: 47, dtype: object

>  <halogenbond:CYS:65>  (49) 
halogenbond:CYS:65    NaN
halogenbond:CYS:65     -1
Name: 47, dtype: object

>  <hbond:CYS:65>  (49) 
hbond:CYS:65    NaN
hbond:CYS:65     -1
Name: 47, dtype: object

>  <hbond:SER:66>  (49) 
hbond:SER:66    NaN
hbond:SER:66     -1
Name: 47, dtype: object

>  <halogenbond:SER:66>  (49) 
halogenbond:SER:66    NaN
halogenbond:SER:66     -1
Name: 47, dtype: object

>  <hbond:SER:67>  (49) 
hbond:SER:67    NaN
hbond:SER:67     -1
Name: 47, dtype: object

>  <halogenbond:SER:67>  (49) 
halogenbond:SER:67    NaN
halogenbond:SER:67     -1
Name: 47, dtype: object

>  <hbond:ARG:68>  (49) 
hbond:ARG:68    NaN
hbond:ARG:68     -1
Name: 47, dtype: object

>  <saltbridge:ARG:68>  (49) 
saltbridge:ARG:68    NaN
saltbridge:ARG:68     -1
Name: 47, dtype: object

>  <hydroph_interaction:ARG:68>  (49) 
hydroph_interaction:ARG:68    NaN
hydroph_interaction:ARG:68     -1
Name: 47, dtype: object

>  <pication:ARG:68>  (49) 
pication:ARG:68    NaN
pication:ARG:68     -1
Name: 47, dtype: object

>  <hydroph_interaction:TYR:72>  (49) 
hydroph_interaction:TYR:72    NaN
hydroph_interaction:TYR:72     -1
Name: 47, dtype: object

>  <hydroph_interaction:VAL:74>  (49) 
hydroph_interaction:VAL:74    NaN
hydroph_interaction:VAL:74     -1
Name: 47, dtype: object

>  <hydroph_interaction:PHE:76>  (49) 
hydroph_interaction:PHE:76    NaN
hydroph_interaction:PHE:76     -1
Name: 47, dtype: object

>  <hbond:SER:77>  (49) 
hbond:SER:77    NaN
hbond:SER:77     -1
Name: 47, dtype: object

>  <hbond:SER:80>  (49) 
hbond:SER:80    NaN
hbond:SER:80     -1
Name: 47, dtype: object

>  <hbond:LEU:81>  (49) 
hbond:LEU:81    NaN
hbond:LEU:81     -1
Name: 47, dtype: object

>  <halogenbond:LEU:81>  (49) 
halogenbond:LEU:81    NaN
halogenbond:LEU:81     -1
Name: 47, dtype: object

>  <hydroph_interaction:LEU:81>  (49) 
hydroph_interaction:LEU:81    NaN
hydroph_interaction:LEU:81     -1
Name: 47, dtype: object

>  <hydroph_interaction:ILE:82>  (49) 
hydroph_interaction:ILE:82    NaN
hydroph_interaction:ILE:82     -1
Name: 47, dtype: object

>  <halogenbond:ILE:82>  (49) 
halogenbond:ILE:82    NaN
halogenbond:ILE:82     -1
Name: 47, dtype: object

>  <hbond:ILE:82>  (49) 
hbond:ILE:82    NaN
hbond:ILE:82     -1
Name: 47, dtype: object

>  <hbond:PHE:83>  (49) 
hbond:PHE:83    NaN
hbond:PHE:83     -1
Name: 47, dtype: object

>  <hydroph_interaction:PHE:83>  (49) 
hydroph_interaction:PHE:83    NaN
hydroph_interaction:PHE:83     -1
Name: 47, dtype: object

>  <halogenbond:PHE:83>  (49) 
halogenbond:PHE:83    NaN
halogenbond:PHE:83     -1
Name: 47, dtype: object

>  <pistack:PHE:83>  (49) 
pistack:PHE:83    NaN
pistack:PHE:83     -1
Name: 47, dtype: object

>  <pication:PHE:83>  (49) 
pication:PHE:83    NaN
pication:PHE:83     -1
Name: 47, dtype: object

>  <hydroph_interaction:VAL:84>  (49) 
hydroph_interaction:VAL:84    0.0
hydroph_interaction:VAL:84      0
Name: 47, dtype: object

>  <halogenbond:VAL:84>  (49) 
halogenbond:VAL:84    NaN
halogenbond:VAL:84     -1
Name: 47, dtype: object

>  <hbond:VAL:84>  (49) 
hbond:VAL:84    NaN
hbond:VAL:84     -1
Name: 47, dtype: object

>  <hydroph_interaction:GLU:85>  (49) 
hydroph_interaction:GLU:85    NaN
hydroph_interaction:GLU:85     -1
Name: 47, dtype: object

>  <hbond:GLU:85>  (49) 
hbond:GLU:85    NaN
hbond:GLU:85     -1
Name: 47, dtype: object

>  <halogenbond:GLU:85>  (49) 
halogenbond:GLU:85    NaN
halogenbond:GLU:85     -1
Name: 47, dtype: object

>  <saltbridge:GLU:85>  (49) 
saltbridge:GLU:85    NaN
saltbridge:GLU:85     -1
Name: 47, dtype: object

>  <halogenbond:ALA:86>  (49) 
halogenbond:ALA:86    NaN
halogenbond:ALA:86     -1
Name: 47, dtype: object

>  <hbond:ALA:86>  (49) 
hbond:ALA:86    NaN
hbond:ALA:86     -1
Name: 47, dtype: object

>  <hydroph_interaction:ALA:86>  (49) 
hydroph_interaction:ALA:86    NaN
hydroph_interaction:ALA:86     -1
Name: 47, dtype: object

>  <hbond:SER:87>  (49) 
hbond:SER:87    0
hbond:SER:87    0
Name: 47, dtype: object

>  <halogenbond:SER:87>  (49) 
halogenbond:SER:87    NaN
halogenbond:SER:87     -1
Name: 47, dtype: object

>  <hbond:GLU:88>  (49) 
hbond:GLU:88    1.0
hbond:GLU:88      1
Name: 47, dtype: object

>  <hydroph_interaction:GLU:88>  (49) 
hydroph_interaction:GLU:88    NaN
hydroph_interaction:GLU:88     -1
Name: 47, dtype: object

>  <halogenbond:GLU:88>  (49) 
halogenbond:GLU:88    NaN
halogenbond:GLU:88     -1
Name: 47, dtype: object

>  <saltbridge:GLU:88>  (49) 
saltbridge:GLU:88    NaN
saltbridge:GLU:88     -1
Name: 47, dtype: object

>  <hydroph_interaction:TYR:89>  (49) 
hydroph_interaction:TYR:89    0.0
hydroph_interaction:TYR:89      0
Name: 47, dtype: object

>  <pistack:TYR:89>  (49) 
pistack:TYR:89    0.0
pistack:TYR:89      0
Name: 47, dtype: object

>  <hbond:TYR:89>  (49) 
hbond:TYR:89    NaN
hbond:TYR:89     -1
Name: 47, dtype: object

>  <halogenbond:TYR:89>  (49) 
halogenbond:TYR:89    NaN
halogenbond:TYR:89     -1
Name: 47, dtype: object

>  <hydroph_interaction:TYR:90>  (49) 
hydroph_interaction:TYR:90    0.0
hydroph_interaction:TYR:90      0
Name: 47, dtype: object

>  <hbond:TYR:90>  (49) 
hbond:TYR:90    0.0
hbond:TYR:90      0
Name: 47, dtype: object

>  <pistack:TYR:90>  (49) 
pistack:TYR:90    NaN
pistack:TYR:90     -1
Name: 47, dtype: object

>  <halogenbond:TYR:90>  (49) 
halogenbond:TYR:90    NaN
halogenbond:TYR:90     -1
Name: 47, dtype: object

>  <pication:TYR:90>  (49) 
pication:TYR:90    NaN
pication:TYR:90     -1
Name: 47, dtype: object

>  <hbond:PRO:91>  (49) 
hbond:PRO:91    NaN
hbond:PRO:91     -1
Name: 47, dtype: object

>  <hydroph_interaction:PRO:91>  (49) 
hydroph_interaction:PRO:91    NaN
hydroph_interaction:PRO:91     -1
Name: 47, dtype: object

>  <halogenbond:PRO:91>  (49) 
halogenbond:PRO:91    NaN
halogenbond:PRO:91     -1
Name: 47, dtype: object

>  <hbond:ALA:92>  (49) 
hbond:ALA:92    NaN
hbond:ALA:92     -1
Name: 47, dtype: object

>  <hydroph_interaction:ALA:92>  (49) 
hydroph_interaction:ALA:92    NaN
hydroph_interaction:ALA:92     -1
Name: 47, dtype: object

>  <saltbridge:ARG:93>  (49) 
saltbridge:ARG:93    NaN
saltbridge:ARG:93     -1
Name: 47, dtype: object

>  <hbond:ARG:93>  (49) 
hbond:ARG:93    NaN
hbond:ARG:93     -1
Name: 47, dtype: object

>  <hydroph_interaction:ARG:93>  (49) 
hydroph_interaction:ARG:93    NaN
hydroph_interaction:ARG:93     -1
Name: 47, dtype: object

>  <halogenbond:ARG:93>  (49) 
halogenbond:ARG:93    NaN
halogenbond:ARG:93     -1
Name: 47, dtype: object

>  <pication:ARG:93>  (49) 
pication:ARG:93    NaN
pication:ARG:93     -1
Name: 47, dtype: object

>  <hydroph_interaction:TYR:94>  (49) 
hydroph_interaction:TYR:94    NaN
hydroph_interaction:TYR:94     -1
Name: 47, dtype: object

>  <pistack:TYR:94>  (49) 
pistack:TYR:94    NaN
pistack:TYR:94     -1
Name: 47, dtype: object

>  <hbond:TYR:94>  (49) 
hbond:TYR:94    NaN
hbond:TYR:94     -1
Name: 47, dtype: object

>  <hbond:GLN:95>  (49) 
hbond:GLN:95    NaN
hbond:GLN:95     -1
Name: 47, dtype: object

>  <hydroph_interaction:GLN:95>  (49) 
hydroph_interaction:GLN:95    NaN
hydroph_interaction:GLN:95     -1
Name: 47, dtype: object

>  <halogenbond:GLN:95>  (49) 
halogenbond:GLN:95    NaN
halogenbond:GLN:95     -1
Name: 47, dtype: object

>  <hbond:SER:96>  (49) 
hbond:SER:96    NaN
hbond:SER:96     -1
Name: 47, dtype: object

>  <halogenbond:HIS:97>  (49) 
halogenbond:HIS:97    NaN
halogenbond:HIS:97     -1
Name: 47, dtype: object

>  <hydroph_interaction:LEU:98>  (49) 
hydroph_interaction:LEU:98    NaN
hydroph_interaction:LEU:98     -1
Name: 47, dtype: object

>  <hbond:LEU:98>  (49) 
hbond:LEU:98    NaN
hbond:LEU:98     -1
Name: 47, dtype: object

>  <halogenbond:LEU:98>  (49) 
halogenbond:LEU:98    NaN
halogenbond:LEU:98     -1
Name: 47, dtype: object

>  <hbond:MET:99>  (49) 
hbond:MET:99    NaN
hbond:MET:99     -1
Name: 47, dtype: object

>  <hydroph_interaction:MET:99>  (49) 
hydroph_interaction:MET:99    NaN
hydroph_interaction:MET:99     -1
Name: 47, dtype: object

>  <halogenbond:MET:99>  (49) 
halogenbond:MET:99    NaN
halogenbond:MET:99     -1
Name: 47, dtype: object

>  <hydroph_interaction:LEU:100>  (49) 
hydroph_interaction:LEU:100    NaN
hydroph_interaction:LEU:100     -1
Name: 47, dtype: object

>  <hbond:LEU:100>  (49) 
hbond:LEU:100    NaN
hbond:LEU:100     -1
Name: 47, dtype: object

>  <hbond:ALA:101>  (49) 
hbond:ALA:101    NaN
hbond:ALA:101     -1
Name: 47, dtype: object

>  <hydroph_interaction:ALA:101>  (49) 
hydroph_interaction:ALA:101    NaN
hydroph_interaction:ALA:101     -1
Name: 47, dtype: object

>  <hydroph_interaction:VAL:102>  (49) 
hydroph_interaction:VAL:102    NaN
hydroph_interaction:VAL:102     -1
Name: 47, dtype: object

>  <hbond:VAL:102>  (49) 
hbond:VAL:102    NaN
hbond:VAL:102     -1
Name: 47, dtype: object

>  <hbond:GLY:103>  (49) 
hbond:GLY:103    NaN
hbond:GLY:103     -1
Name: 47, dtype: object

>  <halogenbond:GLY:103>  (49) 
halogenbond:GLY:103    NaN
halogenbond:GLY:103     -1
Name: 47, dtype: object

>  <hbond:HIS:104>  (49) 
hbond:HIS:104    NaN
hbond:HIS:104     -1
Name: 47, dtype: object

>  <saltbridge:HIS:104>  (49) 
saltbridge:HIS:104    NaN
saltbridge:HIS:104     -1
Name: 47, dtype: object

>  <pication:HIS:104>  (49) 
pication:HIS:104    NaN
pication:HIS:104     -1
Name: 47, dtype: object

>  <halogenbond:HIS:104>  (49) 
halogenbond:HIS:104    NaN
halogenbond:HIS:104     -1
Name: 47, dtype: object

>  <hydroph_interaction:HIS:104>  (49) 
hydroph_interaction:HIS:104    NaN
hydroph_interaction:HIS:104     -1
Name: 47, dtype: object

>  <pistack:HIS:104>  (49) 
pistack:HIS:104    NaN
pistack:HIS:104     -1
Name: 47, dtype: object

>  <halogenbond:SER:105>  (49) 
halogenbond:SER:105    0.0
halogenbond:SER:105      0
Name: 47, dtype: object

>  <hbond:SER:105>  (49) 
hbond:SER:105    0.0
hbond:SER:105      0
Name: 47, dtype: object

>  <hbond:GLU:106>  (49) 
hbond:GLU:106    0.0
hbond:GLU:106      0
Name: 47, dtype: object

>  <hydroph_interaction:GLU:106>  (49) 
hydroph_interaction:GLU:106    0.0
hydroph_interaction:GLU:106      0
Name: 47, dtype: object

>  <saltbridge:GLU:106>  (49) 
saltbridge:GLU:106    NaN
saltbridge:GLU:106     -1
Name: 47, dtype: object

>  <halogenbond:GLU:106>  (49) 
halogenbond:GLU:106    NaN
halogenbond:GLU:106     -1
Name: 47, dtype: object

>  <hydroph_interaction:PRO:107>  (49) 
hydroph_interaction:PRO:107    0
hydroph_interaction:PRO:107    0
Name: 47, dtype: object

>  <hbond:PRO:107>  (49) 
hbond:PRO:107    0.0
hbond:PRO:107      0
Name: 47, dtype: object

>  <halogenbond:PRO:107>  (49) 
halogenbond:PRO:107    NaN
halogenbond:PRO:107     -1
Name: 47, dtype: object

>  <hbond:GLY:108>  (49) 
hbond:GLY:108    NaN
hbond:GLY:108     -1
Name: 47, dtype: object

>  <halogenbond:GLY:108>  (49) 
halogenbond:GLY:108    NaN
halogenbond:GLY:108     -1
Name: 47, dtype: object

>  <hbond:ASP:109>  (49) 
hbond:ASP:109    0.0
hbond:ASP:109      0
Name: 47, dtype: object

>  <hydroph_interaction:ASP:109>  (49) 
hydroph_interaction:ASP:109    NaN
hydroph_interaction:ASP:109     -1
Name: 47, dtype: object

>  <saltbridge:ASP:109>  (49) 
saltbridge:ASP:109    NaN
saltbridge:ASP:109     -1
Name: 47, dtype: object

>  <halogenbond:CYS:110>  (49) 
halogenbond:CYS:110    NaN
halogenbond:CYS:110     -1
Name: 47, dtype: object

>  <hbond:CYS:110>  (49) 
hbond:CYS:110    0.0
hbond:CYS:110      0
Name: 47, dtype: object

>  <hbond:GLY:111>  (49) 
hbond:GLY:111    NaN
hbond:GLY:111     -1
Name: 47, dtype: object

>  <hbond:GLY:112>  (49) 
hbond:GLY:112    NaN
hbond:GLY:112     -1
Name: 47, dtype: object

>  <hbond:ILE:113>  (49) 
hbond:ILE:113    NaN
hbond:ILE:113     -1
Name: 47, dtype: object

>  <hydroph_interaction:LEU:114>  (49) 
hydroph_interaction:LEU:114    NaN
hydroph_interaction:LEU:114     -1
Name: 47, dtype: object

>  <hbond:LEU:114>  (49) 
hbond:LEU:114    NaN
hbond:LEU:114     -1
Name: 47, dtype: object

>  <hydroph_interaction:ILE:123>  (49) 
hydroph_interaction:ILE:123    NaN
hydroph_interaction:ILE:123     -1
Name: 47, dtype: object

>  <hbond:ILE:123>  (49) 
hbond:ILE:123    NaN
hbond:ILE:123     -1
Name: 47, dtype: object

>  <hydroph_interaction:VAL:124>  (49) 
hydroph_interaction:VAL:124    0.0
hydroph_interaction:VAL:124      0
Name: 47, dtype: object

>  <hbond:VAL:124>  (49) 
hbond:VAL:124    NaN
hbond:VAL:124     -1
Name: 47, dtype: object

>  <halogenbond:VAL:124>  (49) 
halogenbond:VAL:124    NaN
halogenbond:VAL:124     -1
Name: 47, dtype: object

>  <hbond:SER:125>  (49) 
hbond:SER:125    0
hbond:SER:125    0
Name: 47, dtype: object

>  <halogenbond:SER:125>  (49) 
halogenbond:SER:125    NaN
halogenbond:SER:125     -1
Name: 47, dtype: object

>  <hydroph_interaction:THR:126>  (49) 
hydroph_interaction:THR:126    NaN
hydroph_interaction:THR:126     -1
Name: 47, dtype: object

>  <hbond:THR:126>  (49) 
hbond:THR:126    0.0
hbond:THR:126      0
Name: 47, dtype: object

>  <halogenbond:THR:126>  (49) 
halogenbond:THR:126    NaN
halogenbond:THR:126     -1
Name: 47, dtype: object

>  <hbond:GLY:127>  (49) 
hbond:GLY:127    1
hbond:GLY:127    1
Name: 47, dtype: object

>  <halogenbond:GLY:127>  (49) 
halogenbond:GLY:127    NaN
halogenbond:GLY:127     -1
Name: 47, dtype: object

>  <hydroph_interaction:GLY:127>  (49) 
hydroph_interaction:GLY:127    NaN
hydroph_interaction:GLY:127     -1
Name: 47, dtype: object

>  <hbond:GLY:128>  (49) 
hbond:GLY:128    NaN
hbond:GLY:128     -1
Name: 47, dtype: object

>  <halogenbond:GLY:128>  (49) 
halogenbond:GLY:128    NaN
halogenbond:GLY:128     -1
Name: 47, dtype: object

>  <hydroph_interaction:GLY:128>  (49) 
hydroph_interaction:GLY:128    NaN
hydroph_interaction:GLY:128     -1
Name: 47, dtype: object

>  <hbond:ASN:129>  (49) 
hbond:ASN:129    NaN
hbond:ASN:129     -1
Name: 47, dtype: object

>  <hydroph_interaction:ASN:129>  (49) 
hydroph_interaction:ASN:129    NaN
hydroph_interaction:ASN:129     -1
Name: 47, dtype: object

>  <halogenbond:ASN:129>  (49) 
halogenbond:ASN:129    NaN
halogenbond:ASN:129     -1
Name: 47, dtype: object

>  <hbond:GLY:130>  (49) 
hbond:GLY:130    NaN
hbond:GLY:130     -1
Name: 47, dtype: object

>  <hbond:LEU:131>  (49) 
hbond:LEU:131    NaN
hbond:LEU:131     -1
Name: 47, dtype: object

>  <hydroph_interaction:LEU:131>  (49) 
hydroph_interaction:LEU:131    NaN
hydroph_interaction:LEU:131     -1
Name: 47, dtype: object

>  <halogenbond:LEU:131>  (49) 
halogenbond:LEU:131    NaN
halogenbond:LEU:131     -1
Name: 47, dtype: object

>  <hydroph_interaction:VAL:132>  (49) 
hydroph_interaction:VAL:132    0.0
hydroph_interaction:VAL:132      0
Name: 47, dtype: object

>  <hbond:VAL:132>  (49) 
hbond:VAL:132    NaN
hbond:VAL:132     -1
Name: 47, dtype: object

>  <hbond:GLY:133>  (49) 
hbond:GLY:133    NaN
hbond:GLY:133     -1
Name: 47, dtype: object

>  <halogenbond:GLY:133>  (49) 
halogenbond:GLY:133    NaN
halogenbond:GLY:133     -1
Name: 47, dtype: object

>  <hydroph_interaction:PHE:134>  (49) 
hydroph_interaction:PHE:134    NaN
hydroph_interaction:PHE:134     -1
Name: 47, dtype: object

>  <hbond:PHE:134>  (49) 
hbond:PHE:134    NaN
hbond:PHE:134     -1
Name: 47, dtype: object

>  <pistack:PHE:134>  (49) 
pistack:PHE:134    NaN
pistack:PHE:134     -1
Name: 47, dtype: object

>  <pication:PHE:134>  (49) 
pication:PHE:134    NaN
pication:PHE:134     -1
Name: 47, dtype: object

>  <halogenbond:PHE:134>  (49) 
halogenbond:PHE:134    NaN
halogenbond:PHE:134     -1
Name: 47, dtype: object

>  <hydroph_interaction:ALA:135>  (49) 
hydroph_interaction:ALA:135    NaN
hydroph_interaction:ALA:135     -1
Name: 47, dtype: object

>  <hbond:ALA:135>  (49) 
hbond:ALA:135    NaN
hbond:ALA:135     -1
Name: 47, dtype: object

$$$$
Z1585135757
     RDKit          3D

 17 17  0  0  0  0  0  0  0  0999 V2000
   34.2754    9.0488    5.1987 C   0  0  0  0  0  0  0  0  0  0  0  0
   33.2033    9.6987    6.0014 C   0  0  0  0  0  0  0  0  0  0  0  0
   32.2943    8.9936    6.9140 C   0  0  0  0  0  0  0  0  0  0  0  0
   31.3257    9.6795    7.6338 C   0  0  0  0  0  0  0  0  0  0  0  0
   30.4237    8.9458    8.5631 C   0  0  0  0  0  0  0  0  0  0  0  0
   31.2279   11.0661    7.4634 C   0  0  0  0  0  0  0  0  0  0  0  0
   30.2409   11.8519    8.1595 N   0  0  0  0  0  0  0  0  0  0  0  0
   29.2173   12.5089    7.5154 C   0  0  0  0  0  0  0  0  0  0  0  0
   29.1297   12.7542    6.3159 O   0  0  0  0  0  0  0  0  0  0  0  0
   28.3004   12.8636    8.4377 N   0  0  0  0  0  0  0  0  0  0  0  0
   27.8227   14.1247    8.2643 C   0  0  1  0  0  0  0  0  0  0  0  0
   27.4066   15.0334    9.3788 C   0  0  0  0  0  0  0  0  0  0  0  0
   28.9310   14.9075    7.6381 C   0  0  0  0  0  0  0  0  0  0  0  0
   29.9778   15.0007    8.6155 O   0  0  0  0  0  0  0  0  0  0  0  0
   32.1042   11.7290    6.5898 C   0  0  0  0  0  0  0  0  0  0  0  0
   32.0857   13.0935    6.3633 C   0  0  0  0  0  0  0  0  0  0  0  0
   33.0698   11.0442    5.8801 C   0  0  0  0  0  0  0  0  0  0  0  0
  1  2  1  0
  2  3  2  0
  3  4  1  0
  4  5  1  0
  4  6  2  0
  6  7  1  0
  7  8  1  0
  8  9  2  0
  8 10  1  0
 10 11  1  0
 11 12  1  1
 11 13  1  0
 13 14  1  0
  6 15  1  0
 15 16  1  0
 15 17  2  0
 17  2  1  0
A    1
 C1 
A    2
 C2 
A    3
 C3 
A    4
 C4 
A    5
 C5 
A    6
 C6 
A    7
 N1 
A    8
 C7 
A    9
 O1 
A   10
 N2 
A   11
 C8 
A   12
 C9 
A   13
 C10
A   14
 O2 
A   15
 C11
A   16
 C12
A   17
 C13
M  END
>  <ref_pdb>  (50) 
Ax0310a

>  <ref_mols>  (50) 
Ax0310a,Ax0528a

>  <original SMILES>  (50) 
Cc1cc(C)c(NC(=O)N[C@@H](C)CO)c(C)c1

>  <rationale>  (50) 
info halogenbond:C110+G127+D39+A86+S125+Q95+E106+E88+T126+P107+H104+Y64+C65+N129+F83+R93+L131+I82+G128+P91+N19+H21+V84+G133+Y90+Y89+H97+L81+F134+L98+R20+G103+S66+S67+S7+G108+R38+V124+M99+S36; hbond:S87+S125+Q95+G108+G103+L131+R68+R93+P91+F83+S67+S7+S66+G112+V132+R20+Y89+S77+A135+Y63+A92+A101+M99+F134+L100+I82+Y64+S36+L98+V84+L81+Y94+S80+R38+S37+V102+G8+I123+G111+I113+L114+C65+L22+S96; hydroph_interaction:V124+Y90+Y89+H21+L22+N129+N19+L40+I123+A135+Q95+I82+L100+L98+L131+F83+R93+F134+R20+A86+V74+P91+A101+F76+M99+L114+A92+Y94+R68+Y72+Y64+V18+V102+W28+G127+G128+L81; pication:H104+R93+Y63+F134+Y90+R68+F83+R20; pistack:Y89+H104+F134+Y63+F83+Y94; saltbridge:D39+R93+E106+D109+E85+E88+R68+R20; 

>  <intxn_cluster>  (50) 
-1

>  <intxn_cluster_rank>  (50) 
-1

>  <N_interactions>  (50) 
8

>  <∆∆G>  (50) 
-10.563231

>  <$/mg>  (50) 
0.0

>  <comRMSD>  (50) 
0.96211

>  <N_rotatable_bonds>  (50) 
8

>  <deep_P1_sidechain>  (50) 
nan

>  <farthest_distance_to_substrate>  (50) 
3.278848

>  <hbond:SER:7>  (50) 
hbond:SER:7    NaN
hbond:SER:7     -1
Name: 48, dtype: object

>  <halogenbond:SER:7>  (50) 
halogenbond:SER:7    NaN
halogenbond:SER:7     -1
Name: 48, dtype: object

>  <hbond:GLY:8>  (50) 
hbond:GLY:8    NaN
hbond:GLY:8     -1
Name: 48, dtype: object

>  <hydroph_interaction:VAL:18>  (50) 
hydroph_interaction:VAL:18    NaN
hydroph_interaction:VAL:18     -1
Name: 48, dtype: object

>  <hbond:ASN:19>  (50) 
hbond:ASN:19    0.0
hbond:ASN:19      0
Name: 48, dtype: object

>  <hydroph_interaction:ASN:19>  (50) 
hydroph_interaction:ASN:19    NaN
hydroph_interaction:ASN:19     -1
Name: 48, dtype: object

>  <halogenbond:ASN:19>  (50) 
halogenbond:ASN:19    NaN
halogenbond:ASN:19     -1
Name: 48, dtype: object

>  <hbond:ARG:20>  (50) 
hbond:ARG:20    NaN
hbond:ARG:20     -1
Name: 48, dtype: object

>  <hydroph_interaction:ARG:20>  (50) 
hydroph_interaction:ARG:20    NaN
hydroph_interaction:ARG:20     -1
Name: 48, dtype: object

>  <saltbridge:ARG:20>  (50) 
saltbridge:ARG:20    NaN
saltbridge:ARG:20     -1
Name: 48, dtype: object

>  <halogenbond:ARG:20>  (50) 
halogenbond:ARG:20    NaN
halogenbond:ARG:20     -1
Name: 48, dtype: object

>  <pication:ARG:20>  (50) 
pication:ARG:20    NaN
pication:ARG:20     -1
Name: 48, dtype: object

>  <hbond:HIS:21>  (50) 
hbond:HIS:21    0.0
hbond:HIS:21      0
Name: 48, dtype: object

>  <hydroph_interaction:HIS:21>  (50) 
hydroph_interaction:HIS:21    1.0
hydroph_interaction:HIS:21      1
Name: 48, dtype: object

>  <pistack:HIS:21>  (50) 
pistack:HIS:21    0.0
pistack:HIS:21      0
Name: 48, dtype: object

>  <pication:HIS:21>  (50) 
pication:HIS:21    0.0
pication:HIS:21      0
Name: 48, dtype: object

>  <saltbridge:HIS:21>  (50) 
saltbridge:HIS:21    0.0
saltbridge:HIS:21      0
Name: 48, dtype: object

>  <halogenbond:HIS:21>  (50) 
halogenbond:HIS:21    NaN
halogenbond:HIS:21     -1
Name: 48, dtype: object

>  <hydroph_interaction:LEU:22>  (50) 
hydroph_interaction:LEU:22    NaN
hydroph_interaction:LEU:22     -1
Name: 48, dtype: object

>  <hbond:LEU:22>  (50) 
hbond:LEU:22    NaN
hbond:LEU:22     -1
Name: 48, dtype: object

>  <hydroph_interaction:TRP:28>  (50) 
hydroph_interaction:TRP:28    NaN
hydroph_interaction:TRP:28     -1
Name: 48, dtype: object

>  <hbond:SER:36>  (50) 
hbond:SER:36    NaN
hbond:SER:36     -1
Name: 48, dtype: object

>  <halogenbond:SER:36>  (50) 
halogenbond:SER:36    NaN
halogenbond:SER:36     -1
Name: 48, dtype: object

>  <hbond:SER:37>  (50) 
hbond:SER:37    NaN
hbond:SER:37     -1
Name: 48, dtype: object

>  <hbond:ARG:38>  (50) 
hbond:ARG:38    NaN
hbond:ARG:38     -1
Name: 48, dtype: object

>  <halogenbond:ARG:38>  (50) 
halogenbond:ARG:38    NaN
halogenbond:ARG:38     -1
Name: 48, dtype: object

>  <saltbridge:ASP:39>  (50) 
saltbridge:ASP:39    NaN
saltbridge:ASP:39     -1
Name: 48, dtype: object

>  <halogenbond:ASP:39>  (50) 
halogenbond:ASP:39    NaN
halogenbond:ASP:39     -1
Name: 48, dtype: object

>  <hbond:ASP:39>  (50) 
hbond:ASP:39    0.0
hbond:ASP:39      0
Name: 48, dtype: object

>  <hydroph_interaction:ASP:39>  (50) 
hydroph_interaction:ASP:39    0.0
hydroph_interaction:ASP:39      0
Name: 48, dtype: object

>  <hydroph_interaction:LEU:40>  (50) 
hydroph_interaction:LEU:40    NaN
hydroph_interaction:LEU:40     -1
Name: 48, dtype: object

>  <hydroph_interaction:TYR:63>  (50) 
hydroph_interaction:TYR:63    0.0
hydroph_interaction:TYR:63      0
Name: 48, dtype: object

>  <hbond:TYR:63>  (50) 
hbond:TYR:63    NaN
hbond:TYR:63     -1
Name: 48, dtype: object

>  <pistack:TYR:63>  (50) 
pistack:TYR:63    NaN
pistack:TYR:63     -1
Name: 48, dtype: object

>  <pication:TYR:63>  (50) 
pication:TYR:63    NaN
pication:TYR:63     -1
Name: 48, dtype: object

>  <halogenbond:TYR:64>  (50) 
halogenbond:TYR:64    NaN
halogenbond:TYR:64     -1
Name: 48, dtype: object

>  <hbond:TYR:64>  (50) 
hbond:TYR:64    NaN
hbond:TYR:64     -1
Name: 48, dtype: object

>  <hydroph_interaction:TYR:64>  (50) 
hydroph_interaction:TYR:64    NaN
hydroph_interaction:TYR:64     -1
Name: 48, dtype: object

>  <halogenbond:CYS:65>  (50) 
halogenbond:CYS:65    NaN
halogenbond:CYS:65     -1
Name: 48, dtype: object

>  <hbond:CYS:65>  (50) 
hbond:CYS:65    NaN
hbond:CYS:65     -1
Name: 48, dtype: object

>  <hbond:SER:66>  (50) 
hbond:SER:66    NaN
hbond:SER:66     -1
Name: 48, dtype: object

>  <halogenbond:SER:66>  (50) 
halogenbond:SER:66    NaN
halogenbond:SER:66     -1
Name: 48, dtype: object

>  <hbond:SER:67>  (50) 
hbond:SER:67    NaN
hbond:SER:67     -1
Name: 48, dtype: object

>  <halogenbond:SER:67>  (50) 
halogenbond:SER:67    NaN
halogenbond:SER:67     -1
Name: 48, dtype: object

>  <hbond:ARG:68>  (50) 
hbond:ARG:68    NaN
hbond:ARG:68     -1
Name: 48, dtype: object

>  <saltbridge:ARG:68>  (50) 
saltbridge:ARG:68    NaN
saltbridge:ARG:68     -1
Name: 48, dtype: object

>  <hydroph_interaction:ARG:68>  (50) 
hydroph_interaction:ARG:68    NaN
hydroph_interaction:ARG:68     -1
Name: 48, dtype: object

>  <pication:ARG:68>  (50) 
pication:ARG:68    NaN
pication:ARG:68     -1
Name: 48, dtype: object

>  <hydroph_interaction:TYR:72>  (50) 
hydroph_interaction:TYR:72    NaN
hydroph_interaction:TYR:72     -1
Name: 48, dtype: object

>  <hydroph_interaction:VAL:74>  (50) 
hydroph_interaction:VAL:74    NaN
hydroph_interaction:VAL:74     -1
Name: 48, dtype: object

>  <hydroph_interaction:PHE:76>  (50) 
hydroph_interaction:PHE:76    NaN
hydroph_interaction:PHE:76     -1
Name: 48, dtype: object

>  <hbond:SER:77>  (50) 
hbond:SER:77    NaN
hbond:SER:77     -1
Name: 48, dtype: object

>  <hbond:SER:80>  (50) 
hbond:SER:80    NaN
hbond:SER:80     -1
Name: 48, dtype: object

>  <hbond:LEU:81>  (50) 
hbond:LEU:81    NaN
hbond:LEU:81     -1
Name: 48, dtype: object

>  <halogenbond:LEU:81>  (50) 
halogenbond:LEU:81    NaN
halogenbond:LEU:81     -1
Name: 48, dtype: object

>  <hydroph_interaction:LEU:81>  (50) 
hydroph_interaction:LEU:81    NaN
hydroph_interaction:LEU:81     -1
Name: 48, dtype: object

>  <hydroph_interaction:ILE:82>  (50) 
hydroph_interaction:ILE:82    NaN
hydroph_interaction:ILE:82     -1
Name: 48, dtype: object

>  <halogenbond:ILE:82>  (50) 
halogenbond:ILE:82    NaN
halogenbond:ILE:82     -1
Name: 48, dtype: object

>  <hbond:ILE:82>  (50) 
hbond:ILE:82    NaN
hbond:ILE:82     -1
Name: 48, dtype: object

>  <hbond:PHE:83>  (50) 
hbond:PHE:83    NaN
hbond:PHE:83     -1
Name: 48, dtype: object

>  <hydroph_interaction:PHE:83>  (50) 
hydroph_interaction:PHE:83    NaN
hydroph_interaction:PHE:83     -1
Name: 48, dtype: object

>  <halogenbond:PHE:83>  (50) 
halogenbond:PHE:83    NaN
halogenbond:PHE:83     -1
Name: 48, dtype: object

>  <pistack:PHE:83>  (50) 
pistack:PHE:83    NaN
pistack:PHE:83     -1
Name: 48, dtype: object

>  <pication:PHE:83>  (50) 
pication:PHE:83    NaN
pication:PHE:83     -1
Name: 48, dtype: object

>  <hydroph_interaction:VAL:84>  (50) 
hydroph_interaction:VAL:84    0.0
hydroph_interaction:VAL:84      0
Name: 48, dtype: object

>  <halogenbond:VAL:84>  (50) 
halogenbond:VAL:84    NaN
halogenbond:VAL:84     -1
Name: 48, dtype: object

>  <hbond:VAL:84>  (50) 
hbond:VAL:84    NaN
hbond:VAL:84     -1
Name: 48, dtype: object

>  <hydroph_interaction:GLU:85>  (50) 
hydroph_interaction:GLU:85    0.0
hydroph_interaction:GLU:85      0
Name: 48, dtype: object

>  <hbond:GLU:85>  (50) 
hbond:GLU:85    0.0
hbond:GLU:85      0
Name: 48, dtype: object

>  <halogenbond:GLU:85>  (50) 
halogenbond:GLU:85    0.0
halogenbond:GLU:85      0
Name: 48, dtype: object

>  <saltbridge:GLU:85>  (50) 
saltbridge:GLU:85    NaN
saltbridge:GLU:85     -1
Name: 48, dtype: object

>  <halogenbond:ALA:86>  (50) 
halogenbond:ALA:86    NaN
halogenbond:ALA:86     -1
Name: 48, dtype: object

>  <hbond:ALA:86>  (50) 
hbond:ALA:86    0.0
hbond:ALA:86      0
Name: 48, dtype: object

>  <hydroph_interaction:ALA:86>  (50) 
hydroph_interaction:ALA:86    NaN
hydroph_interaction:ALA:86     -1
Name: 48, dtype: object

>  <hbond:SER:87>  (50) 
hbond:SER:87    2
hbond:SER:87    2
Name: 48, dtype: object

>  <halogenbond:SER:87>  (50) 
halogenbond:SER:87    0.0
halogenbond:SER:87      0
Name: 48, dtype: object

>  <hbond:GLU:88>  (50) 
hbond:GLU:88    0.0
hbond:GLU:88      0
Name: 48, dtype: object

>  <hydroph_interaction:GLU:88>  (50) 
hydroph_interaction:GLU:88    0.0
hydroph_interaction:GLU:88      0
Name: 48, dtype: object

>  <halogenbond:GLU:88>  (50) 
halogenbond:GLU:88    NaN
halogenbond:GLU:88     -1
Name: 48, dtype: object

>  <saltbridge:GLU:88>  (50) 
saltbridge:GLU:88    NaN
saltbridge:GLU:88     -1
Name: 48, dtype: object

>  <hydroph_interaction:TYR:89>  (50) 
hydroph_interaction:TYR:89    1.0
hydroph_interaction:TYR:89      1
Name: 48, dtype: object

>  <pistack:TYR:89>  (50) 
pistack:TYR:89    NaN
pistack:TYR:89     -1
Name: 48, dtype: object

>  <hbond:TYR:89>  (50) 
hbond:TYR:89    NaN
hbond:TYR:89     -1
Name: 48, dtype: object

>  <halogenbond:TYR:89>  (50) 
halogenbond:TYR:89    NaN
halogenbond:TYR:89     -1
Name: 48, dtype: object

>  <hydroph_interaction:TYR:90>  (50) 
hydroph_interaction:TYR:90    1.0
hydroph_interaction:TYR:90      1
Name: 48, dtype: object

>  <hbond:TYR:90>  (50) 
hbond:TYR:90    0.0
hbond:TYR:90      0
Name: 48, dtype: object

>  <pistack:TYR:90>  (50) 
pistack:TYR:90    0.0
pistack:TYR:90      0
Name: 48, dtype: object

>  <halogenbond:TYR:90>  (50) 
halogenbond:TYR:90    NaN
halogenbond:TYR:90     -1
Name: 48, dtype: object

>  <pication:TYR:90>  (50) 
pication:TYR:90    NaN
pication:TYR:90     -1
Name: 48, dtype: object

>  <hbond:PRO:91>  (50) 
hbond:PRO:91    NaN
hbond:PRO:91     -1
Name: 48, dtype: object

>  <hydroph_interaction:PRO:91>  (50) 
hydroph_interaction:PRO:91    NaN
hydroph_interaction:PRO:91     -1
Name: 48, dtype: object

>  <halogenbond:PRO:91>  (50) 
halogenbond:PRO:91    NaN
halogenbond:PRO:91     -1
Name: 48, dtype: object

>  <hbond:ALA:92>  (50) 
hbond:ALA:92    NaN
hbond:ALA:92     -1
Name: 48, dtype: object

>  <hydroph_interaction:ALA:92>  (50) 
hydroph_interaction:ALA:92    NaN
hydroph_interaction:ALA:92     -1
Name: 48, dtype: object

>  <saltbridge:ARG:93>  (50) 
saltbridge:ARG:93    NaN
saltbridge:ARG:93     -1
Name: 48, dtype: object

>  <hbond:ARG:93>  (50) 
hbond:ARG:93    NaN
hbond:ARG:93     -1
Name: 48, dtype: object

>  <hydroph_interaction:ARG:93>  (50) 
hydroph_interaction:ARG:93    NaN
hydroph_interaction:ARG:93     -1
Name: 48, dtype: object

>  <halogenbond:ARG:93>  (50) 
halogenbond:ARG:93    NaN
halogenbond:ARG:93     -1
Name: 48, dtype: object

>  <pication:ARG:93>  (50) 
pication:ARG:93    NaN
pication:ARG:93     -1
Name: 48, dtype: object

>  <hydroph_interaction:TYR:94>  (50) 
hydroph_interaction:TYR:94    NaN
hydroph_interaction:TYR:94     -1
Name: 48, dtype: object

>  <pistack:TYR:94>  (50) 
pistack:TYR:94    NaN
pistack:TYR:94     -1
Name: 48, dtype: object

>  <hbond:TYR:94>  (50) 
hbond:TYR:94    NaN
hbond:TYR:94     -1
Name: 48, dtype: object

>  <hbond:GLN:95>  (50) 
hbond:GLN:95    NaN
hbond:GLN:95     -1
Name: 48, dtype: object

>  <hydroph_interaction:GLN:95>  (50) 
hydroph_interaction:GLN:95    NaN
hydroph_interaction:GLN:95     -1
Name: 48, dtype: object

>  <halogenbond:GLN:95>  (50) 
halogenbond:GLN:95    NaN
halogenbond:GLN:95     -1
Name: 48, dtype: object

>  <hbond:SER:96>  (50) 
hbond:SER:96    NaN
hbond:SER:96     -1
Name: 48, dtype: object

>  <halogenbond:HIS:97>  (50) 
halogenbond:HIS:97    NaN
halogenbond:HIS:97     -1
Name: 48, dtype: object

>  <hydroph_interaction:LEU:98>  (50) 
hydroph_interaction:LEU:98    NaN
hydroph_interaction:LEU:98     -1
Name: 48, dtype: object

>  <hbond:LEU:98>  (50) 
hbond:LEU:98    NaN
hbond:LEU:98     -1
Name: 48, dtype: object

>  <halogenbond:LEU:98>  (50) 
halogenbond:LEU:98    NaN
halogenbond:LEU:98     -1
Name: 48, dtype: object

>  <hbond:MET:99>  (50) 
hbond:MET:99    NaN
hbond:MET:99     -1
Name: 48, dtype: object

>  <hydroph_interaction:MET:99>  (50) 
hydroph_interaction:MET:99    NaN
hydroph_interaction:MET:99     -1
Name: 48, dtype: object

>  <halogenbond:MET:99>  (50) 
halogenbond:MET:99    NaN
halogenbond:MET:99     -1
Name: 48, dtype: object

>  <hydroph_interaction:LEU:100>  (50) 
hydroph_interaction:LEU:100    NaN
hydroph_interaction:LEU:100     -1
Name: 48, dtype: object

>  <hbond:LEU:100>  (50) 
hbond:LEU:100    NaN
hbond:LEU:100     -1
Name: 48, dtype: object

>  <hbond:ALA:101>  (50) 
hbond:ALA:101    NaN
hbond:ALA:101     -1
Name: 48, dtype: object

>  <hydroph_interaction:ALA:101>  (50) 
hydroph_interaction:ALA:101    NaN
hydroph_interaction:ALA:101     -1
Name: 48, dtype: object

>  <hydroph_interaction:VAL:102>  (50) 
hydroph_interaction:VAL:102    NaN
hydroph_interaction:VAL:102     -1
Name: 48, dtype: object

>  <hbond:VAL:102>  (50) 
hbond:VAL:102    NaN
hbond:VAL:102     -1
Name: 48, dtype: object

>  <hbond:GLY:103>  (50) 
hbond:GLY:103    NaN
hbond:GLY:103     -1
Name: 48, dtype: object

>  <halogenbond:GLY:103>  (50) 
halogenbond:GLY:103    NaN
halogenbond:GLY:103     -1
Name: 48, dtype: object

>  <hbond:HIS:104>  (50) 
hbond:HIS:104    0.0
hbond:HIS:104      0
Name: 48, dtype: object

>  <saltbridge:HIS:104>  (50) 
saltbridge:HIS:104    0.0
saltbridge:HIS:104      0
Name: 48, dtype: object

>  <pication:HIS:104>  (50) 
pication:HIS:104    NaN
pication:HIS:104     -1
Name: 48, dtype: object

>  <halogenbond:HIS:104>  (50) 
halogenbond:HIS:104    NaN
halogenbond:HIS:104     -1
Name: 48, dtype: object

>  <hydroph_interaction:HIS:104>  (50) 
hydroph_interaction:HIS:104    0.0
hydroph_interaction:HIS:104      0
Name: 48, dtype: object

>  <pistack:HIS:104>  (50) 
pistack:HIS:104    NaN
pistack:HIS:104     -1
Name: 48, dtype: object

>  <halogenbond:SER:105>  (50) 
halogenbond:SER:105    0.0
halogenbond:SER:105      0
Name: 48, dtype: object

>  <hbond:SER:105>  (50) 
hbond:SER:105    0.0
hbond:SER:105      0
Name: 48, dtype: object

>  <hbond:GLU:106>  (50) 
hbond:GLU:106    0.0
hbond:GLU:106      0
Name: 48, dtype: object

>  <hydroph_interaction:GLU:106>  (50) 
hydroph_interaction:GLU:106    0.0
hydroph_interaction:GLU:106      0
Name: 48, dtype: object

>  <saltbridge:GLU:106>  (50) 
saltbridge:GLU:106    NaN
saltbridge:GLU:106     -1
Name: 48, dtype: object

>  <halogenbond:GLU:106>  (50) 
halogenbond:GLU:106    NaN
halogenbond:GLU:106     -1
Name: 48, dtype: object

>  <hydroph_interaction:PRO:107>  (50) 
hydroph_interaction:PRO:107    0
hydroph_interaction:PRO:107    0
Name: 48, dtype: object

>  <hbond:PRO:107>  (50) 
hbond:PRO:107    0.0
hbond:PRO:107      0
Name: 48, dtype: object

>  <halogenbond:PRO:107>  (50) 
halogenbond:PRO:107    NaN
halogenbond:PRO:107     -1
Name: 48, dtype: object

>  <hbond:GLY:108>  (50) 
hbond:GLY:108    NaN
hbond:GLY:108     -1
Name: 48, dtype: object

>  <halogenbond:GLY:108>  (50) 
halogenbond:GLY:108    NaN
halogenbond:GLY:108     -1
Name: 48, dtype: object

>  <hbond:ASP:109>  (50) 
hbond:ASP:109    0.0
hbond:ASP:109      0
Name: 48, dtype: object

>  <hydroph_interaction:ASP:109>  (50) 
hydroph_interaction:ASP:109    0.0
hydroph_interaction:ASP:109      0
Name: 48, dtype: object

>  <saltbridge:ASP:109>  (50) 
saltbridge:ASP:109    NaN
saltbridge:ASP:109     -1
Name: 48, dtype: object

>  <halogenbond:CYS:110>  (50) 
halogenbond:CYS:110    NaN
halogenbond:CYS:110     -1
Name: 48, dtype: object

>  <hbond:CYS:110>  (50) 
hbond:CYS:110    0.0
hbond:CYS:110      0
Name: 48, dtype: object

>  <hbond:GLY:111>  (50) 
hbond:GLY:111    NaN
hbond:GLY:111     -1
Name: 48, dtype: object

>  <hbond:GLY:112>  (50) 
hbond:GLY:112    NaN
hbond:GLY:112     -1
Name: 48, dtype: object

>  <hbond:ILE:113>  (50) 
hbond:ILE:113    NaN
hbond:ILE:113     -1
Name: 48, dtype: object

>  <hydroph_interaction:LEU:114>  (50) 
hydroph_interaction:LEU:114    NaN
hydroph_interaction:LEU:114     -1
Name: 48, dtype: object

>  <hbond:LEU:114>  (50) 
hbond:LEU:114    NaN
hbond:LEU:114     -1
Name: 48, dtype: object

>  <hydroph_interaction:ILE:123>  (50) 
hydroph_interaction:ILE:123    NaN
hydroph_interaction:ILE:123     -1
Name: 48, dtype: object

>  <hbond:ILE:123>  (50) 
hbond:ILE:123    NaN
hbond:ILE:123     -1
Name: 48, dtype: object

>  <hydroph_interaction:VAL:124>  (50) 
hydroph_interaction:VAL:124    1.0
hydroph_interaction:VAL:124      1
Name: 48, dtype: object

>  <hbond:VAL:124>  (50) 
hbond:VAL:124    0.0
hbond:VAL:124      0
Name: 48, dtype: object

>  <halogenbond:VAL:124>  (50) 
halogenbond:VAL:124    NaN
halogenbond:VAL:124     -1
Name: 48, dtype: object

>  <hbond:SER:125>  (50) 
hbond:SER:125    2
hbond:SER:125    2
Name: 48, dtype: object

>  <halogenbond:SER:125>  (50) 
halogenbond:SER:125    NaN
halogenbond:SER:125     -1
Name: 48, dtype: object

>  <hydroph_interaction:THR:126>  (50) 
hydroph_interaction:THR:126    0.0
hydroph_interaction:THR:126      0
Name: 48, dtype: object

>  <hbond:THR:126>  (50) 
hbond:THR:126    0.0
hbond:THR:126      0
Name: 48, dtype: object

>  <halogenbond:THR:126>  (50) 
halogenbond:THR:126    NaN
halogenbond:THR:126     -1
Name: 48, dtype: object

>  <hbond:GLY:127>  (50) 
hbond:GLY:127    0
hbond:GLY:127    0
Name: 48, dtype: object

>  <halogenbond:GLY:127>  (50) 
halogenbond:GLY:127    NaN
halogenbond:GLY:127     -1
Name: 48, dtype: object

>  <hydroph_interaction:GLY:127>  (50) 
hydroph_interaction:GLY:127    NaN
hydroph_interaction:GLY:127     -1
Name: 48, dtype: object

>  <hbond:GLY:128>  (50) 
hbond:GLY:128    0.0
hbond:GLY:128      0
Name: 48, dtype: object

>  <halogenbond:GLY:128>  (50) 
halogenbond:GLY:128    NaN
halogenbond:GLY:128     -1
Name: 48, dtype: object

>  <hydroph_interaction:GLY:128>  (50) 
hydroph_interaction:GLY:128    NaN
hydroph_interaction:GLY:128     -1
Name: 48, dtype: object

>  <hbond:ASN:129>  (50) 
hbond:ASN:129    0.0
hbond:ASN:129      0
Name: 48, dtype: object

>  <hydroph_interaction:ASN:129>  (50) 
hydroph_interaction:ASN:129    NaN
hydroph_interaction:ASN:129     -1
Name: 48, dtype: object

>  <halogenbond:ASN:129>  (50) 
halogenbond:ASN:129    NaN
halogenbond:ASN:129     -1
Name: 48, dtype: object

>  <hbond:GLY:130>  (50) 
hbond:GLY:130    0.0
hbond:GLY:130      0
Name: 48, dtype: object

>  <hbond:LEU:131>  (50) 
hbond:LEU:131    NaN
hbond:LEU:131     -1
Name: 48, dtype: object

>  <hydroph_interaction:LEU:131>  (50) 
hydroph_interaction:LEU:131    NaN
hydroph_interaction:LEU:131     -1
Name: 48, dtype: object

>  <halogenbond:LEU:131>  (50) 
halogenbond:LEU:131    NaN
halogenbond:LEU:131     -1
Name: 48, dtype: object

>  <hydroph_interaction:VAL:132>  (50) 
hydroph_interaction:VAL:132    0.0
hydroph_interaction:VAL:132      0
Name: 48, dtype: object

>  <hbond:VAL:132>  (50) 
hbond:VAL:132    NaN
hbond:VAL:132     -1
Name: 48, dtype: object

>  <hbond:GLY:133>  (50) 
hbond:GLY:133    0.0
hbond:GLY:133      0
Name: 48, dtype: object

>  <halogenbond:GLY:133>  (50) 
halogenbond:GLY:133    NaN
halogenbond:GLY:133     -1
Name: 48, dtype: object

>  <hydroph_interaction:PHE:134>  (50) 
hydroph_interaction:PHE:134    NaN
hydroph_interaction:PHE:134     -1
Name: 48, dtype: object

>  <hbond:PHE:134>  (50) 
hbond:PHE:134    NaN
hbond:PHE:134     -1
Name: 48, dtype: object

>  <pistack:PHE:134>  (50) 
pistack:PHE:134    NaN
pistack:PHE:134     -1
Name: 48, dtype: object

>  <pication:PHE:134>  (50) 
pication:PHE:134    NaN
pication:PHE:134     -1
Name: 48, dtype: object

>  <halogenbond:PHE:134>  (50) 
halogenbond:PHE:134    NaN
halogenbond:PHE:134     -1
Name: 48, dtype: object

>  <hydroph_interaction:ALA:135>  (50) 
hydroph_interaction:ALA:135    NaN
hydroph_interaction:ALA:135     -1
Name: 48, dtype: object

>  <hbond:ALA:135>  (50) 
hbond:ALA:135    NaN
hbond:ALA:135     -1
Name: 48, dtype: object

$$$$
Z3576392937
     RDKit          3D

 16 16  0  0  0  0  0  0  0  0999 V2000
   27.8152   15.1133    9.1919 C   0  0  0  0  0  0  0  0  0  0  0  0
   28.6626   15.1192    7.9698 C   0  0  0  0  0  0  0  0  0  0  0  0
   28.3316   14.3626    6.9145 C   0  0  1  0  0  0  0  0  0  0  0  0
   28.9780   14.8469    5.7592 O   0  0  0  0  0  0  0  0  0  0  0  0
   28.5009   12.8944    6.9324 C   0  0  0  0  0  0  0  0  0  0  0  0
   27.5878   12.1009    6.9656 O   0  0  0  0  0  0  0  0  0  0  0  0
   29.8268   12.6119    6.8511 O   0  0  0  0  0  0  0  0  0  0  0  0
   30.3872   11.9291    7.9622 C   0  0  0  0  0  0  0  0  0  0  0  0
   31.2579   10.8692    7.4276 C   0  0  0  0  0  0  0  0  0  0  0  0
   32.3799   10.9809    6.4044 C   0  0  0  0  0  0  0  0  0  0  0  0
   33.0129   12.3076    5.5523 Cl  0  0  0  0  0  0  0  0  0  0  0  0
   32.8679    9.7355    6.2455 N   0  0  0  0  0  0  0  0  0  0  0  0
   33.9528    9.3264    5.3831 C   0  0  0  0  0  0  0  0  0  0  0  0
   32.2299    8.8216    7.0124 N   0  0  0  0  0  0  0  0  0  0  0  0
   31.2736    9.4881    7.7297 C   0  0  0  0  0  0  0  0  0  0  0  0
   30.3836    8.7560    8.7158 C   0  0  0  0  0  0  0  0  0  0  0  0
  1  2  1  0
  2  3  1  0
  3  4  1  6
  3  5  1  0
  5  6  2  0
  5  7  1  0
  7  8  1  0
  8  9  1  0
  9 10  2  0
 10 11  1  0
 10 12  1  0
 12 13  1  0
 12 14  1  0
 14 15  2  0
 15 16  1  0
 15  9  1  0
A    1
 C1 
A    2
 C2 
A    3
 C3 
A    4
 O1 
A    5
 C4 
A    6
 O2 
A    7
 O3 
A    8
 C5 
A    9
 C6 
A   10
 C7 
A   11
CL1 
A   12
 N1 
A   13
 C8 
A   14
 N2 
A   15
 C9 
A   16
 C10
M  END
>  <ref_pdb>  (51) 
Ax0310a

>  <ref_mols>  (51) 
Ax0310a,Ax0451a,Ax0719a

>  <original SMILES>  (51) 
CC[C@@H](O)C(=O)OCc1c(C)nn(C)c1Cl

>  <rationale>  (51) 
info halogenbond:G127+A86+E85+E106+T126+H104+Y64+C65+S87+N129+F83+R93+L131+I82+G128+P91+N19+H21+V84+G133+Y90+Y89+H97+L81+F134+L98+R20+G103+S66+S67+S7+G108+R38+V124+M99+S36; hbond:E88+Q95+A86+C110+D109+G108+G103+G128+G130+L131+N129+N19+H104+R68+V124+R93+P91+F83+S67+S7+S66+G112+G133+V132+R20+Y89+S77+A135+Y63+A92+A101+M99+F134+L100+I82+Y64+S36+L98+V84+L81+Y94+S80+R38+S37+V102+G8+I123+G111+I113+L114+C65+L22+S96; hydroph_interaction:V124+Y90+Y89+E106+D109+N129+D39+N19+L40+I123+A135+Q95+I82+L100+L98+L131+F83+R93+V132+Y63+F134+H104+R20+A86+V74+P91+A101+F76+M99+L114+A92+Y94+R68+Y72+Y64+V18+V102+W28+G127+G128+L81; pication:H104+R93+Y63+F134+Y90+R68+F83+R20; pistack:Y89+Y90+H104+F134+Y63+F83+Y94; saltbridge:H21+R93+H104+E106+D109+E85+E88+R68+R20; 

>  <intxn_cluster>  (51) 
-1

>  <intxn_cluster_rank>  (51) 
-1

>  <N_interactions>  (51) 
6

>  <∆∆G>  (51) 
-9.908491

>  <$/mg>  (51) 
0.0

>  <comRMSD>  (51) 
0.865637

>  <N_rotatable_bonds>  (51) 
8

>  <deep_P1_sidechain>  (51) 
nan

>  <farthest_distance_to_substrate>  (51) 
2.879321

>  <hbond:SER:7>  (51) 
hbond:SER:7    NaN
hbond:SER:7     -1
Name: 49, dtype: object

>  <halogenbond:SER:7>  (51) 
halogenbond:SER:7    NaN
halogenbond:SER:7     -1
Name: 49, dtype: object

>  <hbond:GLY:8>  (51) 
hbond:GLY:8    NaN
hbond:GLY:8     -1
Name: 49, dtype: object

>  <hydroph_interaction:VAL:18>  (51) 
hydroph_interaction:VAL:18    NaN
hydroph_interaction:VAL:18     -1
Name: 49, dtype: object

>  <hbond:ASN:19>  (51) 
hbond:ASN:19    NaN
hbond:ASN:19     -1
Name: 49, dtype: object

>  <hydroph_interaction:ASN:19>  (51) 
hydroph_interaction:ASN:19    NaN
hydroph_interaction:ASN:19     -1
Name: 49, dtype: object

>  <halogenbond:ASN:19>  (51) 
halogenbond:ASN:19    NaN
halogenbond:ASN:19     -1
Name: 49, dtype: object

>  <hbond:ARG:20>  (51) 
hbond:ARG:20    NaN
hbond:ARG:20     -1
Name: 49, dtype: object

>  <hydroph_interaction:ARG:20>  (51) 
hydroph_interaction:ARG:20    NaN
hydroph_interaction:ARG:20     -1
Name: 49, dtype: object

>  <saltbridge:ARG:20>  (51) 
saltbridge:ARG:20    NaN
saltbridge:ARG:20     -1
Name: 49, dtype: object

>  <halogenbond:ARG:20>  (51) 
halogenbond:ARG:20    NaN
halogenbond:ARG:20     -1
Name: 49, dtype: object

>  <pication:ARG:20>  (51) 
pication:ARG:20    NaN
pication:ARG:20     -1
Name: 49, dtype: object

>  <hbond:HIS:21>  (51) 
hbond:HIS:21    0.0
hbond:HIS:21      0
Name: 49, dtype: object

>  <hydroph_interaction:HIS:21>  (51) 
hydroph_interaction:HIS:21    0.0
hydroph_interaction:HIS:21      0
Name: 49, dtype: object

>  <pistack:HIS:21>  (51) 
pistack:HIS:21    0.0
pistack:HIS:21      0
Name: 49, dtype: object

>  <pication:HIS:21>  (51) 
pication:HIS:21    0.0
pication:HIS:21      0
Name: 49, dtype: object

>  <saltbridge:HIS:21>  (51) 
saltbridge:HIS:21    1.0
saltbridge:HIS:21      1
Name: 49, dtype: object

>  <halogenbond:HIS:21>  (51) 
halogenbond:HIS:21    NaN
halogenbond:HIS:21     -1
Name: 49, dtype: object

>  <hydroph_interaction:LEU:22>  (51) 
hydroph_interaction:LEU:22    0.0
hydroph_interaction:LEU:22      0
Name: 49, dtype: object

>  <hbond:LEU:22>  (51) 
hbond:LEU:22    NaN
hbond:LEU:22     -1
Name: 49, dtype: object

>  <hydroph_interaction:TRP:28>  (51) 
hydroph_interaction:TRP:28    NaN
hydroph_interaction:TRP:28     -1
Name: 49, dtype: object

>  <hbond:SER:36>  (51) 
hbond:SER:36    NaN
hbond:SER:36     -1
Name: 49, dtype: object

>  <halogenbond:SER:36>  (51) 
halogenbond:SER:36    NaN
halogenbond:SER:36     -1
Name: 49, dtype: object

>  <hbond:SER:37>  (51) 
hbond:SER:37    NaN
hbond:SER:37     -1
Name: 49, dtype: object

>  <hbond:ARG:38>  (51) 
hbond:ARG:38    NaN
hbond:ARG:38     -1
Name: 49, dtype: object

>  <halogenbond:ARG:38>  (51) 
halogenbond:ARG:38    NaN
halogenbond:ARG:38     -1
Name: 49, dtype: object

>  <saltbridge:ASP:39>  (51) 
saltbridge:ASP:39    0.0
saltbridge:ASP:39      0
Name: 49, dtype: object

>  <halogenbond:ASP:39>  (51) 
halogenbond:ASP:39    0.0
halogenbond:ASP:39      0
Name: 49, dtype: object

>  <hbond:ASP:39>  (51) 
hbond:ASP:39    0.0
hbond:ASP:39      0
Name: 49, dtype: object

>  <hydroph_interaction:ASP:39>  (51) 
hydroph_interaction:ASP:39    NaN
hydroph_interaction:ASP:39     -1
Name: 49, dtype: object

>  <hydroph_interaction:LEU:40>  (51) 
hydroph_interaction:LEU:40    NaN
hydroph_interaction:LEU:40     -1
Name: 49, dtype: object

>  <hydroph_interaction:TYR:63>  (51) 
hydroph_interaction:TYR:63    NaN
hydroph_interaction:TYR:63     -1
Name: 49, dtype: object

>  <hbond:TYR:63>  (51) 
hbond:TYR:63    NaN
hbond:TYR:63     -1
Name: 49, dtype: object

>  <pistack:TYR:63>  (51) 
pistack:TYR:63    NaN
pistack:TYR:63     -1
Name: 49, dtype: object

>  <pication:TYR:63>  (51) 
pication:TYR:63    NaN
pication:TYR:63     -1
Name: 49, dtype: object

>  <halogenbond:TYR:64>  (51) 
halogenbond:TYR:64    NaN
halogenbond:TYR:64     -1
Name: 49, dtype: object

>  <hbond:TYR:64>  (51) 
hbond:TYR:64    NaN
hbond:TYR:64     -1
Name: 49, dtype: object

>  <hydroph_interaction:TYR:64>  (51) 
hydroph_interaction:TYR:64    NaN
hydroph_interaction:TYR:64     -1
Name: 49, dtype: object

>  <halogenbond:CYS:65>  (51) 
halogenbond:CYS:65    NaN
halogenbond:CYS:65     -1
Name: 49, dtype: object

>  <hbond:CYS:65>  (51) 
hbond:CYS:65    NaN
hbond:CYS:65     -1
Name: 49, dtype: object

>  <hbond:SER:66>  (51) 
hbond:SER:66    NaN
hbond:SER:66     -1
Name: 49, dtype: object

>  <halogenbond:SER:66>  (51) 
halogenbond:SER:66    NaN
halogenbond:SER:66     -1
Name: 49, dtype: object

>  <hbond:SER:67>  (51) 
hbond:SER:67    NaN
hbond:SER:67     -1
Name: 49, dtype: object

>  <halogenbond:SER:67>  (51) 
halogenbond:SER:67    NaN
halogenbond:SER:67     -1
Name: 49, dtype: object

>  <hbond:ARG:68>  (51) 
hbond:ARG:68    NaN
hbond:ARG:68     -1
Name: 49, dtype: object

>  <saltbridge:ARG:68>  (51) 
saltbridge:ARG:68    NaN
saltbridge:ARG:68     -1
Name: 49, dtype: object

>  <hydroph_interaction:ARG:68>  (51) 
hydroph_interaction:ARG:68    NaN
hydroph_interaction:ARG:68     -1
Name: 49, dtype: object

>  <pication:ARG:68>  (51) 
pication:ARG:68    NaN
pication:ARG:68     -1
Name: 49, dtype: object

>  <hydroph_interaction:TYR:72>  (51) 
hydroph_interaction:TYR:72    NaN
hydroph_interaction:TYR:72     -1
Name: 49, dtype: object

>  <hydroph_interaction:VAL:74>  (51) 
hydroph_interaction:VAL:74    NaN
hydroph_interaction:VAL:74     -1
Name: 49, dtype: object

>  <hydroph_interaction:PHE:76>  (51) 
hydroph_interaction:PHE:76    NaN
hydroph_interaction:PHE:76     -1
Name: 49, dtype: object

>  <hbond:SER:77>  (51) 
hbond:SER:77    NaN
hbond:SER:77     -1
Name: 49, dtype: object

>  <hbond:SER:80>  (51) 
hbond:SER:80    NaN
hbond:SER:80     -1
Name: 49, dtype: object

>  <hbond:LEU:81>  (51) 
hbond:LEU:81    NaN
hbond:LEU:81     -1
Name: 49, dtype: object

>  <halogenbond:LEU:81>  (51) 
halogenbond:LEU:81    NaN
halogenbond:LEU:81     -1
Name: 49, dtype: object

>  <hydroph_interaction:LEU:81>  (51) 
hydroph_interaction:LEU:81    NaN
hydroph_interaction:LEU:81     -1
Name: 49, dtype: object

>  <hydroph_interaction:ILE:82>  (51) 
hydroph_interaction:ILE:82    NaN
hydroph_interaction:ILE:82     -1
Name: 49, dtype: object

>  <halogenbond:ILE:82>  (51) 
halogenbond:ILE:82    NaN
halogenbond:ILE:82     -1
Name: 49, dtype: object

>  <hbond:ILE:82>  (51) 
hbond:ILE:82    NaN
hbond:ILE:82     -1
Name: 49, dtype: object

>  <hbond:PHE:83>  (51) 
hbond:PHE:83    NaN
hbond:PHE:83     -1
Name: 49, dtype: object

>  <hydroph_interaction:PHE:83>  (51) 
hydroph_interaction:PHE:83    NaN
hydroph_interaction:PHE:83     -1
Name: 49, dtype: object

>  <halogenbond:PHE:83>  (51) 
halogenbond:PHE:83    NaN
halogenbond:PHE:83     -1
Name: 49, dtype: object

>  <pistack:PHE:83>  (51) 
pistack:PHE:83    NaN
pistack:PHE:83     -1
Name: 49, dtype: object

>  <pication:PHE:83>  (51) 
pication:PHE:83    NaN
pication:PHE:83     -1
Name: 49, dtype: object

>  <hydroph_interaction:VAL:84>  (51) 
hydroph_interaction:VAL:84    0.0
hydroph_interaction:VAL:84      0
Name: 49, dtype: object

>  <halogenbond:VAL:84>  (51) 
halogenbond:VAL:84    NaN
halogenbond:VAL:84     -1
Name: 49, dtype: object

>  <hbond:VAL:84>  (51) 
hbond:VAL:84    NaN
hbond:VAL:84     -1
Name: 49, dtype: object

>  <hydroph_interaction:GLU:85>  (51) 
hydroph_interaction:GLU:85    0.0
hydroph_interaction:GLU:85      0
Name: 49, dtype: object

>  <hbond:GLU:85>  (51) 
hbond:GLU:85    0.0
hbond:GLU:85      0
Name: 49, dtype: object

>  <halogenbond:GLU:85>  (51) 
halogenbond:GLU:85    NaN
halogenbond:GLU:85     -1
Name: 49, dtype: object

>  <saltbridge:GLU:85>  (51) 
saltbridge:GLU:85    NaN
saltbridge:GLU:85     -1
Name: 49, dtype: object

>  <halogenbond:ALA:86>  (51) 
halogenbond:ALA:86    NaN
halogenbond:ALA:86     -1
Name: 49, dtype: object

>  <hbond:ALA:86>  (51) 
hbond:ALA:86    NaN
hbond:ALA:86     -1
Name: 49, dtype: object

>  <hydroph_interaction:ALA:86>  (51) 
hydroph_interaction:ALA:86    NaN
hydroph_interaction:ALA:86     -1
Name: 49, dtype: object

>  <hbond:SER:87>  (51) 
hbond:SER:87    0
hbond:SER:87    0
Name: 49, dtype: object

>  <halogenbond:SER:87>  (51) 
halogenbond:SER:87    NaN
halogenbond:SER:87     -1
Name: 49, dtype: object

>  <hbond:GLU:88>  (51) 
hbond:GLU:88    2.0
hbond:GLU:88      2
Name: 49, dtype: object

>  <hydroph_interaction:GLU:88>  (51) 
hydroph_interaction:GLU:88    0.0
hydroph_interaction:GLU:88      0
Name: 49, dtype: object

>  <halogenbond:GLU:88>  (51) 
halogenbond:GLU:88    0.0
halogenbond:GLU:88      0
Name: 49, dtype: object

>  <saltbridge:GLU:88>  (51) 
saltbridge:GLU:88    NaN
saltbridge:GLU:88     -1
Name: 49, dtype: object

>  <hydroph_interaction:TYR:89>  (51) 
hydroph_interaction:TYR:89    1.0
hydroph_interaction:TYR:89      1
Name: 49, dtype: object

>  <pistack:TYR:89>  (51) 
pistack:TYR:89    NaN
pistack:TYR:89     -1
Name: 49, dtype: object

>  <hbond:TYR:89>  (51) 
hbond:TYR:89    NaN
hbond:TYR:89     -1
Name: 49, dtype: object

>  <halogenbond:TYR:89>  (51) 
halogenbond:TYR:89    NaN
halogenbond:TYR:89     -1
Name: 49, dtype: object

>  <hydroph_interaction:TYR:90>  (51) 
hydroph_interaction:TYR:90    1.0
hydroph_interaction:TYR:90      1
Name: 49, dtype: object

>  <hbond:TYR:90>  (51) 
hbond:TYR:90    0.0
hbond:TYR:90      0
Name: 49, dtype: object

>  <pistack:TYR:90>  (51) 
pistack:TYR:90    NaN
pistack:TYR:90     -1
Name: 49, dtype: object

>  <halogenbond:TYR:90>  (51) 
halogenbond:TYR:90    NaN
halogenbond:TYR:90     -1
Name: 49, dtype: object

>  <pication:TYR:90>  (51) 
pication:TYR:90    NaN
pication:TYR:90     -1
Name: 49, dtype: object

>  <hbond:PRO:91>  (51) 
hbond:PRO:91    NaN
hbond:PRO:91     -1
Name: 49, dtype: object

>  <hydroph_interaction:PRO:91>  (51) 
hydroph_interaction:PRO:91    NaN
hydroph_interaction:PRO:91     -1
Name: 49, dtype: object

>  <halogenbond:PRO:91>  (51) 
halogenbond:PRO:91    NaN
halogenbond:PRO:91     -1
Name: 49, dtype: object

>  <hbond:ALA:92>  (51) 
hbond:ALA:92    NaN
hbond:ALA:92     -1
Name: 49, dtype: object

>  <hydroph_interaction:ALA:92>  (51) 
hydroph_interaction:ALA:92    NaN
hydroph_interaction:ALA:92     -1
Name: 49, dtype: object

>  <saltbridge:ARG:93>  (51) 
saltbridge:ARG:93    NaN
saltbridge:ARG:93     -1
Name: 49, dtype: object

>  <hbond:ARG:93>  (51) 
hbond:ARG:93    NaN
hbond:ARG:93     -1
Name: 49, dtype: object

>  <hydroph_interaction:ARG:93>  (51) 
hydroph_interaction:ARG:93    NaN
hydroph_interaction:ARG:93     -1
Name: 49, dtype: object

>  <halogenbond:ARG:93>  (51) 
halogenbond:ARG:93    NaN
halogenbond:ARG:93     -1
Name: 49, dtype: object

>  <pication:ARG:93>  (51) 
pication:ARG:93    NaN
pication:ARG:93     -1
Name: 49, dtype: object

>  <hydroph_interaction:TYR:94>  (51) 
hydroph_interaction:TYR:94    NaN
hydroph_interaction:TYR:94     -1
Name: 49, dtype: object

>  <pistack:TYR:94>  (51) 
pistack:TYR:94    NaN
pistack:TYR:94     -1
Name: 49, dtype: object

>  <hbond:TYR:94>  (51) 
hbond:TYR:94    NaN
hbond:TYR:94     -1
Name: 49, dtype: object

>  <hbond:GLN:95>  (51) 
hbond:GLN:95    NaN
hbond:GLN:95     -1
Name: 49, dtype: object

>  <hydroph_interaction:GLN:95>  (51) 
hydroph_interaction:GLN:95    NaN
hydroph_interaction:GLN:95     -1
Name: 49, dtype: object

>  <halogenbond:GLN:95>  (51) 
halogenbond:GLN:95    0.0
halogenbond:GLN:95      0
Name: 49, dtype: object

>  <hbond:SER:96>  (51) 
hbond:SER:96    NaN
hbond:SER:96     -1
Name: 49, dtype: object

>  <halogenbond:HIS:97>  (51) 
halogenbond:HIS:97    NaN
halogenbond:HIS:97     -1
Name: 49, dtype: object

>  <hydroph_interaction:LEU:98>  (51) 
hydroph_interaction:LEU:98    NaN
hydroph_interaction:LEU:98     -1
Name: 49, dtype: object

>  <hbond:LEU:98>  (51) 
hbond:LEU:98    NaN
hbond:LEU:98     -1
Name: 49, dtype: object

>  <halogenbond:LEU:98>  (51) 
halogenbond:LEU:98    NaN
halogenbond:LEU:98     -1
Name: 49, dtype: object

>  <hbond:MET:99>  (51) 
hbond:MET:99    NaN
hbond:MET:99     -1
Name: 49, dtype: object

>  <hydroph_interaction:MET:99>  (51) 
hydroph_interaction:MET:99    NaN
hydroph_interaction:MET:99     -1
Name: 49, dtype: object

>  <halogenbond:MET:99>  (51) 
halogenbond:MET:99    NaN
halogenbond:MET:99     -1
Name: 49, dtype: object

>  <hydroph_interaction:LEU:100>  (51) 
hydroph_interaction:LEU:100    NaN
hydroph_interaction:LEU:100     -1
Name: 49, dtype: object

>  <hbond:LEU:100>  (51) 
hbond:LEU:100    NaN
hbond:LEU:100     -1
Name: 49, dtype: object

>  <hbond:ALA:101>  (51) 
hbond:ALA:101    NaN
hbond:ALA:101     -1
Name: 49, dtype: object

>  <hydroph_interaction:ALA:101>  (51) 
hydroph_interaction:ALA:101    NaN
hydroph_interaction:ALA:101     -1
Name: 49, dtype: object

>  <hydroph_interaction:VAL:102>  (51) 
hydroph_interaction:VAL:102    NaN
hydroph_interaction:VAL:102     -1
Name: 49, dtype: object

>  <hbond:VAL:102>  (51) 
hbond:VAL:102    NaN
hbond:VAL:102     -1
Name: 49, dtype: object

>  <hbond:GLY:103>  (51) 
hbond:GLY:103    NaN
hbond:GLY:103     -1
Name: 49, dtype: object

>  <halogenbond:GLY:103>  (51) 
halogenbond:GLY:103    NaN
halogenbond:GLY:103     -1
Name: 49, dtype: object

>  <hbond:HIS:104>  (51) 
hbond:HIS:104    NaN
hbond:HIS:104     -1
Name: 49, dtype: object

>  <saltbridge:HIS:104>  (51) 
saltbridge:HIS:104    NaN
saltbridge:HIS:104     -1
Name: 49, dtype: object

>  <pication:HIS:104>  (51) 
pication:HIS:104    NaN
pication:HIS:104     -1
Name: 49, dtype: object

>  <halogenbond:HIS:104>  (51) 
halogenbond:HIS:104    NaN
halogenbond:HIS:104     -1
Name: 49, dtype: object

>  <hydroph_interaction:HIS:104>  (51) 
hydroph_interaction:HIS:104    NaN
hydroph_interaction:HIS:104     -1
Name: 49, dtype: object

>  <pistack:HIS:104>  (51) 
pistack:HIS:104    NaN
pistack:HIS:104     -1
Name: 49, dtype: object

>  <halogenbond:SER:105>  (51) 
halogenbond:SER:105    0.0
halogenbond:SER:105      0
Name: 49, dtype: object

>  <hbond:SER:105>  (51) 
hbond:SER:105    0.0
hbond:SER:105      0
Name: 49, dtype: object

>  <hbond:GLU:106>  (51) 
hbond:GLU:106    0.0
hbond:GLU:106      0
Name: 49, dtype: object

>  <hydroph_interaction:GLU:106>  (51) 
hydroph_interaction:GLU:106    NaN
hydroph_interaction:GLU:106     -1
Name: 49, dtype: object

>  <saltbridge:GLU:106>  (51) 
saltbridge:GLU:106    NaN
saltbridge:GLU:106     -1
Name: 49, dtype: object

>  <halogenbond:GLU:106>  (51) 
halogenbond:GLU:106    NaN
halogenbond:GLU:106     -1
Name: 49, dtype: object

>  <hydroph_interaction:PRO:107>  (51) 
hydroph_interaction:PRO:107    0
hydroph_interaction:PRO:107    0
Name: 49, dtype: object

>  <hbond:PRO:107>  (51) 
hbond:PRO:107    0.0
hbond:PRO:107      0
Name: 49, dtype: object

>  <halogenbond:PRO:107>  (51) 
halogenbond:PRO:107    0.0
halogenbond:PRO:107      0
Name: 49, dtype: object

>  <hbond:GLY:108>  (51) 
hbond:GLY:108    NaN
hbond:GLY:108     -1
Name: 49, dtype: object

>  <halogenbond:GLY:108>  (51) 
halogenbond:GLY:108    NaN
halogenbond:GLY:108     -1
Name: 49, dtype: object

>  <hbond:ASP:109>  (51) 
hbond:ASP:109    NaN
hbond:ASP:109     -1
Name: 49, dtype: object

>  <hydroph_interaction:ASP:109>  (51) 
hydroph_interaction:ASP:109    NaN
hydroph_interaction:ASP:109     -1
Name: 49, dtype: object

>  <saltbridge:ASP:109>  (51) 
saltbridge:ASP:109    NaN
saltbridge:ASP:109     -1
Name: 49, dtype: object

>  <halogenbond:CYS:110>  (51) 
halogenbond:CYS:110    0.0
halogenbond:CYS:110      0
Name: 49, dtype: object

>  <hbond:CYS:110>  (51) 
hbond:CYS:110    NaN
hbond:CYS:110     -1
Name: 49, dtype: object

>  <hbond:GLY:111>  (51) 
hbond:GLY:111    NaN
hbond:GLY:111     -1
Name: 49, dtype: object

>  <hbond:GLY:112>  (51) 
hbond:GLY:112    NaN
hbond:GLY:112     -1
Name: 49, dtype: object

>  <hbond:ILE:113>  (51) 
hbond:ILE:113    NaN
hbond:ILE:113     -1
Name: 49, dtype: object

>  <hydroph_interaction:LEU:114>  (51) 
hydroph_interaction:LEU:114    NaN
hydroph_interaction:LEU:114     -1
Name: 49, dtype: object

>  <hbond:LEU:114>  (51) 
hbond:LEU:114    NaN
hbond:LEU:114     -1
Name: 49, dtype: object

>  <hydroph_interaction:ILE:123>  (51) 
hydroph_interaction:ILE:123    NaN
hydroph_interaction:ILE:123     -1
Name: 49, dtype: object

>  <hbond:ILE:123>  (51) 
hbond:ILE:123    NaN
hbond:ILE:123     -1
Name: 49, dtype: object

>  <hydroph_interaction:VAL:124>  (51) 
hydroph_interaction:VAL:124    1.0
hydroph_interaction:VAL:124      1
Name: 49, dtype: object

>  <hbond:VAL:124>  (51) 
hbond:VAL:124    NaN
hbond:VAL:124     -1
Name: 49, dtype: object

>  <halogenbond:VAL:124>  (51) 
halogenbond:VAL:124    NaN
halogenbond:VAL:124     -1
Name: 49, dtype: object

>  <hbond:SER:125>  (51) 
hbond:SER:125    0
hbond:SER:125    0
Name: 49, dtype: object

>  <halogenbond:SER:125>  (51) 
halogenbond:SER:125    0.0
halogenbond:SER:125      0
Name: 49, dtype: object

>  <hydroph_interaction:THR:126>  (51) 
hydroph_interaction:THR:126    0.0
hydroph_interaction:THR:126      0
Name: 49, dtype: object

>  <hbond:THR:126>  (51) 
hbond:THR:126    0.0
hbond:THR:126      0
Name: 49, dtype: object

>  <halogenbond:THR:126>  (51) 
halogenbond:THR:126    NaN
halogenbond:THR:126     -1
Name: 49, dtype: object

>  <hbond:GLY:127>  (51) 
hbond:GLY:127    0
hbond:GLY:127    0
Name: 49, dtype: object

>  <halogenbond:GLY:127>  (51) 
halogenbond:GLY:127    NaN
halogenbond:GLY:127     -1
Name: 49, dtype: object

>  <hydroph_interaction:GLY:127>  (51) 
hydroph_interaction:GLY:127    NaN
hydroph_interaction:GLY:127     -1
Name: 49, dtype: object

>  <hbond:GLY:128>  (51) 
hbond:GLY:128    NaN
hbond:GLY:128     -1
Name: 49, dtype: object

>  <halogenbond:GLY:128>  (51) 
halogenbond:GLY:128    NaN
halogenbond:GLY:128     -1
Name: 49, dtype: object

>  <hydroph_interaction:GLY:128>  (51) 
hydroph_interaction:GLY:128    NaN
hydroph_interaction:GLY:128     -1
Name: 49, dtype: object

>  <hbond:ASN:129>  (51) 
hbond:ASN:129    NaN
hbond:ASN:129     -1
Name: 49, dtype: object

>  <hydroph_interaction:ASN:129>  (51) 
hydroph_interaction:ASN:129    NaN
hydroph_interaction:ASN:129     -1
Name: 49, dtype: object

>  <halogenbond:ASN:129>  (51) 
halogenbond:ASN:129    NaN
halogenbond:ASN:129     -1
Name: 49, dtype: object

>  <hbond:GLY:130>  (51) 
hbond:GLY:130    NaN
hbond:GLY:130     -1
Name: 49, dtype: object

>  <hbond:LEU:131>  (51) 
hbond:LEU:131    NaN
hbond:LEU:131     -1
Name: 49, dtype: object

>  <hydroph_interaction:LEU:131>  (51) 
hydroph_interaction:LEU:131    NaN
hydroph_interaction:LEU:131     -1
Name: 49, dtype: object

>  <halogenbond:LEU:131>  (51) 
halogenbond:LEU:131    NaN
halogenbond:LEU:131     -1
Name: 49, dtype: object

>  <hydroph_interaction:VAL:132>  (51) 
hydroph_interaction:VAL:132    NaN
hydroph_interaction:VAL:132     -1
Name: 49, dtype: object

>  <hbond:VAL:132>  (51) 
hbond:VAL:132    NaN
hbond:VAL:132     -1
Name: 49, dtype: object

>  <hbond:GLY:133>  (51) 
hbond:GLY:133    NaN
hbond:GLY:133     -1
Name: 49, dtype: object

>  <halogenbond:GLY:133>  (51) 
halogenbond:GLY:133    NaN
halogenbond:GLY:133     -1
Name: 49, dtype: object

>  <hydroph_interaction:PHE:134>  (51) 
hydroph_interaction:PHE:134    NaN
hydroph_interaction:PHE:134     -1
Name: 49, dtype: object

>  <hbond:PHE:134>  (51) 
hbond:PHE:134    NaN
hbond:PHE:134     -1
Name: 49, dtype: object

>  <pistack:PHE:134>  (51) 
pistack:PHE:134    NaN
pistack:PHE:134     -1
Name: 49, dtype: object

>  <pication:PHE:134>  (51) 
pication:PHE:134    NaN
pication:PHE:134     -1
Name: 49, dtype: object

>  <halogenbond:PHE:134>  (51) 
halogenbond:PHE:134    NaN
halogenbond:PHE:134     -1
Name: 49, dtype: object

>  <hydroph_interaction:ALA:135>  (51) 
hydroph_interaction:ALA:135    NaN
hydroph_interaction:ALA:135     -1
Name: 49, dtype: object

>  <hbond:ALA:135>  (51) 
hbond:ALA:135    NaN
hbond:ALA:135     -1
Name: 49, dtype: object

$$$$
Z1022803666
     RDKit          3D

 15 16  0  0  0  0  0  0  0  0999 V2000
   30.4962    8.0185    8.6841 C   0  0  0  0  0  0  0  0  0  0  0  0
   31.0576    9.2011    7.9982 C   0  0  0  0  0  0  0  0  0  0  0  0
   32.0294    9.0359    7.0333 C   0  0  0  0  0  0  0  0  0  0  0  0
   32.5166   10.3299    6.4126 C   0  0  0  0  0  0  0  0  0  0  0  0
   33.5539   10.5043    5.3459 C   0  0  0  0  0  0  0  0  0  0  0  0
   33.6538   11.8222    5.1168 N   0  0  0  0  0  0  0  0  0  0  0  0
   32.7976   12.5493    5.9165 N   0  0  0  0  0  0  0  0  0  0  0  0
   32.0823   11.6309    6.7295 C   0  0  0  0  0  0  0  0  0  0  0  0
   31.0392   11.7104    7.7850 C   0  0  0  0  0  0  0  0  0  0  0  0
   30.4981   13.0270    8.2389 C   0  0  0  0  0  0  0  0  0  0  0  0
   31.2404   13.8534    9.0512 O   0  0  0  0  0  0  0  0  0  0  0  0
   29.2618   13.4043    7.8242 N   0  0  0  0  0  0  0  0  0  0  0  0
   28.4524   14.3984    8.5121 C   0  0  0  0  0  0  0  0  0  0  0  0
   28.9516   13.2346    6.4281 C   0  0  0  0  0  0  0  0  0  0  0  0
   30.5886   10.4856    8.3491 C   0  0  0  0  0  0  0  0  0  0  0  0
  1  2  1  0
  2  3  2  0
  3  4  1  0
  4  5  2  0
  5  6  1  0
  6  7  1  0
  7  8  2  0
  8  9  1  0
  9 10  1  0
 10 11  2  0
 10 12  1  0
 12 13  1  0
 12 14  1  0
  9 15  2  0
 15  2  1  0
  8  4  1  0
A    1
 C1 
A    2
 C2 
A    3
 C3 
A    4
 C4 
A    5
 C5 
A    6
 N1 
A    7
 N2 
A    8
 C6 
A    9
 C7 
A   10
 C8 
A   11
 O1 
A   12
 N3 
A   13
 C9 
A   14
 C10
A   15
 C11
M  END
>  <ref_pdb>  (52) 
Ax0310a

>  <ref_mols>  (52) 
Ax0554a,Ax0739a

>  <original SMILES>  (52) 
Cc1cc(C(=O)N(C)C)c2n[nH]cc2c1

>  <rationale>  (52) 
info halogenbond:C110+G127+A86+S125+E85+Q95+E106+E88+T126+P107+H104+Y64+C65+S87+N129+F83+R93+L131+I82+G128+P91+N19+H21+V84+G133+Y90+Y89+H97+L81+F134+L98+R20+G103+S66+S67+S7+G108+R38+V124+M99+S36; hbond:S87+Q95+D39+A86+C110+D109+E85+G108+G103+G128+G130+L131+N129+N19+H104+R68+V124+P91+F83+S67+S7+S66+G112+G133+V132+R20+Y89+S77+A135+Y63+A92+A101+M99+F134+L100+I82+Y64+S36+L98+V84+L81+Y94+S80+R38+S37+V102+G8+I123+G111+I113+L114+C65+L22+S96; hydroph_interaction:V84+V124+E85+E88+D109+N129+L40+I123+A135+Q95+I82+L100+L98+L131+F83+R93+V132+Y63+F134+H104+R20+A86+V74+P91+A101+F76+M99+L114+A92+Y94+R68+Y72+Y64+V18+V102+W28+G127+G128+L81; pication:H104+R93+Y63+F134+Y90+R68+F83+R20; pistack:H21+Y89+Y90+H104+F134+Y63+F83+Y94; saltbridge:D39+R93+H104+E106+D109+E85+E88+R68+R20; 

>  <intxn_cluster>  (52) 
-1

>  <intxn_cluster_rank>  (52) 
-1

>  <N_interactions>  (52) 
2

>  <∆∆G>  (52) 
-12.071066

>  <$/mg>  (52) 
163.0

>  <comRMSD>  (52) 
0.725752

>  <N_rotatable_bonds>  (52) 
4

>  <deep_P1_sidechain>  (52) 
nan

>  <farthest_distance_to_substrate>  (52) 
2.358605

>  <hbond:SER:7>  (52) 
hbond:SER:7    NaN
hbond:SER:7     -1
Name: 50, dtype: object

>  <halogenbond:SER:7>  (52) 
halogenbond:SER:7    NaN
halogenbond:SER:7     -1
Name: 50, dtype: object

>  <hbond:GLY:8>  (52) 
hbond:GLY:8    NaN
hbond:GLY:8     -1
Name: 50, dtype: object

>  <hydroph_interaction:VAL:18>  (52) 
hydroph_interaction:VAL:18    NaN
hydroph_interaction:VAL:18     -1
Name: 50, dtype: object

>  <hbond:ASN:19>  (52) 
hbond:ASN:19    NaN
hbond:ASN:19     -1
Name: 50, dtype: object

>  <hydroph_interaction:ASN:19>  (52) 
hydroph_interaction:ASN:19    0.0
hydroph_interaction:ASN:19      0
Name: 50, dtype: object

>  <halogenbond:ASN:19>  (52) 
halogenbond:ASN:19    NaN
halogenbond:ASN:19     -1
Name: 50, dtype: object

>  <hbond:ARG:20>  (52) 
hbond:ARG:20    NaN
hbond:ARG:20     -1
Name: 50, dtype: object

>  <hydroph_interaction:ARG:20>  (52) 
hydroph_interaction:ARG:20    NaN
hydroph_interaction:ARG:20     -1
Name: 50, dtype: object

>  <saltbridge:ARG:20>  (52) 
saltbridge:ARG:20    NaN
saltbridge:ARG:20     -1
Name: 50, dtype: object

>  <halogenbond:ARG:20>  (52) 
halogenbond:ARG:20    NaN
halogenbond:ARG:20     -1
Name: 50, dtype: object

>  <pication:ARG:20>  (52) 
pication:ARG:20    NaN
pication:ARG:20     -1
Name: 50, dtype: object

>  <hbond:HIS:21>  (52) 
hbond:HIS:21    0.0
hbond:HIS:21      0
Name: 50, dtype: object

>  <hydroph_interaction:HIS:21>  (52) 
hydroph_interaction:HIS:21    0.0
hydroph_interaction:HIS:21      0
Name: 50, dtype: object

>  <pistack:HIS:21>  (52) 
pistack:HIS:21    NaN
pistack:HIS:21     -1
Name: 50, dtype: object

>  <pication:HIS:21>  (52) 
pication:HIS:21    0.0
pication:HIS:21      0
Name: 50, dtype: object

>  <saltbridge:HIS:21>  (52) 
saltbridge:HIS:21    0.0
saltbridge:HIS:21      0
Name: 50, dtype: object

>  <halogenbond:HIS:21>  (52) 
halogenbond:HIS:21    NaN
halogenbond:HIS:21     -1
Name: 50, dtype: object

>  <hydroph_interaction:LEU:22>  (52) 
hydroph_interaction:LEU:22    0.0
hydroph_interaction:LEU:22      0
Name: 50, dtype: object

>  <hbond:LEU:22>  (52) 
hbond:LEU:22    NaN
hbond:LEU:22     -1
Name: 50, dtype: object

>  <hydroph_interaction:TRP:28>  (52) 
hydroph_interaction:TRP:28    NaN
hydroph_interaction:TRP:28     -1
Name: 50, dtype: object

>  <hbond:SER:36>  (52) 
hbond:SER:36    NaN
hbond:SER:36     -1
Name: 50, dtype: object

>  <halogenbond:SER:36>  (52) 
halogenbond:SER:36    NaN
halogenbond:SER:36     -1
Name: 50, dtype: object

>  <hbond:SER:37>  (52) 
hbond:SER:37    NaN
hbond:SER:37     -1
Name: 50, dtype: object

>  <hbond:ARG:38>  (52) 
hbond:ARG:38    NaN
hbond:ARG:38     -1
Name: 50, dtype: object

>  <halogenbond:ARG:38>  (52) 
halogenbond:ARG:38    NaN
halogenbond:ARG:38     -1
Name: 50, dtype: object

>  <saltbridge:ASP:39>  (52) 
saltbridge:ASP:39    NaN
saltbridge:ASP:39     -1
Name: 50, dtype: object

>  <halogenbond:ASP:39>  (52) 
halogenbond:ASP:39    0.0
halogenbond:ASP:39      0
Name: 50, dtype: object

>  <hbond:ASP:39>  (52) 
hbond:ASP:39    NaN
hbond:ASP:39     -1
Name: 50, dtype: object

>  <hydroph_interaction:ASP:39>  (52) 
hydroph_interaction:ASP:39    0.0
hydroph_interaction:ASP:39      0
Name: 50, dtype: object

>  <hydroph_interaction:LEU:40>  (52) 
hydroph_interaction:LEU:40    NaN
hydroph_interaction:LEU:40     -1
Name: 50, dtype: object

>  <hydroph_interaction:TYR:63>  (52) 
hydroph_interaction:TYR:63    NaN
hydroph_interaction:TYR:63     -1
Name: 50, dtype: object

>  <hbond:TYR:63>  (52) 
hbond:TYR:63    NaN
hbond:TYR:63     -1
Name: 50, dtype: object

>  <pistack:TYR:63>  (52) 
pistack:TYR:63    NaN
pistack:TYR:63     -1
Name: 50, dtype: object

>  <pication:TYR:63>  (52) 
pication:TYR:63    NaN
pication:TYR:63     -1
Name: 50, dtype: object

>  <halogenbond:TYR:64>  (52) 
halogenbond:TYR:64    NaN
halogenbond:TYR:64     -1
Name: 50, dtype: object

>  <hbond:TYR:64>  (52) 
hbond:TYR:64    NaN
hbond:TYR:64     -1
Name: 50, dtype: object

>  <hydroph_interaction:TYR:64>  (52) 
hydroph_interaction:TYR:64    NaN
hydroph_interaction:TYR:64     -1
Name: 50, dtype: object

>  <halogenbond:CYS:65>  (52) 
halogenbond:CYS:65    NaN
halogenbond:CYS:65     -1
Name: 50, dtype: object

>  <hbond:CYS:65>  (52) 
hbond:CYS:65    NaN
hbond:CYS:65     -1
Name: 50, dtype: object

>  <hbond:SER:66>  (52) 
hbond:SER:66    NaN
hbond:SER:66     -1
Name: 50, dtype: object

>  <halogenbond:SER:66>  (52) 
halogenbond:SER:66    NaN
halogenbond:SER:66     -1
Name: 50, dtype: object

>  <hbond:SER:67>  (52) 
hbond:SER:67    NaN
hbond:SER:67     -1
Name: 50, dtype: object

>  <halogenbond:SER:67>  (52) 
halogenbond:SER:67    NaN
halogenbond:SER:67     -1
Name: 50, dtype: object

>  <hbond:ARG:68>  (52) 
hbond:ARG:68    NaN
hbond:ARG:68     -1
Name: 50, dtype: object

>  <saltbridge:ARG:68>  (52) 
saltbridge:ARG:68    NaN
saltbridge:ARG:68     -1
Name: 50, dtype: object

>  <hydroph_interaction:ARG:68>  (52) 
hydroph_interaction:ARG:68    NaN
hydroph_interaction:ARG:68     -1
Name: 50, dtype: object

>  <pication:ARG:68>  (52) 
pication:ARG:68    NaN
pication:ARG:68     -1
Name: 50, dtype: object

>  <hydroph_interaction:TYR:72>  (52) 
hydroph_interaction:TYR:72    NaN
hydroph_interaction:TYR:72     -1
Name: 50, dtype: object

>  <hydroph_interaction:VAL:74>  (52) 
hydroph_interaction:VAL:74    NaN
hydroph_interaction:VAL:74     -1
Name: 50, dtype: object

>  <hydroph_interaction:PHE:76>  (52) 
hydroph_interaction:PHE:76    NaN
hydroph_interaction:PHE:76     -1
Name: 50, dtype: object

>  <hbond:SER:77>  (52) 
hbond:SER:77    NaN
hbond:SER:77     -1
Name: 50, dtype: object

>  <hbond:SER:80>  (52) 
hbond:SER:80    NaN
hbond:SER:80     -1
Name: 50, dtype: object

>  <hbond:LEU:81>  (52) 
hbond:LEU:81    NaN
hbond:LEU:81     -1
Name: 50, dtype: object

>  <halogenbond:LEU:81>  (52) 
halogenbond:LEU:81    NaN
halogenbond:LEU:81     -1
Name: 50, dtype: object

>  <hydroph_interaction:LEU:81>  (52) 
hydroph_interaction:LEU:81    NaN
hydroph_interaction:LEU:81     -1
Name: 50, dtype: object

>  <hydroph_interaction:ILE:82>  (52) 
hydroph_interaction:ILE:82    NaN
hydroph_interaction:ILE:82     -1
Name: 50, dtype: object

>  <halogenbond:ILE:82>  (52) 
halogenbond:ILE:82    NaN
halogenbond:ILE:82     -1
Name: 50, dtype: object

>  <hbond:ILE:82>  (52) 
hbond:ILE:82    NaN
hbond:ILE:82     -1
Name: 50, dtype: object

>  <hbond:PHE:83>  (52) 
hbond:PHE:83    NaN
hbond:PHE:83     -1
Name: 50, dtype: object

>  <hydroph_interaction:PHE:83>  (52) 
hydroph_interaction:PHE:83    NaN
hydroph_interaction:PHE:83     -1
Name: 50, dtype: object

>  <halogenbond:PHE:83>  (52) 
halogenbond:PHE:83    NaN
halogenbond:PHE:83     -1
Name: 50, dtype: object

>  <pistack:PHE:83>  (52) 
pistack:PHE:83    NaN
pistack:PHE:83     -1
Name: 50, dtype: object

>  <pication:PHE:83>  (52) 
pication:PHE:83    NaN
pication:PHE:83     -1
Name: 50, dtype: object

>  <hydroph_interaction:VAL:84>  (52) 
hydroph_interaction:VAL:84    NaN
hydroph_interaction:VAL:84     -1
Name: 50, dtype: object

>  <halogenbond:VAL:84>  (52) 
halogenbond:VAL:84    NaN
halogenbond:VAL:84     -1
Name: 50, dtype: object

>  <hbond:VAL:84>  (52) 
hbond:VAL:84    NaN
hbond:VAL:84     -1
Name: 50, dtype: object

>  <hydroph_interaction:GLU:85>  (52) 
hydroph_interaction:GLU:85    NaN
hydroph_interaction:GLU:85     -1
Name: 50, dtype: object

>  <hbond:GLU:85>  (52) 
hbond:GLU:85    NaN
hbond:GLU:85     -1
Name: 50, dtype: object

>  <halogenbond:GLU:85>  (52) 
halogenbond:GLU:85    NaN
halogenbond:GLU:85     -1
Name: 50, dtype: object

>  <saltbridge:GLU:85>  (52) 
saltbridge:GLU:85    NaN
saltbridge:GLU:85     -1
Name: 50, dtype: object

>  <halogenbond:ALA:86>  (52) 
halogenbond:ALA:86    NaN
halogenbond:ALA:86     -1
Name: 50, dtype: object

>  <hbond:ALA:86>  (52) 
hbond:ALA:86    NaN
hbond:ALA:86     -1
Name: 50, dtype: object

>  <hydroph_interaction:ALA:86>  (52) 
hydroph_interaction:ALA:86    NaN
hydroph_interaction:ALA:86     -1
Name: 50, dtype: object

>  <hbond:SER:87>  (52) 
hbond:SER:87    1
hbond:SER:87    1
Name: 50, dtype: object

>  <halogenbond:SER:87>  (52) 
halogenbond:SER:87    NaN
halogenbond:SER:87     -1
Name: 50, dtype: object

>  <hbond:GLU:88>  (52) 
hbond:GLU:88    0.0
hbond:GLU:88      0
Name: 50, dtype: object

>  <hydroph_interaction:GLU:88>  (52) 
hydroph_interaction:GLU:88    NaN
hydroph_interaction:GLU:88     -1
Name: 50, dtype: object

>  <halogenbond:GLU:88>  (52) 
halogenbond:GLU:88    NaN
halogenbond:GLU:88     -1
Name: 50, dtype: object

>  <saltbridge:GLU:88>  (52) 
saltbridge:GLU:88    NaN
saltbridge:GLU:88     -1
Name: 50, dtype: object

>  <hydroph_interaction:TYR:89>  (52) 
hydroph_interaction:TYR:89    0.0
hydroph_interaction:TYR:89      0
Name: 50, dtype: object

>  <pistack:TYR:89>  (52) 
pistack:TYR:89    NaN
pistack:TYR:89     -1
Name: 50, dtype: object

>  <hbond:TYR:89>  (52) 
hbond:TYR:89    NaN
hbond:TYR:89     -1
Name: 50, dtype: object

>  <halogenbond:TYR:89>  (52) 
halogenbond:TYR:89    NaN
halogenbond:TYR:89     -1
Name: 50, dtype: object

>  <hydroph_interaction:TYR:90>  (52) 
hydroph_interaction:TYR:90    0.0
hydroph_interaction:TYR:90      0
Name: 50, dtype: object

>  <hbond:TYR:90>  (52) 
hbond:TYR:90    0.0
hbond:TYR:90      0
Name: 50, dtype: object

>  <pistack:TYR:90>  (52) 
pistack:TYR:90    NaN
pistack:TYR:90     -1
Name: 50, dtype: object

>  <halogenbond:TYR:90>  (52) 
halogenbond:TYR:90    NaN
halogenbond:TYR:90     -1
Name: 50, dtype: object

>  <pication:TYR:90>  (52) 
pication:TYR:90    NaN
pication:TYR:90     -1
Name: 50, dtype: object

>  <hbond:PRO:91>  (52) 
hbond:PRO:91    NaN
hbond:PRO:91     -1
Name: 50, dtype: object

>  <hydroph_interaction:PRO:91>  (52) 
hydroph_interaction:PRO:91    NaN
hydroph_interaction:PRO:91     -1
Name: 50, dtype: object

>  <halogenbond:PRO:91>  (52) 
halogenbond:PRO:91    NaN
halogenbond:PRO:91     -1
Name: 50, dtype: object

>  <hbond:ALA:92>  (52) 
hbond:ALA:92    NaN
hbond:ALA:92     -1
Name: 50, dtype: object

>  <hydroph_interaction:ALA:92>  (52) 
hydroph_interaction:ALA:92    NaN
hydroph_interaction:ALA:92     -1
Name: 50, dtype: object

>  <saltbridge:ARG:93>  (52) 
saltbridge:ARG:93    NaN
saltbridge:ARG:93     -1
Name: 50, dtype: object

>  <hbond:ARG:93>  (52) 
hbond:ARG:93    0.0
hbond:ARG:93      0
Name: 50, dtype: object

>  <hydroph_interaction:ARG:93>  (52) 
hydroph_interaction:ARG:93    NaN
hydroph_interaction:ARG:93     -1
Name: 50, dtype: object

>  <halogenbond:ARG:93>  (52) 
halogenbond:ARG:93    NaN
halogenbond:ARG:93     -1
Name: 50, dtype: object

>  <pication:ARG:93>  (52) 
pication:ARG:93    NaN
pication:ARG:93     -1
Name: 50, dtype: object

>  <hydroph_interaction:TYR:94>  (52) 
hydroph_interaction:TYR:94    NaN
hydroph_interaction:TYR:94     -1
Name: 50, dtype: object

>  <pistack:TYR:94>  (52) 
pistack:TYR:94    NaN
pistack:TYR:94     -1
Name: 50, dtype: object

>  <hbond:TYR:94>  (52) 
hbond:TYR:94    NaN
hbond:TYR:94     -1
Name: 50, dtype: object

>  <hbond:GLN:95>  (52) 
hbond:GLN:95    NaN
hbond:GLN:95     -1
Name: 50, dtype: object

>  <hydroph_interaction:GLN:95>  (52) 
hydroph_interaction:GLN:95    NaN
hydroph_interaction:GLN:95     -1
Name: 50, dtype: object

>  <halogenbond:GLN:95>  (52) 
halogenbond:GLN:95    NaN
halogenbond:GLN:95     -1
Name: 50, dtype: object

>  <hbond:SER:96>  (52) 
hbond:SER:96    NaN
hbond:SER:96     -1
Name: 50, dtype: object

>  <halogenbond:HIS:97>  (52) 
halogenbond:HIS:97    NaN
halogenbond:HIS:97     -1
Name: 50, dtype: object

>  <hydroph_interaction:LEU:98>  (52) 
hydroph_interaction:LEU:98    NaN
hydroph_interaction:LEU:98     -1
Name: 50, dtype: object

>  <hbond:LEU:98>  (52) 
hbond:LEU:98    NaN
hbond:LEU:98     -1
Name: 50, dtype: object

>  <halogenbond:LEU:98>  (52) 
halogenbond:LEU:98    NaN
halogenbond:LEU:98     -1
Name: 50, dtype: object

>  <hbond:MET:99>  (52) 
hbond:MET:99    NaN
hbond:MET:99     -1
Name: 50, dtype: object

>  <hydroph_interaction:MET:99>  (52) 
hydroph_interaction:MET:99    NaN
hydroph_interaction:MET:99     -1
Name: 50, dtype: object

>  <halogenbond:MET:99>  (52) 
halogenbond:MET:99    NaN
halogenbond:MET:99     -1
Name: 50, dtype: object

>  <hydroph_interaction:LEU:100>  (52) 
hydroph_interaction:LEU:100    NaN
hydroph_interaction:LEU:100     -1
Name: 50, dtype: object

>  <hbond:LEU:100>  (52) 
hbond:LEU:100    NaN
hbond:LEU:100     -1
Name: 50, dtype: object

>  <hbond:ALA:101>  (52) 
hbond:ALA:101    NaN
hbond:ALA:101     -1
Name: 50, dtype: object

>  <hydroph_interaction:ALA:101>  (52) 
hydroph_interaction:ALA:101    NaN
hydroph_interaction:ALA:101     -1
Name: 50, dtype: object

>  <hydroph_interaction:VAL:102>  (52) 
hydroph_interaction:VAL:102    NaN
hydroph_interaction:VAL:102     -1
Name: 50, dtype: object

>  <hbond:VAL:102>  (52) 
hbond:VAL:102    NaN
hbond:VAL:102     -1
Name: 50, dtype: object

>  <hbond:GLY:103>  (52) 
hbond:GLY:103    NaN
hbond:GLY:103     -1
Name: 50, dtype: object

>  <halogenbond:GLY:103>  (52) 
halogenbond:GLY:103    NaN
halogenbond:GLY:103     -1
Name: 50, dtype: object

>  <hbond:HIS:104>  (52) 
hbond:HIS:104    NaN
hbond:HIS:104     -1
Name: 50, dtype: object

>  <saltbridge:HIS:104>  (52) 
saltbridge:HIS:104    NaN
saltbridge:HIS:104     -1
Name: 50, dtype: object

>  <pication:HIS:104>  (52) 
pication:HIS:104    NaN
pication:HIS:104     -1
Name: 50, dtype: object

>  <halogenbond:HIS:104>  (52) 
halogenbond:HIS:104    NaN
halogenbond:HIS:104     -1
Name: 50, dtype: object

>  <hydroph_interaction:HIS:104>  (52) 
hydroph_interaction:HIS:104    NaN
hydroph_interaction:HIS:104     -1
Name: 50, dtype: object

>  <pistack:HIS:104>  (52) 
pistack:HIS:104    NaN
pistack:HIS:104     -1
Name: 50, dtype: object

>  <halogenbond:SER:105>  (52) 
halogenbond:SER:105    0.0
halogenbond:SER:105      0
Name: 50, dtype: object

>  <hbond:SER:105>  (52) 
hbond:SER:105    0.0
hbond:SER:105      0
Name: 50, dtype: object

>  <hbond:GLU:106>  (52) 
hbond:GLU:106    0.0
hbond:GLU:106      0
Name: 50, dtype: object

>  <hydroph_interaction:GLU:106>  (52) 
hydroph_interaction:GLU:106    0.0
hydroph_interaction:GLU:106      0
Name: 50, dtype: object

>  <saltbridge:GLU:106>  (52) 
saltbridge:GLU:106    NaN
saltbridge:GLU:106     -1
Name: 50, dtype: object

>  <halogenbond:GLU:106>  (52) 
halogenbond:GLU:106    NaN
halogenbond:GLU:106     -1
Name: 50, dtype: object

>  <hydroph_interaction:PRO:107>  (52) 
hydroph_interaction:PRO:107    0
hydroph_interaction:PRO:107    0
Name: 50, dtype: object

>  <hbond:PRO:107>  (52) 
hbond:PRO:107    0.0
hbond:PRO:107      0
Name: 50, dtype: object

>  <halogenbond:PRO:107>  (52) 
halogenbond:PRO:107    NaN
halogenbond:PRO:107     -1
Name: 50, dtype: object

>  <hbond:GLY:108>  (52) 
hbond:GLY:108    NaN
hbond:GLY:108     -1
Name: 50, dtype: object

>  <halogenbond:GLY:108>  (52) 
halogenbond:GLY:108    NaN
halogenbond:GLY:108     -1
Name: 50, dtype: object

>  <hbond:ASP:109>  (52) 
hbond:ASP:109    NaN
hbond:ASP:109     -1
Name: 50, dtype: object

>  <hydroph_interaction:ASP:109>  (52) 
hydroph_interaction:ASP:109    NaN
hydroph_interaction:ASP:109     -1
Name: 50, dtype: object

>  <saltbridge:ASP:109>  (52) 
saltbridge:ASP:109    NaN
saltbridge:ASP:109     -1
Name: 50, dtype: object

>  <halogenbond:CYS:110>  (52) 
halogenbond:CYS:110    NaN
halogenbond:CYS:110     -1
Name: 50, dtype: object

>  <hbond:CYS:110>  (52) 
hbond:CYS:110    NaN
hbond:CYS:110     -1
Name: 50, dtype: object

>  <hbond:GLY:111>  (52) 
hbond:GLY:111    NaN
hbond:GLY:111     -1
Name: 50, dtype: object

>  <hbond:GLY:112>  (52) 
hbond:GLY:112    NaN
hbond:GLY:112     -1
Name: 50, dtype: object

>  <hbond:ILE:113>  (52) 
hbond:ILE:113    NaN
hbond:ILE:113     -1
Name: 50, dtype: object

>  <hydroph_interaction:LEU:114>  (52) 
hydroph_interaction:LEU:114    NaN
hydroph_interaction:LEU:114     -1
Name: 50, dtype: object

>  <hbond:LEU:114>  (52) 
hbond:LEU:114    NaN
hbond:LEU:114     -1
Name: 50, dtype: object

>  <hydroph_interaction:ILE:123>  (52) 
hydroph_interaction:ILE:123    NaN
hydroph_interaction:ILE:123     -1
Name: 50, dtype: object

>  <hbond:ILE:123>  (52) 
hbond:ILE:123    NaN
hbond:ILE:123     -1
Name: 50, dtype: object

>  <hydroph_interaction:VAL:124>  (52) 
hydroph_interaction:VAL:124    1.0
hydroph_interaction:VAL:124      1
Name: 50, dtype: object

>  <hbond:VAL:124>  (52) 
hbond:VAL:124    NaN
hbond:VAL:124     -1
Name: 50, dtype: object

>  <halogenbond:VAL:124>  (52) 
halogenbond:VAL:124    NaN
halogenbond:VAL:124     -1
Name: 50, dtype: object

>  <hbond:SER:125>  (52) 
hbond:SER:125    0
hbond:SER:125    0
Name: 50, dtype: object

>  <halogenbond:SER:125>  (52) 
halogenbond:SER:125    NaN
halogenbond:SER:125     -1
Name: 50, dtype: object

>  <hydroph_interaction:THR:126>  (52) 
hydroph_interaction:THR:126    0.0
hydroph_interaction:THR:126      0
Name: 50, dtype: object

>  <hbond:THR:126>  (52) 
hbond:THR:126    0.0
hbond:THR:126      0
Name: 50, dtype: object

>  <halogenbond:THR:126>  (52) 
halogenbond:THR:126    NaN
halogenbond:THR:126     -1
Name: 50, dtype: object

>  <hbond:GLY:127>  (52) 
hbond:GLY:127    0
hbond:GLY:127    0
Name: 50, dtype: object

>  <halogenbond:GLY:127>  (52) 
halogenbond:GLY:127    NaN
halogenbond:GLY:127     -1
Name: 50, dtype: object

>  <hydroph_interaction:GLY:127>  (52) 
hydroph_interaction:GLY:127    NaN
hydroph_interaction:GLY:127     -1
Name: 50, dtype: object

>  <hbond:GLY:128>  (52) 
hbond:GLY:128    NaN
hbond:GLY:128     -1
Name: 50, dtype: object

>  <halogenbond:GLY:128>  (52) 
halogenbond:GLY:128    NaN
halogenbond:GLY:128     -1
Name: 50, dtype: object

>  <hydroph_interaction:GLY:128>  (52) 
hydroph_interaction:GLY:128    NaN
hydroph_interaction:GLY:128     -1
Name: 50, dtype: object

>  <hbond:ASN:129>  (52) 
hbond:ASN:129    NaN
hbond:ASN:129     -1
Name: 50, dtype: object

>  <hydroph_interaction:ASN:129>  (52) 
hydroph_interaction:ASN:129    NaN
hydroph_interaction:ASN:129     -1
Name: 50, dtype: object

>  <halogenbond:ASN:129>  (52) 
halogenbond:ASN:129    NaN
halogenbond:ASN:129     -1
Name: 50, dtype: object

>  <hbond:GLY:130>  (52) 
hbond:GLY:130    NaN
hbond:GLY:130     -1
Name: 50, dtype: object

>  <hbond:LEU:131>  (52) 
hbond:LEU:131    NaN
hbond:LEU:131     -1
Name: 50, dtype: object

>  <hydroph_interaction:LEU:131>  (52) 
hydroph_interaction:LEU:131    NaN
hydroph_interaction:LEU:131     -1
Name: 50, dtype: object

>  <halogenbond:LEU:131>  (52) 
halogenbond:LEU:131    NaN
halogenbond:LEU:131     -1
Name: 50, dtype: object

>  <hydroph_interaction:VAL:132>  (52) 
hydroph_interaction:VAL:132    NaN
hydroph_interaction:VAL:132     -1
Name: 50, dtype: object

>  <hbond:VAL:132>  (52) 
hbond:VAL:132    NaN
hbond:VAL:132     -1
Name: 50, dtype: object

>  <hbond:GLY:133>  (52) 
hbond:GLY:133    NaN
hbond:GLY:133     -1
Name: 50, dtype: object

>  <halogenbond:GLY:133>  (52) 
halogenbond:GLY:133    NaN
halogenbond:GLY:133     -1
Name: 50, dtype: object

>  <hydroph_interaction:PHE:134>  (52) 
hydroph_interaction:PHE:134    NaN
hydroph_interaction:PHE:134     -1
Name: 50, dtype: object

>  <hbond:PHE:134>  (52) 
hbond:PHE:134    NaN
hbond:PHE:134     -1
Name: 50, dtype: object

>  <pistack:PHE:134>  (52) 
pistack:PHE:134    NaN
pistack:PHE:134     -1
Name: 50, dtype: object

>  <pication:PHE:134>  (52) 
pication:PHE:134    NaN
pication:PHE:134     -1
Name: 50, dtype: object

>  <halogenbond:PHE:134>  (52) 
halogenbond:PHE:134    NaN
halogenbond:PHE:134     -1
Name: 50, dtype: object

>  <hydroph_interaction:ALA:135>  (52) 
hydroph_interaction:ALA:135    NaN
hydroph_interaction:ALA:135     -1
Name: 50, dtype: object

>  <hbond:ALA:135>  (52) 
hbond:ALA:135    NaN
hbond:ALA:135     -1
Name: 50, dtype: object

$$$$
PV_002713694213
     RDKit          3D

 15 16  0  0  0  0  0  0  0  0999 V2000
   28.6094   14.1874    9.6607 C   0  0  0  0  0  0  0  0  0  0  0  0
   29.1424   14.2056    8.3235 N   0  0  0  0  0  0  0  0  0  0  0  0
   29.3354   13.0192    7.6326 C   0  0  0  0  0  0  0  0  0  0  0  0
   28.7994   12.7936    6.5533 O   0  0  0  0  0  0  0  0  0  0  0  0
   30.1972   12.1770    8.3210 N   0  0  0  0  0  0  0  0  0  0  0  0
   31.0155   11.1871    7.7127 C   0  0  0  0  0  0  0  0  0  0  0  0
   31.9705   11.4968    6.7269 C   0  0  0  0  0  0  0  0  0  0  0  0
   32.3455   12.6804    6.1416 N   0  0  0  0  0  0  0  0  0  0  0  0
   33.3087   12.4449    5.2528 N   0  0  0  0  0  0  0  0  0  0  0  0
   33.5497   11.1341    5.2649 N   0  0  0  0  0  0  0  0  0  0  0  0
   32.7544   10.4976    6.1532 C   0  0  0  0  0  0  0  0  0  0  0  0
   32.6307    9.1947    6.5161 C   0  0  0  0  0  0  0  0  0  0  0  0
   31.7142    8.8681    7.4745 C   0  0  0  0  0  0  0  0  0  0  0  0
   30.9153    9.8135    8.0782 C   0  0  0  0  0  0  0  0  0  0  0  0
   30.1373    8.9124    9.0297 C   0  0  0  0  0  0  0  0  0  0  0  0
  1  2  1  0
  2  3  1  0
  3  4  2  0
  3  5  1  0
  5  6  1  0
  6  7  2  0
  7  8  1  0
  8  9  2  0
  9 10  1  0
 10 11  1  0
 11 12  2  0
 12 13  1  0
 13 14  2  0
 14 15  1  0
 14  6  1  0
 11  7  1  0
A    1
 C1 
A    2
 N1 
A    3
 C2 
A    4
 O1 
A    5
 N2 
A    6
 C3 
A    7
 C4 
A    8
 N3 
A    9
 N4 
A   10
 N5 
A   11
 C5 
A   12
 C6 
A   13
 C7 
A   14
 C8 
A   15
 C9 
M  END
>  <ref_pdb>  (53) 
Ax0310a

>  <ref_mols>  (53) 
Ax0554a,Ax0922a

>  <original SMILES>  (53) 
CNC(=O)Nc1c(C)ccc2[nH]nnc12

>  <rationale>  (53) 
info halogenbond:C110+G127+A86+S125+E85+Q95+E106+E88+T126+P107+H104+Y64+C65+S87+N129+F83+R93+L131+I82+G128+P91+N19+H21+V84+G133+Y90+Y89+H97+L81+F134+L98+R20+G103+S66+S67+S7+G108+R38+V124+M99+S36; hbond:S87+S125+Y90+Q95+T126+C110+D109+E85+G108+G103+G128+G130+L131+N129+N19+H104+R68+V124+R93+P91+F83+S67+S7+S66+G112+G133+V132+R20+Y89+S77+A135+Y63+A92+A101+M99+F134+L100+I82+Y64+S36+L98+V84+L81+Y94+S80+R38+S37+V102+G8+I123+G111+I113+L114+C65+L22+S96; hydroph_interaction:V84+V124+T126+L22+E85+E106+E88+D109+N129+L40+I123+A135+Q95+I82+L100+L98+L131+F83+R93+V132+Y63+F134+H104+R20+A86+V74+P91+A101+F76+M99+L114+A92+Y94+R68+Y72+Y64+V18+V102+W28+G127+G128+L81; pication:H21+H104+R93+Y63+F134+Y90+R68+F83+R20; pistack:H21+Y89+Y90+H104+F134+Y63+F83+Y94; saltbridge:D39+R93+H104+E106+D109+E85+E88+R68+R20; 

>  <intxn_cluster>  (53) 
-1

>  <intxn_cluster_rank>  (53) 
-1

>  <N_interactions>  (53) 
4

>  <∆∆G>  (53) 
-10.154623

>  <$/mg>  (53) 
0.0

>  <comRMSD>  (53) 
0.64739

>  <N_rotatable_bonds>  (53) 
3

>  <deep_P1_sidechain>  (53) 
nan

>  <farthest_distance_to_substrate>  (53) 
2.771379

>  <hbond:SER:7>  (53) 
hbond:SER:7    NaN
hbond:SER:7     -1
Name: 51, dtype: object

>  <halogenbond:SER:7>  (53) 
halogenbond:SER:7    NaN
halogenbond:SER:7     -1
Name: 51, dtype: object

>  <hbond:GLY:8>  (53) 
hbond:GLY:8    NaN
hbond:GLY:8     -1
Name: 51, dtype: object

>  <hydroph_interaction:VAL:18>  (53) 
hydroph_interaction:VAL:18    NaN
hydroph_interaction:VAL:18     -1
Name: 51, dtype: object

>  <hbond:ASN:19>  (53) 
hbond:ASN:19    NaN
hbond:ASN:19     -1
Name: 51, dtype: object

>  <hydroph_interaction:ASN:19>  (53) 
hydroph_interaction:ASN:19    0.0
hydroph_interaction:ASN:19      0
Name: 51, dtype: object

>  <halogenbond:ASN:19>  (53) 
halogenbond:ASN:19    NaN
halogenbond:ASN:19     -1
Name: 51, dtype: object

>  <hbond:ARG:20>  (53) 
hbond:ARG:20    NaN
hbond:ARG:20     -1
Name: 51, dtype: object

>  <hydroph_interaction:ARG:20>  (53) 
hydroph_interaction:ARG:20    NaN
hydroph_interaction:ARG:20     -1
Name: 51, dtype: object

>  <saltbridge:ARG:20>  (53) 
saltbridge:ARG:20    NaN
saltbridge:ARG:20     -1
Name: 51, dtype: object

>  <halogenbond:ARG:20>  (53) 
halogenbond:ARG:20    NaN
halogenbond:ARG:20     -1
Name: 51, dtype: object

>  <pication:ARG:20>  (53) 
pication:ARG:20    NaN
pication:ARG:20     -1
Name: 51, dtype: object

>  <hbond:HIS:21>  (53) 
hbond:HIS:21    0.0
hbond:HIS:21      0
Name: 51, dtype: object

>  <hydroph_interaction:HIS:21>  (53) 
hydroph_interaction:HIS:21    0.0
hydroph_interaction:HIS:21      0
Name: 51, dtype: object

>  <pistack:HIS:21>  (53) 
pistack:HIS:21    NaN
pistack:HIS:21     -1
Name: 51, dtype: object

>  <pication:HIS:21>  (53) 
pication:HIS:21    NaN
pication:HIS:21     -1
Name: 51, dtype: object

>  <saltbridge:HIS:21>  (53) 
saltbridge:HIS:21    0.0
saltbridge:HIS:21      0
Name: 51, dtype: object

>  <halogenbond:HIS:21>  (53) 
halogenbond:HIS:21    NaN
halogenbond:HIS:21     -1
Name: 51, dtype: object

>  <hydroph_interaction:LEU:22>  (53) 
hydroph_interaction:LEU:22    NaN
hydroph_interaction:LEU:22     -1
Name: 51, dtype: object

>  <hbond:LEU:22>  (53) 
hbond:LEU:22    NaN
hbond:LEU:22     -1
Name: 51, dtype: object

>  <hydroph_interaction:TRP:28>  (53) 
hydroph_interaction:TRP:28    NaN
hydroph_interaction:TRP:28     -1
Name: 51, dtype: object

>  <hbond:SER:36>  (53) 
hbond:SER:36    NaN
hbond:SER:36     -1
Name: 51, dtype: object

>  <halogenbond:SER:36>  (53) 
halogenbond:SER:36    NaN
halogenbond:SER:36     -1
Name: 51, dtype: object

>  <hbond:SER:37>  (53) 
hbond:SER:37    NaN
hbond:SER:37     -1
Name: 51, dtype: object

>  <hbond:ARG:38>  (53) 
hbond:ARG:38    NaN
hbond:ARG:38     -1
Name: 51, dtype: object

>  <halogenbond:ARG:38>  (53) 
halogenbond:ARG:38    NaN
halogenbond:ARG:38     -1
Name: 51, dtype: object

>  <saltbridge:ASP:39>  (53) 
saltbridge:ASP:39    NaN
saltbridge:ASP:39     -1
Name: 51, dtype: object

>  <halogenbond:ASP:39>  (53) 
halogenbond:ASP:39    0.0
halogenbond:ASP:39      0
Name: 51, dtype: object

>  <hbond:ASP:39>  (53) 
hbond:ASP:39    0.0
hbond:ASP:39      0
Name: 51, dtype: object

>  <hydroph_interaction:ASP:39>  (53) 
hydroph_interaction:ASP:39    0.0
hydroph_interaction:ASP:39      0
Name: 51, dtype: object

>  <hydroph_interaction:LEU:40>  (53) 
hydroph_interaction:LEU:40    NaN
hydroph_interaction:LEU:40     -1
Name: 51, dtype: object

>  <hydroph_interaction:TYR:63>  (53) 
hydroph_interaction:TYR:63    NaN
hydroph_interaction:TYR:63     -1
Name: 51, dtype: object

>  <hbond:TYR:63>  (53) 
hbond:TYR:63    NaN
hbond:TYR:63     -1
Name: 51, dtype: object

>  <pistack:TYR:63>  (53) 
pistack:TYR:63    NaN
pistack:TYR:63     -1
Name: 51, dtype: object

>  <pication:TYR:63>  (53) 
pication:TYR:63    NaN
pication:TYR:63     -1
Name: 51, dtype: object

>  <halogenbond:TYR:64>  (53) 
halogenbond:TYR:64    NaN
halogenbond:TYR:64     -1
Name: 51, dtype: object

>  <hbond:TYR:64>  (53) 
hbond:TYR:64    NaN
hbond:TYR:64     -1
Name: 51, dtype: object

>  <hydroph_interaction:TYR:64>  (53) 
hydroph_interaction:TYR:64    NaN
hydroph_interaction:TYR:64     -1
Name: 51, dtype: object

>  <halogenbond:CYS:65>  (53) 
halogenbond:CYS:65    NaN
halogenbond:CYS:65     -1
Name: 51, dtype: object

>  <hbond:CYS:65>  (53) 
hbond:CYS:65    NaN
hbond:CYS:65     -1
Name: 51, dtype: object

>  <hbond:SER:66>  (53) 
hbond:SER:66    NaN
hbond:SER:66     -1
Name: 51, dtype: object

>  <halogenbond:SER:66>  (53) 
halogenbond:SER:66    NaN
halogenbond:SER:66     -1
Name: 51, dtype: object

>  <hbond:SER:67>  (53) 
hbond:SER:67    NaN
hbond:SER:67     -1
Name: 51, dtype: object

>  <halogenbond:SER:67>  (53) 
halogenbond:SER:67    NaN
halogenbond:SER:67     -1
Name: 51, dtype: object

>  <hbond:ARG:68>  (53) 
hbond:ARG:68    NaN
hbond:ARG:68     -1
Name: 51, dtype: object

>  <saltbridge:ARG:68>  (53) 
saltbridge:ARG:68    NaN
saltbridge:ARG:68     -1
Name: 51, dtype: object

>  <hydroph_interaction:ARG:68>  (53) 
hydroph_interaction:ARG:68    NaN
hydroph_interaction:ARG:68     -1
Name: 51, dtype: object

>  <pication:ARG:68>  (53) 
pication:ARG:68    NaN
pication:ARG:68     -1
Name: 51, dtype: object

>  <hydroph_interaction:TYR:72>  (53) 
hydroph_interaction:TYR:72    NaN
hydroph_interaction:TYR:72     -1
Name: 51, dtype: object

>  <hydroph_interaction:VAL:74>  (53) 
hydroph_interaction:VAL:74    NaN
hydroph_interaction:VAL:74     -1
Name: 51, dtype: object

>  <hydroph_interaction:PHE:76>  (53) 
hydroph_interaction:PHE:76    NaN
hydroph_interaction:PHE:76     -1
Name: 51, dtype: object

>  <hbond:SER:77>  (53) 
hbond:SER:77    NaN
hbond:SER:77     -1
Name: 51, dtype: object

>  <hbond:SER:80>  (53) 
hbond:SER:80    NaN
hbond:SER:80     -1
Name: 51, dtype: object

>  <hbond:LEU:81>  (53) 
hbond:LEU:81    NaN
hbond:LEU:81     -1
Name: 51, dtype: object

>  <halogenbond:LEU:81>  (53) 
halogenbond:LEU:81    NaN
halogenbond:LEU:81     -1
Name: 51, dtype: object

>  <hydroph_interaction:LEU:81>  (53) 
hydroph_interaction:LEU:81    NaN
hydroph_interaction:LEU:81     -1
Name: 51, dtype: object

>  <hydroph_interaction:ILE:82>  (53) 
hydroph_interaction:ILE:82    NaN
hydroph_interaction:ILE:82     -1
Name: 51, dtype: object

>  <halogenbond:ILE:82>  (53) 
halogenbond:ILE:82    NaN
halogenbond:ILE:82     -1
Name: 51, dtype: object

>  <hbond:ILE:82>  (53) 
hbond:ILE:82    NaN
hbond:ILE:82     -1
Name: 51, dtype: object

>  <hbond:PHE:83>  (53) 
hbond:PHE:83    NaN
hbond:PHE:83     -1
Name: 51, dtype: object

>  <hydroph_interaction:PHE:83>  (53) 
hydroph_interaction:PHE:83    NaN
hydroph_interaction:PHE:83     -1
Name: 51, dtype: object

>  <halogenbond:PHE:83>  (53) 
halogenbond:PHE:83    NaN
halogenbond:PHE:83     -1
Name: 51, dtype: object

>  <pistack:PHE:83>  (53) 
pistack:PHE:83    NaN
pistack:PHE:83     -1
Name: 51, dtype: object

>  <pication:PHE:83>  (53) 
pication:PHE:83    NaN
pication:PHE:83     -1
Name: 51, dtype: object

>  <hydroph_interaction:VAL:84>  (53) 
hydroph_interaction:VAL:84    NaN
hydroph_interaction:VAL:84     -1
Name: 51, dtype: object

>  <halogenbond:VAL:84>  (53) 
halogenbond:VAL:84    NaN
halogenbond:VAL:84     -1
Name: 51, dtype: object

>  <hbond:VAL:84>  (53) 
hbond:VAL:84    NaN
hbond:VAL:84     -1
Name: 51, dtype: object

>  <hydroph_interaction:GLU:85>  (53) 
hydroph_interaction:GLU:85    NaN
hydroph_interaction:GLU:85     -1
Name: 51, dtype: object

>  <hbond:GLU:85>  (53) 
hbond:GLU:85    NaN
hbond:GLU:85     -1
Name: 51, dtype: object

>  <halogenbond:GLU:85>  (53) 
halogenbond:GLU:85    NaN
halogenbond:GLU:85     -1
Name: 51, dtype: object

>  <saltbridge:GLU:85>  (53) 
saltbridge:GLU:85    NaN
saltbridge:GLU:85     -1
Name: 51, dtype: object

>  <halogenbond:ALA:86>  (53) 
halogenbond:ALA:86    NaN
halogenbond:ALA:86     -1
Name: 51, dtype: object

>  <hbond:ALA:86>  (53) 
hbond:ALA:86    0.0
hbond:ALA:86      0
Name: 51, dtype: object

>  <hydroph_interaction:ALA:86>  (53) 
hydroph_interaction:ALA:86    NaN
hydroph_interaction:ALA:86     -1
Name: 51, dtype: object

>  <hbond:SER:87>  (53) 
hbond:SER:87    2
hbond:SER:87    2
Name: 51, dtype: object

>  <halogenbond:SER:87>  (53) 
halogenbond:SER:87    NaN
halogenbond:SER:87     -1
Name: 51, dtype: object

>  <hbond:GLU:88>  (53) 
hbond:GLU:88    0.0
hbond:GLU:88      0
Name: 51, dtype: object

>  <hydroph_interaction:GLU:88>  (53) 
hydroph_interaction:GLU:88    NaN
hydroph_interaction:GLU:88     -1
Name: 51, dtype: object

>  <halogenbond:GLU:88>  (53) 
halogenbond:GLU:88    NaN
halogenbond:GLU:88     -1
Name: 51, dtype: object

>  <saltbridge:GLU:88>  (53) 
saltbridge:GLU:88    NaN
saltbridge:GLU:88     -1
Name: 51, dtype: object

>  <hydroph_interaction:TYR:89>  (53) 
hydroph_interaction:TYR:89    0.0
hydroph_interaction:TYR:89      0
Name: 51, dtype: object

>  <pistack:TYR:89>  (53) 
pistack:TYR:89    NaN
pistack:TYR:89     -1
Name: 51, dtype: object

>  <hbond:TYR:89>  (53) 
hbond:TYR:89    NaN
hbond:TYR:89     -1
Name: 51, dtype: object

>  <halogenbond:TYR:89>  (53) 
halogenbond:TYR:89    NaN
halogenbond:TYR:89     -1
Name: 51, dtype: object

>  <hydroph_interaction:TYR:90>  (53) 
hydroph_interaction:TYR:90    0.0
hydroph_interaction:TYR:90      0
Name: 51, dtype: object

>  <hbond:TYR:90>  (53) 
hbond:TYR:90    NaN
hbond:TYR:90     -1
Name: 51, dtype: object

>  <pistack:TYR:90>  (53) 
pistack:TYR:90    NaN
pistack:TYR:90     -1
Name: 51, dtype: object

>  <halogenbond:TYR:90>  (53) 
halogenbond:TYR:90    NaN
halogenbond:TYR:90     -1
Name: 51, dtype: object

>  <pication:TYR:90>  (53) 
pication:TYR:90    NaN
pication:TYR:90     -1
Name: 51, dtype: object

>  <hbond:PRO:91>  (53) 
hbond:PRO:91    NaN
hbond:PRO:91     -1
Name: 51, dtype: object

>  <hydroph_interaction:PRO:91>  (53) 
hydroph_interaction:PRO:91    NaN
hydroph_interaction:PRO:91     -1
Name: 51, dtype: object

>  <halogenbond:PRO:91>  (53) 
halogenbond:PRO:91    NaN
halogenbond:PRO:91     -1
Name: 51, dtype: object

>  <hbond:ALA:92>  (53) 
hbond:ALA:92    NaN
hbond:ALA:92     -1
Name: 51, dtype: object

>  <hydroph_interaction:ALA:92>  (53) 
hydroph_interaction:ALA:92    NaN
hydroph_interaction:ALA:92     -1
Name: 51, dtype: object

>  <saltbridge:ARG:93>  (53) 
saltbridge:ARG:93    NaN
saltbridge:ARG:93     -1
Name: 51, dtype: object

>  <hbond:ARG:93>  (53) 
hbond:ARG:93    NaN
hbond:ARG:93     -1
Name: 51, dtype: object

>  <hydroph_interaction:ARG:93>  (53) 
hydroph_interaction:ARG:93    NaN
hydroph_interaction:ARG:93     -1
Name: 51, dtype: object

>  <halogenbond:ARG:93>  (53) 
halogenbond:ARG:93    NaN
halogenbond:ARG:93     -1
Name: 51, dtype: object

>  <pication:ARG:93>  (53) 
pication:ARG:93    NaN
pication:ARG:93     -1
Name: 51, dtype: object

>  <hydroph_interaction:TYR:94>  (53) 
hydroph_interaction:TYR:94    NaN
hydroph_interaction:TYR:94     -1
Name: 51, dtype: object

>  <pistack:TYR:94>  (53) 
pistack:TYR:94    NaN
pistack:TYR:94     -1
Name: 51, dtype: object

>  <hbond:TYR:94>  (53) 
hbond:TYR:94    NaN
hbond:TYR:94     -1
Name: 51, dtype: object

>  <hbond:GLN:95>  (53) 
hbond:GLN:95    NaN
hbond:GLN:95     -1
Name: 51, dtype: object

>  <hydroph_interaction:GLN:95>  (53) 
hydroph_interaction:GLN:95    NaN
hydroph_interaction:GLN:95     -1
Name: 51, dtype: object

>  <halogenbond:GLN:95>  (53) 
halogenbond:GLN:95    NaN
halogenbond:GLN:95     -1
Name: 51, dtype: object

>  <hbond:SER:96>  (53) 
hbond:SER:96    NaN
hbond:SER:96     -1
Name: 51, dtype: object

>  <halogenbond:HIS:97>  (53) 
halogenbond:HIS:97    NaN
halogenbond:HIS:97     -1
Name: 51, dtype: object

>  <hydroph_interaction:LEU:98>  (53) 
hydroph_interaction:LEU:98    NaN
hydroph_interaction:LEU:98     -1
Name: 51, dtype: object

>  <hbond:LEU:98>  (53) 
hbond:LEU:98    NaN
hbond:LEU:98     -1
Name: 51, dtype: object

>  <halogenbond:LEU:98>  (53) 
halogenbond:LEU:98    NaN
halogenbond:LEU:98     -1
Name: 51, dtype: object

>  <hbond:MET:99>  (53) 
hbond:MET:99    NaN
hbond:MET:99     -1
Name: 51, dtype: object

>  <hydroph_interaction:MET:99>  (53) 
hydroph_interaction:MET:99    NaN
hydroph_interaction:MET:99     -1
Name: 51, dtype: object

>  <halogenbond:MET:99>  (53) 
halogenbond:MET:99    NaN
halogenbond:MET:99     -1
Name: 51, dtype: object

>  <hydroph_interaction:LEU:100>  (53) 
hydroph_interaction:LEU:100    NaN
hydroph_interaction:LEU:100     -1
Name: 51, dtype: object

>  <hbond:LEU:100>  (53) 
hbond:LEU:100    NaN
hbond:LEU:100     -1
Name: 51, dtype: object

>  <hbond:ALA:101>  (53) 
hbond:ALA:101    NaN
hbond:ALA:101     -1
Name: 51, dtype: object

>  <hydroph_interaction:ALA:101>  (53) 
hydroph_interaction:ALA:101    NaN
hydroph_interaction:ALA:101     -1
Name: 51, dtype: object

>  <hydroph_interaction:VAL:102>  (53) 
hydroph_interaction:VAL:102    NaN
hydroph_interaction:VAL:102     -1
Name: 51, dtype: object

>  <hbond:VAL:102>  (53) 
hbond:VAL:102    NaN
hbond:VAL:102     -1
Name: 51, dtype: object

>  <hbond:GLY:103>  (53) 
hbond:GLY:103    NaN
hbond:GLY:103     -1
Name: 51, dtype: object

>  <halogenbond:GLY:103>  (53) 
halogenbond:GLY:103    NaN
halogenbond:GLY:103     -1
Name: 51, dtype: object

>  <hbond:HIS:104>  (53) 
hbond:HIS:104    NaN
hbond:HIS:104     -1
Name: 51, dtype: object

>  <saltbridge:HIS:104>  (53) 
saltbridge:HIS:104    NaN
saltbridge:HIS:104     -1
Name: 51, dtype: object

>  <pication:HIS:104>  (53) 
pication:HIS:104    NaN
pication:HIS:104     -1
Name: 51, dtype: object

>  <halogenbond:HIS:104>  (53) 
halogenbond:HIS:104    NaN
halogenbond:HIS:104     -1
Name: 51, dtype: object

>  <hydroph_interaction:HIS:104>  (53) 
hydroph_interaction:HIS:104    NaN
hydroph_interaction:HIS:104     -1
Name: 51, dtype: object

>  <pistack:HIS:104>  (53) 
pistack:HIS:104    NaN
pistack:HIS:104     -1
Name: 51, dtype: object

>  <halogenbond:SER:105>  (53) 
halogenbond:SER:105    0.0
halogenbond:SER:105      0
Name: 51, dtype: object

>  <hbond:SER:105>  (53) 
hbond:SER:105    0.0
hbond:SER:105      0
Name: 51, dtype: object

>  <hbond:GLU:106>  (53) 
hbond:GLU:106    0.0
hbond:GLU:106      0
Name: 51, dtype: object

>  <hydroph_interaction:GLU:106>  (53) 
hydroph_interaction:GLU:106    NaN
hydroph_interaction:GLU:106     -1
Name: 51, dtype: object

>  <saltbridge:GLU:106>  (53) 
saltbridge:GLU:106    NaN
saltbridge:GLU:106     -1
Name: 51, dtype: object

>  <halogenbond:GLU:106>  (53) 
halogenbond:GLU:106    NaN
halogenbond:GLU:106     -1
Name: 51, dtype: object

>  <hydroph_interaction:PRO:107>  (53) 
hydroph_interaction:PRO:107    0
hydroph_interaction:PRO:107    0
Name: 51, dtype: object

>  <hbond:PRO:107>  (53) 
hbond:PRO:107    0.0
hbond:PRO:107      0
Name: 51, dtype: object

>  <halogenbond:PRO:107>  (53) 
halogenbond:PRO:107    NaN
halogenbond:PRO:107     -1
Name: 51, dtype: object

>  <hbond:GLY:108>  (53) 
hbond:GLY:108    NaN
hbond:GLY:108     -1
Name: 51, dtype: object

>  <halogenbond:GLY:108>  (53) 
halogenbond:GLY:108    NaN
halogenbond:GLY:108     -1
Name: 51, dtype: object

>  <hbond:ASP:109>  (53) 
hbond:ASP:109    NaN
hbond:ASP:109     -1
Name: 51, dtype: object

>  <hydroph_interaction:ASP:109>  (53) 
hydroph_interaction:ASP:109    NaN
hydroph_interaction:ASP:109     -1
Name: 51, dtype: object

>  <saltbridge:ASP:109>  (53) 
saltbridge:ASP:109    NaN
saltbridge:ASP:109     -1
Name: 51, dtype: object

>  <halogenbond:CYS:110>  (53) 
halogenbond:CYS:110    NaN
halogenbond:CYS:110     -1
Name: 51, dtype: object

>  <hbond:CYS:110>  (53) 
hbond:CYS:110    NaN
hbond:CYS:110     -1
Name: 51, dtype: object

>  <hbond:GLY:111>  (53) 
hbond:GLY:111    NaN
hbond:GLY:111     -1
Name: 51, dtype: object

>  <hbond:GLY:112>  (53) 
hbond:GLY:112    NaN
hbond:GLY:112     -1
Name: 51, dtype: object

>  <hbond:ILE:113>  (53) 
hbond:ILE:113    NaN
hbond:ILE:113     -1
Name: 51, dtype: object

>  <hydroph_interaction:LEU:114>  (53) 
hydroph_interaction:LEU:114    NaN
hydroph_interaction:LEU:114     -1
Name: 51, dtype: object

>  <hbond:LEU:114>  (53) 
hbond:LEU:114    NaN
hbond:LEU:114     -1
Name: 51, dtype: object

>  <hydroph_interaction:ILE:123>  (53) 
hydroph_interaction:ILE:123    NaN
hydroph_interaction:ILE:123     -1
Name: 51, dtype: object

>  <hbond:ILE:123>  (53) 
hbond:ILE:123    NaN
hbond:ILE:123     -1
Name: 51, dtype: object

>  <hydroph_interaction:VAL:124>  (53) 
hydroph_interaction:VAL:124    1.0
hydroph_interaction:VAL:124      1
Name: 51, dtype: object

>  <hbond:VAL:124>  (53) 
hbond:VAL:124    NaN
hbond:VAL:124     -1
Name: 51, dtype: object

>  <halogenbond:VAL:124>  (53) 
halogenbond:VAL:124    NaN
halogenbond:VAL:124     -1
Name: 51, dtype: object

>  <hbond:SER:125>  (53) 
hbond:SER:125    1
hbond:SER:125    1
Name: 51, dtype: object

>  <halogenbond:SER:125>  (53) 
halogenbond:SER:125    NaN
halogenbond:SER:125     -1
Name: 51, dtype: object

>  <hydroph_interaction:THR:126>  (53) 
hydroph_interaction:THR:126    NaN
hydroph_interaction:THR:126     -1
Name: 51, dtype: object

>  <hbond:THR:126>  (53) 
hbond:THR:126    NaN
hbond:THR:126     -1
Name: 51, dtype: object

>  <halogenbond:THR:126>  (53) 
halogenbond:THR:126    NaN
halogenbond:THR:126     -1
Name: 51, dtype: object

>  <hbond:GLY:127>  (53) 
hbond:GLY:127    0
hbond:GLY:127    0
Name: 51, dtype: object

>  <halogenbond:GLY:127>  (53) 
halogenbond:GLY:127    NaN
halogenbond:GLY:127     -1
Name: 51, dtype: object

>  <hydroph_interaction:GLY:127>  (53) 
hydroph_interaction:GLY:127    NaN
hydroph_interaction:GLY:127     -1
Name: 51, dtype: object

>  <hbond:GLY:128>  (53) 
hbond:GLY:128    NaN
hbond:GLY:128     -1
Name: 51, dtype: object

>  <halogenbond:GLY:128>  (53) 
halogenbond:GLY:128    NaN
halogenbond:GLY:128     -1
Name: 51, dtype: object

>  <hydroph_interaction:GLY:128>  (53) 
hydroph_interaction:GLY:128    NaN
hydroph_interaction:GLY:128     -1
Name: 51, dtype: object

>  <hbond:ASN:129>  (53) 
hbond:ASN:129    NaN
hbond:ASN:129     -1
Name: 51, dtype: object

>  <hydroph_interaction:ASN:129>  (53) 
hydroph_interaction:ASN:129    NaN
hydroph_interaction:ASN:129     -1
Name: 51, dtype: object

>  <halogenbond:ASN:129>  (53) 
halogenbond:ASN:129    NaN
halogenbond:ASN:129     -1
Name: 51, dtype: object

>  <hbond:GLY:130>  (53) 
hbond:GLY:130    NaN
hbond:GLY:130     -1
Name: 51, dtype: object

>  <hbond:LEU:131>  (53) 
hbond:LEU:131    NaN
hbond:LEU:131     -1
Name: 51, dtype: object

>  <hydroph_interaction:LEU:131>  (53) 
hydroph_interaction:LEU:131    NaN
hydroph_interaction:LEU:131     -1
Name: 51, dtype: object

>  <halogenbond:LEU:131>  (53) 
halogenbond:LEU:131    NaN
halogenbond:LEU:131     -1
Name: 51, dtype: object

>  <hydroph_interaction:VAL:132>  (53) 
hydroph_interaction:VAL:132    NaN
hydroph_interaction:VAL:132     -1
Name: 51, dtype: object

>  <hbond:VAL:132>  (53) 
hbond:VAL:132    NaN
hbond:VAL:132     -1
Name: 51, dtype: object

>  <hbond:GLY:133>  (53) 
hbond:GLY:133    NaN
hbond:GLY:133     -1
Name: 51, dtype: object

>  <halogenbond:GLY:133>  (53) 
halogenbond:GLY:133    NaN
halogenbond:GLY:133     -1
Name: 51, dtype: object

>  <hydroph_interaction:PHE:134>  (53) 
hydroph_interaction:PHE:134    NaN
hydroph_interaction:PHE:134     -1
Name: 51, dtype: object

>  <hbond:PHE:134>  (53) 
hbond:PHE:134    NaN
hbond:PHE:134     -1
Name: 51, dtype: object

>  <pistack:PHE:134>  (53) 
pistack:PHE:134    NaN
pistack:PHE:134     -1
Name: 51, dtype: object

>  <pication:PHE:134>  (53) 
pication:PHE:134    NaN
pication:PHE:134     -1
Name: 51, dtype: object

>  <halogenbond:PHE:134>  (53) 
halogenbond:PHE:134    NaN
halogenbond:PHE:134     -1
Name: 51, dtype: object

>  <hydroph_interaction:ALA:135>  (53) 
hydroph_interaction:ALA:135    NaN
hydroph_interaction:ALA:135     -1
Name: 51, dtype: object

>  <hbond:ALA:135>  (53) 
hbond:ALA:135    NaN
hbond:ALA:135     -1
Name: 51, dtype: object

$$$$
PV_006518381459
     RDKit          3D

 17 18  0  0  0  0  0  0  0  0999 V2000
   30.7751    8.3777    8.7731 C   0  0  0  0  0  0  0  0  0  0  0  0
   31.0681    9.5797    8.0480 N   0  0  0  0  0  0  0  0  0  0  0  0
   31.9609    9.7459    7.0163 C   0  0  0  0  0  0  0  0  0  0  0  0
   31.8844   11.0752    6.6675 C   0  0  0  0  0  0  0  0  0  0  0  0
   30.9210   11.6088    7.5477 C   0  0  0  0  0  0  0  0  0  0  0  0
   30.5319   12.9502    7.5394 C   0  0  0  0  0  0  0  0  0  0  0  0
   29.7881   13.4760    8.5342 N   0  0  0  0  0  0  0  0  0  0  0  0
   28.6403   14.1180    8.1383 C   0  0  0  0  0  0  0  0  0  0  0  0
   28.2819   15.2798    8.5444 N   0  0  0  0  0  0  0  0  0  0  0  0
   27.9927   13.3060    7.2351 N   0  0  0  0  0  0  0  0  0  0  0  0
   26.6589   13.2502    6.7572 C   0  0  0  0  0  0  0  0  0  0  0  0
   25.6692   14.3590    6.7100 C   0  0  0  0  0  0  0  0  0  0  0  0
   24.3816   14.1948    6.2135 C   0  0  0  0  0  0  0  0  0  0  0  0
   23.9249   12.9843    5.7302 C   0  0  0  0  0  0  0  0  0  0  0  0
   24.8724   11.8431    5.7605 C   0  0  0  0  0  0  0  0  0  0  0  0
   26.1674   12.0452    6.2649 C   0  0  0  0  0  0  0  0  0  0  0  0
   30.4232   10.7018    8.3859 N   0  0  0  0  0  0  0  0  0  0  0  0
  1  2  1  0
  2  3  1  0
  3  4  2  0
  4  5  1  0
  5  6  1  0
  6  7  1  0
  7  8  1  0
  8  9  2  3
  8 10  1  0
 10 11  1  0
 11 12  2  0
 12 13  1  0
 13 14  2  0
 14 15  1  0
 15 16  2  0
  5 17  2  0
 17  2  1  0
 16 11  1  0
A    1
 C1 
A    2
 N1 
A    3
 C2 
A    4
 C3 
A    5
 C4 
A    6
 C5 
A    7
 N2 
A    8
 C6 
A    9
 N3 
A   10
 N4 
A   11
 C7 
A   12
 C8 
A   13
 C9 
A   14
 C10
A   15
 C11
A   16
 C12
A   17
 N5 
M  END
>  <ref_pdb>  (54) 
Ax0310a

>  <ref_mols>  (54) 
Ax0451a,Ax0416a

>  <original SMILES>  (54) 
Cn1ccc(CNC(=N)Nc2ccccc2)n1

>  <rationale>  (54) 
info halogenbond:C110+G127+D39+S125+E85+E106+T126+P107+H104+Y64+C65+S87+N129+F83+R93+L131+I82+G128+P91+N19+H21+V84+G133+Y90+Y89+H97+L81+F134+L98+R20+G103+S66+S67+S7+G108+R38+V124+M99+S36; hbond:S87+S125+Y90+P107+Q95+C110+D109+E85+G108+G103+G128+G130+L131+N129+H104+R68+V124+P91+F83+S67+S7+S66+G112+G133+V132+R20+Y89+S77+A135+Y63+A92+A101+M99+F134+L100+I82+Y64+S36+L98+V84+L81+Y94+S80+R38+S37+V102+G8+I123+G111+I113+L114+C65+L22+S96; hydroph_interaction:Y89+H21+P107+L22+D109+N129+L40+I123+A135+Q95+I82+L100+L98+L131+F83+V132+Y63+F134+H104+V74+P91+A101+F76+M99+L114+A92+Y94+R68+Y72+Y64+V18+V102+W28+G127+G128+L81; pication:H104+R93+Y63+F134+Y90+R68+F83+R20; pistack:H21+H104+F134+Y63+F83+Y94; saltbridge:R93+H104+E106+D109+E85+R68+R20; 

>  <intxn_cluster>  (54) 
-1

>  <intxn_cluster_rank>  (54) 
-1

>  <N_interactions>  (54) 
9

>  <∆∆G>  (54) 
-10.074436

>  <$/mg>  (54) 
163.0

>  <comRMSD>  (54) 
0.732984

>  <N_rotatable_bonds>  (54) 
4

>  <deep_P1_sidechain>  (54) 
nan

>  <farthest_distance_to_substrate>  (54) 
2.309722

>  <hbond:SER:7>  (54) 
hbond:SER:7    NaN
hbond:SER:7     -1
Name: 52, dtype: object

>  <halogenbond:SER:7>  (54) 
halogenbond:SER:7    NaN
halogenbond:SER:7     -1
Name: 52, dtype: object

>  <hbond:GLY:8>  (54) 
hbond:GLY:8    NaN
hbond:GLY:8     -1
Name: 52, dtype: object

>  <hydroph_interaction:VAL:18>  (54) 
hydroph_interaction:VAL:18    NaN
hydroph_interaction:VAL:18     -1
Name: 52, dtype: object

>  <hbond:ASN:19>  (54) 
hbond:ASN:19    0.0
hbond:ASN:19      0
Name: 52, dtype: object

>  <hydroph_interaction:ASN:19>  (54) 
hydroph_interaction:ASN:19    0.0
hydroph_interaction:ASN:19      0
Name: 52, dtype: object

>  <halogenbond:ASN:19>  (54) 
halogenbond:ASN:19    NaN
halogenbond:ASN:19     -1
Name: 52, dtype: object

>  <hbond:ARG:20>  (54) 
hbond:ARG:20    NaN
hbond:ARG:20     -1
Name: 52, dtype: object

>  <hydroph_interaction:ARG:20>  (54) 
hydroph_interaction:ARG:20    0.0
hydroph_interaction:ARG:20      0
Name: 52, dtype: object

>  <saltbridge:ARG:20>  (54) 
saltbridge:ARG:20    NaN
saltbridge:ARG:20     -1
Name: 52, dtype: object

>  <halogenbond:ARG:20>  (54) 
halogenbond:ARG:20    NaN
halogenbond:ARG:20     -1
Name: 52, dtype: object

>  <pication:ARG:20>  (54) 
pication:ARG:20    NaN
pication:ARG:20     -1
Name: 52, dtype: object

>  <hbond:HIS:21>  (54) 
hbond:HIS:21    0.0
hbond:HIS:21      0
Name: 52, dtype: object

>  <hydroph_interaction:HIS:21>  (54) 
hydroph_interaction:HIS:21    1.0
hydroph_interaction:HIS:21      1
Name: 52, dtype: object

>  <pistack:HIS:21>  (54) 
pistack:HIS:21    1.0
pistack:HIS:21      1
Name: 52, dtype: object

>  <pication:HIS:21>  (54) 
pication:HIS:21    0.0
pication:HIS:21      0
Name: 52, dtype: object

>  <saltbridge:HIS:21>  (54) 
saltbridge:HIS:21    0.0
saltbridge:HIS:21      0
Name: 52, dtype: object

>  <halogenbond:HIS:21>  (54) 
halogenbond:HIS:21    NaN
halogenbond:HIS:21     -1
Name: 52, dtype: object

>  <hydroph_interaction:LEU:22>  (54) 
hydroph_interaction:LEU:22    1.0
hydroph_interaction:LEU:22      1
Name: 52, dtype: object

>  <hbond:LEU:22>  (54) 
hbond:LEU:22    NaN
hbond:LEU:22     -1
Name: 52, dtype: object

>  <hydroph_interaction:TRP:28>  (54) 
hydroph_interaction:TRP:28    NaN
hydroph_interaction:TRP:28     -1
Name: 52, dtype: object

>  <hbond:SER:36>  (54) 
hbond:SER:36    NaN
hbond:SER:36     -1
Name: 52, dtype: object

>  <halogenbond:SER:36>  (54) 
halogenbond:SER:36    NaN
halogenbond:SER:36     -1
Name: 52, dtype: object

>  <hbond:SER:37>  (54) 
hbond:SER:37    NaN
hbond:SER:37     -1
Name: 52, dtype: object

>  <hbond:ARG:38>  (54) 
hbond:ARG:38    NaN
hbond:ARG:38     -1
Name: 52, dtype: object

>  <halogenbond:ARG:38>  (54) 
halogenbond:ARG:38    NaN
halogenbond:ARG:38     -1
Name: 52, dtype: object

>  <saltbridge:ASP:39>  (54) 
saltbridge:ASP:39    0.0
saltbridge:ASP:39      0
Name: 52, dtype: object

>  <halogenbond:ASP:39>  (54) 
halogenbond:ASP:39    NaN
halogenbond:ASP:39     -1
Name: 52, dtype: object

>  <hbond:ASP:39>  (54) 
hbond:ASP:39    0.0
hbond:ASP:39      0
Name: 52, dtype: object

>  <hydroph_interaction:ASP:39>  (54) 
hydroph_interaction:ASP:39    0.0
hydroph_interaction:ASP:39      0
Name: 52, dtype: object

>  <hydroph_interaction:LEU:40>  (54) 
hydroph_interaction:LEU:40    NaN
hydroph_interaction:LEU:40     -1
Name: 52, dtype: object

>  <hydroph_interaction:TYR:63>  (54) 
hydroph_interaction:TYR:63    NaN
hydroph_interaction:TYR:63     -1
Name: 52, dtype: object

>  <hbond:TYR:63>  (54) 
hbond:TYR:63    NaN
hbond:TYR:63     -1
Name: 52, dtype: object

>  <pistack:TYR:63>  (54) 
pistack:TYR:63    NaN
pistack:TYR:63     -1
Name: 52, dtype: object

>  <pication:TYR:63>  (54) 
pication:TYR:63    NaN
pication:TYR:63     -1
Name: 52, dtype: object

>  <halogenbond:TYR:64>  (54) 
halogenbond:TYR:64    NaN
halogenbond:TYR:64     -1
Name: 52, dtype: object

>  <hbond:TYR:64>  (54) 
hbond:TYR:64    NaN
hbond:TYR:64     -1
Name: 52, dtype: object

>  <hydroph_interaction:TYR:64>  (54) 
hydroph_interaction:TYR:64    NaN
hydroph_interaction:TYR:64     -1
Name: 52, dtype: object

>  <halogenbond:CYS:65>  (54) 
halogenbond:CYS:65    NaN
halogenbond:CYS:65     -1
Name: 52, dtype: object

>  <hbond:CYS:65>  (54) 
hbond:CYS:65    NaN
hbond:CYS:65     -1
Name: 52, dtype: object

>  <hbond:SER:66>  (54) 
hbond:SER:66    NaN
hbond:SER:66     -1
Name: 52, dtype: object

>  <halogenbond:SER:66>  (54) 
halogenbond:SER:66    NaN
halogenbond:SER:66     -1
Name: 52, dtype: object

>  <hbond:SER:67>  (54) 
hbond:SER:67    NaN
hbond:SER:67     -1
Name: 52, dtype: object

>  <halogenbond:SER:67>  (54) 
halogenbond:SER:67    NaN
halogenbond:SER:67     -1
Name: 52, dtype: object

>  <hbond:ARG:68>  (54) 
hbond:ARG:68    NaN
hbond:ARG:68     -1
Name: 52, dtype: object

>  <saltbridge:ARG:68>  (54) 
saltbridge:ARG:68    NaN
saltbridge:ARG:68     -1
Name: 52, dtype: object

>  <hydroph_interaction:ARG:68>  (54) 
hydroph_interaction:ARG:68    NaN
hydroph_interaction:ARG:68     -1
Name: 52, dtype: object

>  <pication:ARG:68>  (54) 
pication:ARG:68    NaN
pication:ARG:68     -1
Name: 52, dtype: object

>  <hydroph_interaction:TYR:72>  (54) 
hydroph_interaction:TYR:72    NaN
hydroph_interaction:TYR:72     -1
Name: 52, dtype: object

>  <hydroph_interaction:VAL:74>  (54) 
hydroph_interaction:VAL:74    NaN
hydroph_interaction:VAL:74     -1
Name: 52, dtype: object

>  <hydroph_interaction:PHE:76>  (54) 
hydroph_interaction:PHE:76    NaN
hydroph_interaction:PHE:76     -1
Name: 52, dtype: object

>  <hbond:SER:77>  (54) 
hbond:SER:77    NaN
hbond:SER:77     -1
Name: 52, dtype: object

>  <hbond:SER:80>  (54) 
hbond:SER:80    NaN
hbond:SER:80     -1
Name: 52, dtype: object

>  <hbond:LEU:81>  (54) 
hbond:LEU:81    NaN
hbond:LEU:81     -1
Name: 52, dtype: object

>  <halogenbond:LEU:81>  (54) 
halogenbond:LEU:81    NaN
halogenbond:LEU:81     -1
Name: 52, dtype: object

>  <hydroph_interaction:LEU:81>  (54) 
hydroph_interaction:LEU:81    NaN
hydroph_interaction:LEU:81     -1
Name: 52, dtype: object

>  <hydroph_interaction:ILE:82>  (54) 
hydroph_interaction:ILE:82    NaN
hydroph_interaction:ILE:82     -1
Name: 52, dtype: object

>  <halogenbond:ILE:82>  (54) 
halogenbond:ILE:82    NaN
halogenbond:ILE:82     -1
Name: 52, dtype: object

>  <hbond:ILE:82>  (54) 
hbond:ILE:82    NaN
hbond:ILE:82     -1
Name: 52, dtype: object

>  <hbond:PHE:83>  (54) 
hbond:PHE:83    NaN
hbond:PHE:83     -1
Name: 52, dtype: object

>  <hydroph_interaction:PHE:83>  (54) 
hydroph_interaction:PHE:83    NaN
hydroph_interaction:PHE:83     -1
Name: 52, dtype: object

>  <halogenbond:PHE:83>  (54) 
halogenbond:PHE:83    NaN
halogenbond:PHE:83     -1
Name: 52, dtype: object

>  <pistack:PHE:83>  (54) 
pistack:PHE:83    NaN
pistack:PHE:83     -1
Name: 52, dtype: object

>  <pication:PHE:83>  (54) 
pication:PHE:83    NaN
pication:PHE:83     -1
Name: 52, dtype: object

>  <hydroph_interaction:VAL:84>  (54) 
hydroph_interaction:VAL:84    0.0
hydroph_interaction:VAL:84      0
Name: 52, dtype: object

>  <halogenbond:VAL:84>  (54) 
halogenbond:VAL:84    NaN
halogenbond:VAL:84     -1
Name: 52, dtype: object

>  <hbond:VAL:84>  (54) 
hbond:VAL:84    NaN
hbond:VAL:84     -1
Name: 52, dtype: object

>  <hydroph_interaction:GLU:85>  (54) 
hydroph_interaction:GLU:85    0.0
hydroph_interaction:GLU:85      0
Name: 52, dtype: object

>  <hbond:GLU:85>  (54) 
hbond:GLU:85    NaN
hbond:GLU:85     -1
Name: 52, dtype: object

>  <halogenbond:GLU:85>  (54) 
halogenbond:GLU:85    NaN
halogenbond:GLU:85     -1
Name: 52, dtype: object

>  <saltbridge:GLU:85>  (54) 
saltbridge:GLU:85    NaN
saltbridge:GLU:85     -1
Name: 52, dtype: object

>  <halogenbond:ALA:86>  (54) 
halogenbond:ALA:86    0.0
halogenbond:ALA:86      0
Name: 52, dtype: object

>  <hbond:ALA:86>  (54) 
hbond:ALA:86    0.0
hbond:ALA:86      0
Name: 52, dtype: object

>  <hydroph_interaction:ALA:86>  (54) 
hydroph_interaction:ALA:86    0.0
hydroph_interaction:ALA:86      0
Name: 52, dtype: object

>  <hbond:SER:87>  (54) 
hbond:SER:87    1
hbond:SER:87    1
Name: 52, dtype: object

>  <halogenbond:SER:87>  (54) 
halogenbond:SER:87    NaN
halogenbond:SER:87     -1
Name: 52, dtype: object

>  <hbond:GLU:88>  (54) 
hbond:GLU:88    0.0
hbond:GLU:88      0
Name: 52, dtype: object

>  <hydroph_interaction:GLU:88>  (54) 
hydroph_interaction:GLU:88    0.0
hydroph_interaction:GLU:88      0
Name: 52, dtype: object

>  <halogenbond:GLU:88>  (54) 
halogenbond:GLU:88    0.0
halogenbond:GLU:88      0
Name: 52, dtype: object

>  <saltbridge:GLU:88>  (54) 
saltbridge:GLU:88    0.0
saltbridge:GLU:88      0
Name: 52, dtype: object

>  <hydroph_interaction:TYR:89>  (54) 
hydroph_interaction:TYR:89    2.0
hydroph_interaction:TYR:89      2
Name: 52, dtype: object

>  <pistack:TYR:89>  (54) 
pistack:TYR:89    0.0
pistack:TYR:89      0
Name: 52, dtype: object

>  <hbond:TYR:89>  (54) 
hbond:TYR:89    NaN
hbond:TYR:89     -1
Name: 52, dtype: object

>  <halogenbond:TYR:89>  (54) 
halogenbond:TYR:89    NaN
halogenbond:TYR:89     -1
Name: 52, dtype: object

>  <hydroph_interaction:TYR:90>  (54) 
hydroph_interaction:TYR:90    0.0
hydroph_interaction:TYR:90      0
Name: 52, dtype: object

>  <hbond:TYR:90>  (54) 
hbond:TYR:90    NaN
hbond:TYR:90     -1
Name: 52, dtype: object

>  <pistack:TYR:90>  (54) 
pistack:TYR:90    0.0
pistack:TYR:90      0
Name: 52, dtype: object

>  <halogenbond:TYR:90>  (54) 
halogenbond:TYR:90    NaN
halogenbond:TYR:90     -1
Name: 52, dtype: object

>  <pication:TYR:90>  (54) 
pication:TYR:90    NaN
pication:TYR:90     -1
Name: 52, dtype: object

>  <hbond:PRO:91>  (54) 
hbond:PRO:91    NaN
hbond:PRO:91     -1
Name: 52, dtype: object

>  <hydroph_interaction:PRO:91>  (54) 
hydroph_interaction:PRO:91    NaN
hydroph_interaction:PRO:91     -1
Name: 52, dtype: object

>  <halogenbond:PRO:91>  (54) 
halogenbond:PRO:91    NaN
halogenbond:PRO:91     -1
Name: 52, dtype: object

>  <hbond:ALA:92>  (54) 
hbond:ALA:92    NaN
hbond:ALA:92     -1
Name: 52, dtype: object

>  <hydroph_interaction:ALA:92>  (54) 
hydroph_interaction:ALA:92    NaN
hydroph_interaction:ALA:92     -1
Name: 52, dtype: object

>  <saltbridge:ARG:93>  (54) 
saltbridge:ARG:93    NaN
saltbridge:ARG:93     -1
Name: 52, dtype: object

>  <hbond:ARG:93>  (54) 
hbond:ARG:93    0.0
hbond:ARG:93      0
Name: 52, dtype: object

>  <hydroph_interaction:ARG:93>  (54) 
hydroph_interaction:ARG:93    0.0
hydroph_interaction:ARG:93      0
Name: 52, dtype: object

>  <halogenbond:ARG:93>  (54) 
halogenbond:ARG:93    NaN
halogenbond:ARG:93     -1
Name: 52, dtype: object

>  <pication:ARG:93>  (54) 
pication:ARG:93    NaN
pication:ARG:93     -1
Name: 52, dtype: object

>  <hydroph_interaction:TYR:94>  (54) 
hydroph_interaction:TYR:94    NaN
hydroph_interaction:TYR:94     -1
Name: 52, dtype: object

>  <pistack:TYR:94>  (54) 
pistack:TYR:94    NaN
pistack:TYR:94     -1
Name: 52, dtype: object

>  <hbond:TYR:94>  (54) 
hbond:TYR:94    NaN
hbond:TYR:94     -1
Name: 52, dtype: object

>  <hbond:GLN:95>  (54) 
hbond:GLN:95    NaN
hbond:GLN:95     -1
Name: 52, dtype: object

>  <hydroph_interaction:GLN:95>  (54) 
hydroph_interaction:GLN:95    NaN
hydroph_interaction:GLN:95     -1
Name: 52, dtype: object

>  <halogenbond:GLN:95>  (54) 
halogenbond:GLN:95    0.0
halogenbond:GLN:95      0
Name: 52, dtype: object

>  <hbond:SER:96>  (54) 
hbond:SER:96    NaN
hbond:SER:96     -1
Name: 52, dtype: object

>  <halogenbond:HIS:97>  (54) 
halogenbond:HIS:97    NaN
halogenbond:HIS:97     -1
Name: 52, dtype: object

>  <hydroph_interaction:LEU:98>  (54) 
hydroph_interaction:LEU:98    NaN
hydroph_interaction:LEU:98     -1
Name: 52, dtype: object

>  <hbond:LEU:98>  (54) 
hbond:LEU:98    NaN
hbond:LEU:98     -1
Name: 52, dtype: object

>  <halogenbond:LEU:98>  (54) 
halogenbond:LEU:98    NaN
halogenbond:LEU:98     -1
Name: 52, dtype: object

>  <hbond:MET:99>  (54) 
hbond:MET:99    NaN
hbond:MET:99     -1
Name: 52, dtype: object

>  <hydroph_interaction:MET:99>  (54) 
hydroph_interaction:MET:99    NaN
hydroph_interaction:MET:99     -1
Name: 52, dtype: object

>  <halogenbond:MET:99>  (54) 
halogenbond:MET:99    NaN
halogenbond:MET:99     -1
Name: 52, dtype: object

>  <hydroph_interaction:LEU:100>  (54) 
hydroph_interaction:LEU:100    NaN
hydroph_interaction:LEU:100     -1
Name: 52, dtype: object

>  <hbond:LEU:100>  (54) 
hbond:LEU:100    NaN
hbond:LEU:100     -1
Name: 52, dtype: object

>  <hbond:ALA:101>  (54) 
hbond:ALA:101    NaN
hbond:ALA:101     -1
Name: 52, dtype: object

>  <hydroph_interaction:ALA:101>  (54) 
hydroph_interaction:ALA:101    NaN
hydroph_interaction:ALA:101     -1
Name: 52, dtype: object

>  <hydroph_interaction:VAL:102>  (54) 
hydroph_interaction:VAL:102    NaN
hydroph_interaction:VAL:102     -1
Name: 52, dtype: object

>  <hbond:VAL:102>  (54) 
hbond:VAL:102    NaN
hbond:VAL:102     -1
Name: 52, dtype: object

>  <hbond:GLY:103>  (54) 
hbond:GLY:103    NaN
hbond:GLY:103     -1
Name: 52, dtype: object

>  <halogenbond:GLY:103>  (54) 
halogenbond:GLY:103    NaN
halogenbond:GLY:103     -1
Name: 52, dtype: object

>  <hbond:HIS:104>  (54) 
hbond:HIS:104    NaN
hbond:HIS:104     -1
Name: 52, dtype: object

>  <saltbridge:HIS:104>  (54) 
saltbridge:HIS:104    NaN
saltbridge:HIS:104     -1
Name: 52, dtype: object

>  <pication:HIS:104>  (54) 
pication:HIS:104    NaN
pication:HIS:104     -1
Name: 52, dtype: object

>  <halogenbond:HIS:104>  (54) 
halogenbond:HIS:104    NaN
halogenbond:HIS:104     -1
Name: 52, dtype: object

>  <hydroph_interaction:HIS:104>  (54) 
hydroph_interaction:HIS:104    NaN
hydroph_interaction:HIS:104     -1
Name: 52, dtype: object

>  <pistack:HIS:104>  (54) 
pistack:HIS:104    NaN
pistack:HIS:104     -1
Name: 52, dtype: object

>  <halogenbond:SER:105>  (54) 
halogenbond:SER:105    0.0
halogenbond:SER:105      0
Name: 52, dtype: object

>  <hbond:SER:105>  (54) 
hbond:SER:105    0.0
hbond:SER:105      0
Name: 52, dtype: object

>  <hbond:GLU:106>  (54) 
hbond:GLU:106    0.0
hbond:GLU:106      0
Name: 52, dtype: object

>  <hydroph_interaction:GLU:106>  (54) 
hydroph_interaction:GLU:106    0.0
hydroph_interaction:GLU:106      0
Name: 52, dtype: object

>  <saltbridge:GLU:106>  (54) 
saltbridge:GLU:106    NaN
saltbridge:GLU:106     -1
Name: 52, dtype: object

>  <halogenbond:GLU:106>  (54) 
halogenbond:GLU:106    NaN
halogenbond:GLU:106     -1
Name: 52, dtype: object

>  <hydroph_interaction:PRO:107>  (54) 
hydroph_interaction:PRO:107    2
hydroph_interaction:PRO:107    2
Name: 52, dtype: object

>  <hbond:PRO:107>  (54) 
hbond:PRO:107    NaN
hbond:PRO:107     -1
Name: 52, dtype: object

>  <halogenbond:PRO:107>  (54) 
halogenbond:PRO:107    NaN
halogenbond:PRO:107     -1
Name: 52, dtype: object

>  <hbond:GLY:108>  (54) 
hbond:GLY:108    NaN
hbond:GLY:108     -1
Name: 52, dtype: object

>  <halogenbond:GLY:108>  (54) 
halogenbond:GLY:108    NaN
halogenbond:GLY:108     -1
Name: 52, dtype: object

>  <hbond:ASP:109>  (54) 
hbond:ASP:109    NaN
hbond:ASP:109     -1
Name: 52, dtype: object

>  <hydroph_interaction:ASP:109>  (54) 
hydroph_interaction:ASP:109    NaN
hydroph_interaction:ASP:109     -1
Name: 52, dtype: object

>  <saltbridge:ASP:109>  (54) 
saltbridge:ASP:109    NaN
saltbridge:ASP:109     -1
Name: 52, dtype: object

>  <halogenbond:CYS:110>  (54) 
halogenbond:CYS:110    NaN
halogenbond:CYS:110     -1
Name: 52, dtype: object

>  <hbond:CYS:110>  (54) 
hbond:CYS:110    NaN
hbond:CYS:110     -1
Name: 52, dtype: object

>  <hbond:GLY:111>  (54) 
hbond:GLY:111    NaN
hbond:GLY:111     -1
Name: 52, dtype: object

>  <hbond:GLY:112>  (54) 
hbond:GLY:112    NaN
hbond:GLY:112     -1
Name: 52, dtype: object

>  <hbond:ILE:113>  (54) 
hbond:ILE:113    NaN
hbond:ILE:113     -1
Name: 52, dtype: object

>  <hydroph_interaction:LEU:114>  (54) 
hydroph_interaction:LEU:114    NaN
hydroph_interaction:LEU:114     -1
Name: 52, dtype: object

>  <hbond:LEU:114>  (54) 
hbond:LEU:114    NaN
hbond:LEU:114     -1
Name: 52, dtype: object

>  <hydroph_interaction:ILE:123>  (54) 
hydroph_interaction:ILE:123    NaN
hydroph_interaction:ILE:123     -1
Name: 52, dtype: object

>  <hbond:ILE:123>  (54) 
hbond:ILE:123    NaN
hbond:ILE:123     -1
Name: 52, dtype: object

>  <hydroph_interaction:VAL:124>  (54) 
hydroph_interaction:VAL:124    0.0
hydroph_interaction:VAL:124      0
Name: 52, dtype: object

>  <hbond:VAL:124>  (54) 
hbond:VAL:124    NaN
hbond:VAL:124     -1
Name: 52, dtype: object

>  <halogenbond:VAL:124>  (54) 
halogenbond:VAL:124    NaN
halogenbond:VAL:124     -1
Name: 52, dtype: object

>  <hbond:SER:125>  (54) 
hbond:SER:125    1
hbond:SER:125    1
Name: 52, dtype: object

>  <halogenbond:SER:125>  (54) 
halogenbond:SER:125    NaN
halogenbond:SER:125     -1
Name: 52, dtype: object

>  <hydroph_interaction:THR:126>  (54) 
hydroph_interaction:THR:126    0.0
hydroph_interaction:THR:126      0
Name: 52, dtype: object

>  <hbond:THR:126>  (54) 
hbond:THR:126    0.0
hbond:THR:126      0
Name: 52, dtype: object

>  <halogenbond:THR:126>  (54) 
halogenbond:THR:126    NaN
halogenbond:THR:126     -1
Name: 52, dtype: object

>  <hbond:GLY:127>  (54) 
hbond:GLY:127    0
hbond:GLY:127    0
Name: 52, dtype: object

>  <halogenbond:GLY:127>  (54) 
halogenbond:GLY:127    NaN
halogenbond:GLY:127     -1
Name: 52, dtype: object

>  <hydroph_interaction:GLY:127>  (54) 
hydroph_interaction:GLY:127    NaN
hydroph_interaction:GLY:127     -1
Name: 52, dtype: object

>  <hbond:GLY:128>  (54) 
hbond:GLY:128    NaN
hbond:GLY:128     -1
Name: 52, dtype: object

>  <halogenbond:GLY:128>  (54) 
halogenbond:GLY:128    NaN
halogenbond:GLY:128     -1
Name: 52, dtype: object

>  <hydroph_interaction:GLY:128>  (54) 
hydroph_interaction:GLY:128    NaN
hydroph_interaction:GLY:128     -1
Name: 52, dtype: object

>  <hbond:ASN:129>  (54) 
hbond:ASN:129    NaN
hbond:ASN:129     -1
Name: 52, dtype: object

>  <hydroph_interaction:ASN:129>  (54) 
hydroph_interaction:ASN:129    NaN
hydroph_interaction:ASN:129     -1
Name: 52, dtype: object

>  <halogenbond:ASN:129>  (54) 
halogenbond:ASN:129    NaN
halogenbond:ASN:129     -1
Name: 52, dtype: object

>  <hbond:GLY:130>  (54) 
hbond:GLY:130    NaN
hbond:GLY:130     -1
Name: 52, dtype: object

>  <hbond:LEU:131>  (54) 
hbond:LEU:131    NaN
hbond:LEU:131     -1
Name: 52, dtype: object

>  <hydroph_interaction:LEU:131>  (54) 
hydroph_interaction:LEU:131    NaN
hydroph_interaction:LEU:131     -1
Name: 52, dtype: object

>  <halogenbond:LEU:131>  (54) 
halogenbond:LEU:131    NaN
halogenbond:LEU:131     -1
Name: 52, dtype: object

>  <hydroph_interaction:VAL:132>  (54) 
hydroph_interaction:VAL:132    NaN
hydroph_interaction:VAL:132     -1
Name: 52, dtype: object

>  <hbond:VAL:132>  (54) 
hbond:VAL:132    NaN
hbond:VAL:132     -1
Name: 52, dtype: object

>  <hbond:GLY:133>  (54) 
hbond:GLY:133    NaN
hbond:GLY:133     -1
Name: 52, dtype: object

>  <halogenbond:GLY:133>  (54) 
halogenbond:GLY:133    NaN
halogenbond:GLY:133     -1
Name: 52, dtype: object

>  <hydroph_interaction:PHE:134>  (54) 
hydroph_interaction:PHE:134    NaN
hydroph_interaction:PHE:134     -1
Name: 52, dtype: object

>  <hbond:PHE:134>  (54) 
hbond:PHE:134    NaN
hbond:PHE:134     -1
Name: 52, dtype: object

>  <pistack:PHE:134>  (54) 
pistack:PHE:134    NaN
pistack:PHE:134     -1
Name: 52, dtype: object

>  <pication:PHE:134>  (54) 
pication:PHE:134    NaN
pication:PHE:134     -1
Name: 52, dtype: object

>  <halogenbond:PHE:134>  (54) 
halogenbond:PHE:134    NaN
halogenbond:PHE:134     -1
Name: 52, dtype: object

>  <hydroph_interaction:ALA:135>  (54) 
hydroph_interaction:ALA:135    NaN
hydroph_interaction:ALA:135     -1
Name: 52, dtype: object

>  <hbond:ALA:135>  (54) 
hbond:ALA:135    NaN
hbond:ALA:135     -1
Name: 52, dtype: object

$$$$
PV_005012082848
     RDKit          3D

 16 17  0  0  0  0  0  0  0  0999 V2000
   30.4199    8.0701    8.7354 C   0  0  0  0  0  0  0  0  0  0  0  0
   31.0611    9.1867    7.9674 C   0  0  0  0  0  0  0  0  0  0  0  0
   30.5091   10.4981    8.3358 C   0  0  0  0  0  0  0  0  0  0  0  0
   31.0942   11.6736    7.6289 C   0  0  0  0  0  0  0  0  0  0  0  0
   30.5303   13.0208    8.0321 C   0  0  0  0  0  0  0  0  0  0  0  0
   31.1690   13.9476    8.4806 O   0  0  0  0  0  0  0  0  0  0  0  0
   29.1772   13.0298    7.8279 N   0  0  0  0  0  0  0  0  0  0  0  0
   28.7481   14.1593    8.4660 C   0  0  0  0  0  0  0  0  0  0  0  0
   28.5966   14.1199    9.8177 N   0  0  0  0  0  0  0  0  0  0  0  0
   28.4751   15.3502    7.8549 N   0  0  0  0  0  0  0  0  0  0  0  0
   32.0990   11.4789    6.6808 C   0  0  0  0  0  0  0  0  0  0  0  0
   32.7601   12.3690    5.9369 N   0  0  0  0  0  0  0  0  0  0  0  0
   33.6775   11.7593    5.1280 N   0  0  0  0  0  0  0  0  0  0  0  0
   33.5662   10.4606    5.3952 C   0  0  0  0  0  0  0  0  0  0  0  0
   32.5895   10.2108    6.3653 C   0  0  0  0  0  0  0  0  0  0  0  0
   32.0691    9.0795    7.0083 C   0  0  0  0  0  0  0  0  0  0  0  0
  1  2  1  0
  2  3  2  0
  3  4  1  0
  4  5  1  0
  5  6  2  0
  5  7  1  0
  7  8  1  0
  8  9  2  3
  8 10  1  0
  4 11  2  0
 11 12  1  0
 12 13  1  0
 13 14  2  0
 14 15  1  0
 15 16  2  0
 16  2  1  0
 15 11  1  0
A    1
 C1 
A    2
 C2 
A    3
 C3 
A    4
 C4 
A    5
 C5 
A    6
 O1 
A    7
 N1 
A    8
 C6 
A    9
 N2 
A   10
 N3 
A   11
 C7 
A   12
 N4 
A   13
 N5 
A   14
 C8 
A   15
 C9 
A   16
 C10
M  END
>  <ref_pdb>  (55) 
Ax0310a

>  <ref_mols>  (55) 
Ax0554a,Ax0528a

>  <original SMILES>  (55) 
Cc1cc(C(=O)NC(=N)N)c2[nH]ncc2c1

>  <rationale>  (55) 
info halogenbond:C110+G127+D39+A86+S125+E85+Q95+E106+E88+T126+H104+Y64+C65+S87+N129+F83+L131+I82+G128+P91+H21+V84+G133+Y90+Y89+H97+L81+F134+L98+R20+G103+S66+S67+S7+G108+R38+V124+M99+S36; hbond:S87+S125+E88+T126+D109+G108+G103+G128+G130+L131+N129+H104+R68+V124+P91+F83+S67+S66+G112+G133+V132+S77+A135+Y63+A92+A101+M99+F134+L100+I82+Y64+L98+V84+L81+Y94+S80+R38+S37+V102+G8+I123+G111+I113+L114+C65+L22+S96; hydroph_interaction:V124+N129+L40+I123+A135+I82+L100+L98+L131+F83+V132+Y63+F134+H104+A86+V74+P91+A101+F76+M99+L114+A92+Y94+R68+Y72+Y64+V18+V102+W28+G127+G128+L81; pication:H21+H104+Y63+F134+Y90+R68+F83+R20; pistack:H104+F134+Y63+F83+Y94; saltbridge:D39+H104+E106+D109+E85+E88+R68; 

>  <intxn_cluster>  (55) 
-1

>  <intxn_cluster_rank>  (55) 
-1

>  <N_interactions>  (55) 
6

>  <∆∆G>  (55) 
-8.801642

>  <$/mg>  (55) 
163.0

>  <comRMSD>  (55) 
0.987816

>  <N_rotatable_bonds>  (55) 
2

>  <deep_P1_sidechain>  (55) 
nan

>  <farthest_distance_to_substrate>  (55) 
2.346913

>  <hbond:SER:7>  (55) 
hbond:SER:7    0.0
hbond:SER:7      0
Name: 53, dtype: object

>  <halogenbond:SER:7>  (55) 
halogenbond:SER:7    NaN
halogenbond:SER:7     -1
Name: 53, dtype: object

>  <hbond:GLY:8>  (55) 
hbond:GLY:8    NaN
hbond:GLY:8     -1
Name: 53, dtype: object

>  <hydroph_interaction:VAL:18>  (55) 
hydroph_interaction:VAL:18    NaN
hydroph_interaction:VAL:18     -1
Name: 53, dtype: object

>  <hbond:ASN:19>  (55) 
hbond:ASN:19    0.0
hbond:ASN:19      0
Name: 53, dtype: object

>  <hydroph_interaction:ASN:19>  (55) 
hydroph_interaction:ASN:19    0.0
hydroph_interaction:ASN:19      0
Name: 53, dtype: object

>  <halogenbond:ASN:19>  (55) 
halogenbond:ASN:19    0.0
halogenbond:ASN:19      0
Name: 53, dtype: object

>  <hbond:ARG:20>  (55) 
hbond:ARG:20    0.0
hbond:ARG:20      0
Name: 53, dtype: object

>  <hydroph_interaction:ARG:20>  (55) 
hydroph_interaction:ARG:20    0.0
hydroph_interaction:ARG:20      0
Name: 53, dtype: object

>  <saltbridge:ARG:20>  (55) 
saltbridge:ARG:20    0.0
saltbridge:ARG:20      0
Name: 53, dtype: object

>  <halogenbond:ARG:20>  (55) 
halogenbond:ARG:20    NaN
halogenbond:ARG:20     -1
Name: 53, dtype: object

>  <pication:ARG:20>  (55) 
pication:ARG:20    NaN
pication:ARG:20     -1
Name: 53, dtype: object

>  <hbond:HIS:21>  (55) 
hbond:HIS:21    0.0
hbond:HIS:21      0
Name: 53, dtype: object

>  <hydroph_interaction:HIS:21>  (55) 
hydroph_interaction:HIS:21    0.0
hydroph_interaction:HIS:21      0
Name: 53, dtype: object

>  <pistack:HIS:21>  (55) 
pistack:HIS:21    0.0
pistack:HIS:21      0
Name: 53, dtype: object

>  <pication:HIS:21>  (55) 
pication:HIS:21    1.0
pication:HIS:21      1
Name: 53, dtype: object

>  <saltbridge:HIS:21>  (55) 
saltbridge:HIS:21    0.0
saltbridge:HIS:21      0
Name: 53, dtype: object

>  <halogenbond:HIS:21>  (55) 
halogenbond:HIS:21    NaN
halogenbond:HIS:21     -1
Name: 53, dtype: object

>  <hydroph_interaction:LEU:22>  (55) 
hydroph_interaction:LEU:22    0.0
hydroph_interaction:LEU:22      0
Name: 53, dtype: object

>  <hbond:LEU:22>  (55) 
hbond:LEU:22    NaN
hbond:LEU:22     -1
Name: 53, dtype: object

>  <hydroph_interaction:TRP:28>  (55) 
hydroph_interaction:TRP:28    NaN
hydroph_interaction:TRP:28     -1
Name: 53, dtype: object

>  <hbond:SER:36>  (55) 
hbond:SER:36    0.0
hbond:SER:36      0
Name: 53, dtype: object

>  <halogenbond:SER:36>  (55) 
halogenbond:SER:36    NaN
halogenbond:SER:36     -1
Name: 53, dtype: object

>  <hbond:SER:37>  (55) 
hbond:SER:37    NaN
hbond:SER:37     -1
Name: 53, dtype: object

>  <hbond:ARG:38>  (55) 
hbond:ARG:38    NaN
hbond:ARG:38     -1
Name: 53, dtype: object

>  <halogenbond:ARG:38>  (55) 
halogenbond:ARG:38    NaN
halogenbond:ARG:38     -1
Name: 53, dtype: object

>  <saltbridge:ASP:39>  (55) 
saltbridge:ASP:39    1.0
saltbridge:ASP:39      1
Name: 53, dtype: object

>  <halogenbond:ASP:39>  (55) 
halogenbond:ASP:39    NaN
halogenbond:ASP:39     -1
Name: 53, dtype: object

>  <hbond:ASP:39>  (55) 
hbond:ASP:39    0.0
hbond:ASP:39      0
Name: 53, dtype: object

>  <hydroph_interaction:ASP:39>  (55) 
hydroph_interaction:ASP:39    0.0
hydroph_interaction:ASP:39      0
Name: 53, dtype: object

>  <hydroph_interaction:LEU:40>  (55) 
hydroph_interaction:LEU:40    NaN
hydroph_interaction:LEU:40     -1
Name: 53, dtype: object

>  <hydroph_interaction:TYR:63>  (55) 
hydroph_interaction:TYR:63    NaN
hydroph_interaction:TYR:63     -1
Name: 53, dtype: object

>  <hbond:TYR:63>  (55) 
hbond:TYR:63    NaN
hbond:TYR:63     -1
Name: 53, dtype: object

>  <pistack:TYR:63>  (55) 
pistack:TYR:63    NaN
pistack:TYR:63     -1
Name: 53, dtype: object

>  <pication:TYR:63>  (55) 
pication:TYR:63    NaN
pication:TYR:63     -1
Name: 53, dtype: object

>  <halogenbond:TYR:64>  (55) 
halogenbond:TYR:64    NaN
halogenbond:TYR:64     -1
Name: 53, dtype: object

>  <hbond:TYR:64>  (55) 
hbond:TYR:64    NaN
hbond:TYR:64     -1
Name: 53, dtype: object

>  <hydroph_interaction:TYR:64>  (55) 
hydroph_interaction:TYR:64    NaN
hydroph_interaction:TYR:64     -1
Name: 53, dtype: object

>  <halogenbond:CYS:65>  (55) 
halogenbond:CYS:65    NaN
halogenbond:CYS:65     -1
Name: 53, dtype: object

>  <hbond:CYS:65>  (55) 
hbond:CYS:65    NaN
hbond:CYS:65     -1
Name: 53, dtype: object

>  <hbond:SER:66>  (55) 
hbond:SER:66    NaN
hbond:SER:66     -1
Name: 53, dtype: object

>  <halogenbond:SER:66>  (55) 
halogenbond:SER:66    NaN
halogenbond:SER:66     -1
Name: 53, dtype: object

>  <hbond:SER:67>  (55) 
hbond:SER:67    NaN
hbond:SER:67     -1
Name: 53, dtype: object

>  <halogenbond:SER:67>  (55) 
halogenbond:SER:67    NaN
halogenbond:SER:67     -1
Name: 53, dtype: object

>  <hbond:ARG:68>  (55) 
hbond:ARG:68    NaN
hbond:ARG:68     -1
Name: 53, dtype: object

>  <saltbridge:ARG:68>  (55) 
saltbridge:ARG:68    NaN
saltbridge:ARG:68     -1
Name: 53, dtype: object

>  <hydroph_interaction:ARG:68>  (55) 
hydroph_interaction:ARG:68    NaN
hydroph_interaction:ARG:68     -1
Name: 53, dtype: object

>  <pication:ARG:68>  (55) 
pication:ARG:68    NaN
pication:ARG:68     -1
Name: 53, dtype: object

>  <hydroph_interaction:TYR:72>  (55) 
hydroph_interaction:TYR:72    NaN
hydroph_interaction:TYR:72     -1
Name: 53, dtype: object

>  <hydroph_interaction:VAL:74>  (55) 
hydroph_interaction:VAL:74    NaN
hydroph_interaction:VAL:74     -1
Name: 53, dtype: object

>  <hydroph_interaction:PHE:76>  (55) 
hydroph_interaction:PHE:76    NaN
hydroph_interaction:PHE:76     -1
Name: 53, dtype: object

>  <hbond:SER:77>  (55) 
hbond:SER:77    NaN
hbond:SER:77     -1
Name: 53, dtype: object

>  <hbond:SER:80>  (55) 
hbond:SER:80    NaN
hbond:SER:80     -1
Name: 53, dtype: object

>  <hbond:LEU:81>  (55) 
hbond:LEU:81    NaN
hbond:LEU:81     -1
Name: 53, dtype: object

>  <halogenbond:LEU:81>  (55) 
halogenbond:LEU:81    NaN
halogenbond:LEU:81     -1
Name: 53, dtype: object

>  <hydroph_interaction:LEU:81>  (55) 
hydroph_interaction:LEU:81    NaN
hydroph_interaction:LEU:81     -1
Name: 53, dtype: object

>  <hydroph_interaction:ILE:82>  (55) 
hydroph_interaction:ILE:82    NaN
hydroph_interaction:ILE:82     -1
Name: 53, dtype: object

>  <halogenbond:ILE:82>  (55) 
halogenbond:ILE:82    NaN
halogenbond:ILE:82     -1
Name: 53, dtype: object

>  <hbond:ILE:82>  (55) 
hbond:ILE:82    NaN
hbond:ILE:82     -1
Name: 53, dtype: object

>  <hbond:PHE:83>  (55) 
hbond:PHE:83    NaN
hbond:PHE:83     -1
Name: 53, dtype: object

>  <hydroph_interaction:PHE:83>  (55) 
hydroph_interaction:PHE:83    NaN
hydroph_interaction:PHE:83     -1
Name: 53, dtype: object

>  <halogenbond:PHE:83>  (55) 
halogenbond:PHE:83    NaN
halogenbond:PHE:83     -1
Name: 53, dtype: object

>  <pistack:PHE:83>  (55) 
pistack:PHE:83    NaN
pistack:PHE:83     -1
Name: 53, dtype: object

>  <pication:PHE:83>  (55) 
pication:PHE:83    NaN
pication:PHE:83     -1
Name: 53, dtype: object

>  <hydroph_interaction:VAL:84>  (55) 
hydroph_interaction:VAL:84    0.0
hydroph_interaction:VAL:84      0
Name: 53, dtype: object

>  <halogenbond:VAL:84>  (55) 
halogenbond:VAL:84    NaN
halogenbond:VAL:84     -1
Name: 53, dtype: object

>  <hbond:VAL:84>  (55) 
hbond:VAL:84    NaN
hbond:VAL:84     -1
Name: 53, dtype: object

>  <hydroph_interaction:GLU:85>  (55) 
hydroph_interaction:GLU:85    0.0
hydroph_interaction:GLU:85      0
Name: 53, dtype: object

>  <hbond:GLU:85>  (55) 
hbond:GLU:85    0.0
hbond:GLU:85      0
Name: 53, dtype: object

>  <halogenbond:GLU:85>  (55) 
halogenbond:GLU:85    NaN
halogenbond:GLU:85     -1
Name: 53, dtype: object

>  <saltbridge:GLU:85>  (55) 
saltbridge:GLU:85    NaN
saltbridge:GLU:85     -1
Name: 53, dtype: object

>  <halogenbond:ALA:86>  (55) 
halogenbond:ALA:86    NaN
halogenbond:ALA:86     -1
Name: 53, dtype: object

>  <hbond:ALA:86>  (55) 
hbond:ALA:86    0.0
hbond:ALA:86      0
Name: 53, dtype: object

>  <hydroph_interaction:ALA:86>  (55) 
hydroph_interaction:ALA:86    NaN
hydroph_interaction:ALA:86     -1
Name: 53, dtype: object

>  <hbond:SER:87>  (55) 
hbond:SER:87    1
hbond:SER:87    1
Name: 53, dtype: object

>  <halogenbond:SER:87>  (55) 
halogenbond:SER:87    NaN
halogenbond:SER:87     -1
Name: 53, dtype: object

>  <hbond:GLU:88>  (55) 
hbond:GLU:88    1.0
hbond:GLU:88      1
Name: 53, dtype: object

>  <hydroph_interaction:GLU:88>  (55) 
hydroph_interaction:GLU:88    0.0
hydroph_interaction:GLU:88      0
Name: 53, dtype: object

>  <halogenbond:GLU:88>  (55) 
halogenbond:GLU:88    NaN
halogenbond:GLU:88     -1
Name: 53, dtype: object

>  <saltbridge:GLU:88>  (55) 
saltbridge:GLU:88    NaN
saltbridge:GLU:88     -1
Name: 53, dtype: object

>  <hydroph_interaction:TYR:89>  (55) 
hydroph_interaction:TYR:89    0.0
hydroph_interaction:TYR:89      0
Name: 53, dtype: object

>  <pistack:TYR:89>  (55) 
pistack:TYR:89    0.0
pistack:TYR:89      0
Name: 53, dtype: object

>  <hbond:TYR:89>  (55) 
hbond:TYR:89    0.0
hbond:TYR:89      0
Name: 53, dtype: object

>  <halogenbond:TYR:89>  (55) 
halogenbond:TYR:89    NaN
halogenbond:TYR:89     -1
Name: 53, dtype: object

>  <hydroph_interaction:TYR:90>  (55) 
hydroph_interaction:TYR:90    0.0
hydroph_interaction:TYR:90      0
Name: 53, dtype: object

>  <hbond:TYR:90>  (55) 
hbond:TYR:90    0.0
hbond:TYR:90      0
Name: 53, dtype: object

>  <pistack:TYR:90>  (55) 
pistack:TYR:90    0.0
pistack:TYR:90      0
Name: 53, dtype: object

>  <halogenbond:TYR:90>  (55) 
halogenbond:TYR:90    NaN
halogenbond:TYR:90     -1
Name: 53, dtype: object

>  <pication:TYR:90>  (55) 
pication:TYR:90    NaN
pication:TYR:90     -1
Name: 53, dtype: object

>  <hbond:PRO:91>  (55) 
hbond:PRO:91    NaN
hbond:PRO:91     -1
Name: 53, dtype: object

>  <hydroph_interaction:PRO:91>  (55) 
hydroph_interaction:PRO:91    NaN
hydroph_interaction:PRO:91     -1
Name: 53, dtype: object

>  <halogenbond:PRO:91>  (55) 
halogenbond:PRO:91    NaN
halogenbond:PRO:91     -1
Name: 53, dtype: object

>  <hbond:ALA:92>  (55) 
hbond:ALA:92    NaN
hbond:ALA:92     -1
Name: 53, dtype: object

>  <hydroph_interaction:ALA:92>  (55) 
hydroph_interaction:ALA:92    NaN
hydroph_interaction:ALA:92     -1
Name: 53, dtype: object

>  <saltbridge:ARG:93>  (55) 
saltbridge:ARG:93    0.0
saltbridge:ARG:93      0
Name: 53, dtype: object

>  <hbond:ARG:93>  (55) 
hbond:ARG:93    0.0
hbond:ARG:93      0
Name: 53, dtype: object

>  <hydroph_interaction:ARG:93>  (55) 
hydroph_interaction:ARG:93    0.0
hydroph_interaction:ARG:93      0
Name: 53, dtype: object

>  <halogenbond:ARG:93>  (55) 
halogenbond:ARG:93    0.0
halogenbond:ARG:93      0
Name: 53, dtype: object

>  <pication:ARG:93>  (55) 
pication:ARG:93    0.0
pication:ARG:93      0
Name: 53, dtype: object

>  <hydroph_interaction:TYR:94>  (55) 
hydroph_interaction:TYR:94    NaN
hydroph_interaction:TYR:94     -1
Name: 53, dtype: object

>  <pistack:TYR:94>  (55) 
pistack:TYR:94    NaN
pistack:TYR:94     -1
Name: 53, dtype: object

>  <hbond:TYR:94>  (55) 
hbond:TYR:94    NaN
hbond:TYR:94     -1
Name: 53, dtype: object

>  <hbond:GLN:95>  (55) 
hbond:GLN:95    0.0
hbond:GLN:95      0
Name: 53, dtype: object

>  <hydroph_interaction:GLN:95>  (55) 
hydroph_interaction:GLN:95    0.0
hydroph_interaction:GLN:95      0
Name: 53, dtype: object

>  <halogenbond:GLN:95>  (55) 
halogenbond:GLN:95    NaN
halogenbond:GLN:95     -1
Name: 53, dtype: object

>  <hbond:SER:96>  (55) 
hbond:SER:96    NaN
hbond:SER:96     -1
Name: 53, dtype: object

>  <halogenbond:HIS:97>  (55) 
halogenbond:HIS:97    NaN
halogenbond:HIS:97     -1
Name: 53, dtype: object

>  <hydroph_interaction:LEU:98>  (55) 
hydroph_interaction:LEU:98    NaN
hydroph_interaction:LEU:98     -1
Name: 53, dtype: object

>  <hbond:LEU:98>  (55) 
hbond:LEU:98    NaN
hbond:LEU:98     -1
Name: 53, dtype: object

>  <halogenbond:LEU:98>  (55) 
halogenbond:LEU:98    NaN
halogenbond:LEU:98     -1
Name: 53, dtype: object

>  <hbond:MET:99>  (55) 
hbond:MET:99    NaN
hbond:MET:99     -1
Name: 53, dtype: object

>  <hydroph_interaction:MET:99>  (55) 
hydroph_interaction:MET:99    NaN
hydroph_interaction:MET:99     -1
Name: 53, dtype: object

>  <halogenbond:MET:99>  (55) 
halogenbond:MET:99    NaN
halogenbond:MET:99     -1
Name: 53, dtype: object

>  <hydroph_interaction:LEU:100>  (55) 
hydroph_interaction:LEU:100    NaN
hydroph_interaction:LEU:100     -1
Name: 53, dtype: object

>  <hbond:LEU:100>  (55) 
hbond:LEU:100    NaN
hbond:LEU:100     -1
Name: 53, dtype: object

>  <hbond:ALA:101>  (55) 
hbond:ALA:101    NaN
hbond:ALA:101     -1
Name: 53, dtype: object

>  <hydroph_interaction:ALA:101>  (55) 
hydroph_interaction:ALA:101    NaN
hydroph_interaction:ALA:101     -1
Name: 53, dtype: object

>  <hydroph_interaction:VAL:102>  (55) 
hydroph_interaction:VAL:102    NaN
hydroph_interaction:VAL:102     -1
Name: 53, dtype: object

>  <hbond:VAL:102>  (55) 
hbond:VAL:102    NaN
hbond:VAL:102     -1
Name: 53, dtype: object

>  <hbond:GLY:103>  (55) 
hbond:GLY:103    NaN
hbond:GLY:103     -1
Name: 53, dtype: object

>  <halogenbond:GLY:103>  (55) 
halogenbond:GLY:103    NaN
halogenbond:GLY:103     -1
Name: 53, dtype: object

>  <hbond:HIS:104>  (55) 
hbond:HIS:104    NaN
hbond:HIS:104     -1
Name: 53, dtype: object

>  <saltbridge:HIS:104>  (55) 
saltbridge:HIS:104    NaN
saltbridge:HIS:104     -1
Name: 53, dtype: object

>  <pication:HIS:104>  (55) 
pication:HIS:104    NaN
pication:HIS:104     -1
Name: 53, dtype: object

>  <halogenbond:HIS:104>  (55) 
halogenbond:HIS:104    NaN
halogenbond:HIS:104     -1
Name: 53, dtype: object

>  <hydroph_interaction:HIS:104>  (55) 
hydroph_interaction:HIS:104    NaN
hydroph_interaction:HIS:104     -1
Name: 53, dtype: object

>  <pistack:HIS:104>  (55) 
pistack:HIS:104    NaN
pistack:HIS:104     -1
Name: 53, dtype: object

>  <halogenbond:SER:105>  (55) 
halogenbond:SER:105    0.0
halogenbond:SER:105      0
Name: 53, dtype: object

>  <hbond:SER:105>  (55) 
hbond:SER:105    0.0
hbond:SER:105      0
Name: 53, dtype: object

>  <hbond:GLU:106>  (55) 
hbond:GLU:106    0.0
hbond:GLU:106      0
Name: 53, dtype: object

>  <hydroph_interaction:GLU:106>  (55) 
hydroph_interaction:GLU:106    0.0
hydroph_interaction:GLU:106      0
Name: 53, dtype: object

>  <saltbridge:GLU:106>  (55) 
saltbridge:GLU:106    NaN
saltbridge:GLU:106     -1
Name: 53, dtype: object

>  <halogenbond:GLU:106>  (55) 
halogenbond:GLU:106    NaN
halogenbond:GLU:106     -1
Name: 53, dtype: object

>  <hydroph_interaction:PRO:107>  (55) 
hydroph_interaction:PRO:107    0
hydroph_interaction:PRO:107    0
Name: 53, dtype: object

>  <hbond:PRO:107>  (55) 
hbond:PRO:107    0.0
hbond:PRO:107      0
Name: 53, dtype: object

>  <halogenbond:PRO:107>  (55) 
halogenbond:PRO:107    0.0
halogenbond:PRO:107      0
Name: 53, dtype: object

>  <hbond:GLY:108>  (55) 
hbond:GLY:108    NaN
hbond:GLY:108     -1
Name: 53, dtype: object

>  <halogenbond:GLY:108>  (55) 
halogenbond:GLY:108    NaN
halogenbond:GLY:108     -1
Name: 53, dtype: object

>  <hbond:ASP:109>  (55) 
hbond:ASP:109    NaN
hbond:ASP:109     -1
Name: 53, dtype: object

>  <hydroph_interaction:ASP:109>  (55) 
hydroph_interaction:ASP:109    0.0
hydroph_interaction:ASP:109      0
Name: 53, dtype: object

>  <saltbridge:ASP:109>  (55) 
saltbridge:ASP:109    NaN
saltbridge:ASP:109     -1
Name: 53, dtype: object

>  <halogenbond:CYS:110>  (55) 
halogenbond:CYS:110    NaN
halogenbond:CYS:110     -1
Name: 53, dtype: object

>  <hbond:CYS:110>  (55) 
hbond:CYS:110    0.0
hbond:CYS:110      0
Name: 53, dtype: object

>  <hbond:GLY:111>  (55) 
hbond:GLY:111    NaN
hbond:GLY:111     -1
Name: 53, dtype: object

>  <hbond:GLY:112>  (55) 
hbond:GLY:112    NaN
hbond:GLY:112     -1
Name: 53, dtype: object

>  <hbond:ILE:113>  (55) 
hbond:ILE:113    NaN
hbond:ILE:113     -1
Name: 53, dtype: object

>  <hydroph_interaction:LEU:114>  (55) 
hydroph_interaction:LEU:114    NaN
hydroph_interaction:LEU:114     -1
Name: 53, dtype: object

>  <hbond:LEU:114>  (55) 
hbond:LEU:114    NaN
hbond:LEU:114     -1
Name: 53, dtype: object

>  <hydroph_interaction:ILE:123>  (55) 
hydroph_interaction:ILE:123    NaN
hydroph_interaction:ILE:123     -1
Name: 53, dtype: object

>  <hbond:ILE:123>  (55) 
hbond:ILE:123    NaN
hbond:ILE:123     -1
Name: 53, dtype: object

>  <hydroph_interaction:VAL:124>  (55) 
hydroph_interaction:VAL:124    1.0
hydroph_interaction:VAL:124      1
Name: 53, dtype: object

>  <hbond:VAL:124>  (55) 
hbond:VAL:124    NaN
hbond:VAL:124     -1
Name: 53, dtype: object

>  <halogenbond:VAL:124>  (55) 
halogenbond:VAL:124    NaN
halogenbond:VAL:124     -1
Name: 53, dtype: object

>  <hbond:SER:125>  (55) 
hbond:SER:125    1
hbond:SER:125    1
Name: 53, dtype: object

>  <halogenbond:SER:125>  (55) 
halogenbond:SER:125    NaN
halogenbond:SER:125     -1
Name: 53, dtype: object

>  <hydroph_interaction:THR:126>  (55) 
hydroph_interaction:THR:126    0.0
hydroph_interaction:THR:126      0
Name: 53, dtype: object

>  <hbond:THR:126>  (55) 
hbond:THR:126    NaN
hbond:THR:126     -1
Name: 53, dtype: object

>  <halogenbond:THR:126>  (55) 
halogenbond:THR:126    NaN
halogenbond:THR:126     -1
Name: 53, dtype: object

>  <hbond:GLY:127>  (55) 
hbond:GLY:127    0
hbond:GLY:127    0
Name: 53, dtype: object

>  <halogenbond:GLY:127>  (55) 
halogenbond:GLY:127    NaN
halogenbond:GLY:127     -1
Name: 53, dtype: object

>  <hydroph_interaction:GLY:127>  (55) 
hydroph_interaction:GLY:127    NaN
hydroph_interaction:GLY:127     -1
Name: 53, dtype: object

>  <hbond:GLY:128>  (55) 
hbond:GLY:128    NaN
hbond:GLY:128     -1
Name: 53, dtype: object

>  <halogenbond:GLY:128>  (55) 
halogenbond:GLY:128    NaN
halogenbond:GLY:128     -1
Name: 53, dtype: object

>  <hydroph_interaction:GLY:128>  (55) 
hydroph_interaction:GLY:128    NaN
hydroph_interaction:GLY:128     -1
Name: 53, dtype: object

>  <hbond:ASN:129>  (55) 
hbond:ASN:129    NaN
hbond:ASN:129     -1
Name: 53, dtype: object

>  <hydroph_interaction:ASN:129>  (55) 
hydroph_interaction:ASN:129    NaN
hydroph_interaction:ASN:129     -1
Name: 53, dtype: object

>  <halogenbond:ASN:129>  (55) 
halogenbond:ASN:129    NaN
halogenbond:ASN:129     -1
Name: 53, dtype: object

>  <hbond:GLY:130>  (55) 
hbond:GLY:130    NaN
hbond:GLY:130     -1
Name: 53, dtype: object

>  <hbond:LEU:131>  (55) 
hbond:LEU:131    NaN
hbond:LEU:131     -1
Name: 53, dtype: object

>  <hydroph_interaction:LEU:131>  (55) 
hydroph_interaction:LEU:131    NaN
hydroph_interaction:LEU:131     -1
Name: 53, dtype: object

>  <halogenbond:LEU:131>  (55) 
halogenbond:LEU:131    NaN
halogenbond:LEU:131     -1
Name: 53, dtype: object

>  <hydroph_interaction:VAL:132>  (55) 
hydroph_interaction:VAL:132    NaN
hydroph_interaction:VAL:132     -1
Name: 53, dtype: object

>  <hbond:VAL:132>  (55) 
hbond:VAL:132    NaN
hbond:VAL:132     -1
Name: 53, dtype: object

>  <hbond:GLY:133>  (55) 
hbond:GLY:133    NaN
hbond:GLY:133     -1
Name: 53, dtype: object

>  <halogenbond:GLY:133>  (55) 
halogenbond:GLY:133    NaN
halogenbond:GLY:133     -1
Name: 53, dtype: object

>  <hydroph_interaction:PHE:134>  (55) 
hydroph_interaction:PHE:134    NaN
hydroph_interaction:PHE:134     -1
Name: 53, dtype: object

>  <hbond:PHE:134>  (55) 
hbond:PHE:134    NaN
hbond:PHE:134     -1
Name: 53, dtype: object

>  <pistack:PHE:134>  (55) 
pistack:PHE:134    NaN
pistack:PHE:134     -1
Name: 53, dtype: object

>  <pication:PHE:134>  (55) 
pication:PHE:134    NaN
pication:PHE:134     -1
Name: 53, dtype: object

>  <halogenbond:PHE:134>  (55) 
halogenbond:PHE:134    NaN
halogenbond:PHE:134     -1
Name: 53, dtype: object

>  <hydroph_interaction:ALA:135>  (55) 
hydroph_interaction:ALA:135    NaN
hydroph_interaction:ALA:135     -1
Name: 53, dtype: object

>  <hbond:ALA:135>  (55) 
hbond:ALA:135    NaN
hbond:ALA:135     -1
Name: 53, dtype: object

$$$$
Z739870566
     RDKit          3D

 15 15  0  0  0  0  0  0  0  0999 V2000
   27.5160   15.6244    9.3395 C   0  0  0  0  0  0  0  0  0  0  0  0
   28.3878   14.5538    9.9423 C   0  0  0  0  0  0  0  0  0  0  0  0
   28.8924   13.6315    8.8524 C   0  0  0  0  0  0  0  0  0  0  0  0
   30.4089   13.6307    8.6108 C   0  0  0  0  0  0  0  0  0  0  0  0
   31.2154   14.0981    9.4139 O   0  0  0  0  0  0  0  0  0  0  0  0
   30.6831   13.0236    7.3286 N   0  0  0  0  0  0  0  0  0  0  0  0
   29.8150   13.2789    6.2950 C   0  0  0  0  0  0  0  0  0  0  0  0
   31.1660   11.6730    7.3025 C   0  0  0  0  0  0  0  0  0  0  0  0
   32.2007   11.3151    6.4476 C   0  0  0  0  0  0  0  0  0  0  0  0
   32.5853    9.9909    6.4749 C   0  0  0  0  0  0  0  0  0  0  0  0
   33.6412    9.7458    5.5701 C   0  0  0  0  0  0  0  0  0  0  0  0
   32.0067    9.0310    7.2892 C   0  0  0  0  0  0  0  0  0  0  0  0
   30.9930    9.3902    8.1387 C   0  0  0  0  0  0  0  0  0  0  0  0
   30.3473    8.4076    9.0373 C   0  0  0  0  0  0  0  0  0  0  0  0
   30.5853   10.7134    8.1331 C   0  0  0  0  0  0  0  0  0  0  0  0
  1  2  1  0
  2  3  1  0
  3  4  1  0
  4  5  2  0
  4  6  1  0
  6  7  1  0
  6  8  1  0
  8  9  2  0
  9 10  1  0
 10 11  1  0
 10 12  2  0
 12 13  1  0
 13 14  1  0
 13 15  2  0
 15  8  1  0
A    1
 C1 
A    2
 C2 
A    3
 C3 
A    4
 C4 
A    5
 O1 
A    6
 N1 
A    7
 C5 
A    8
 C6 
A    9
 C7 
A   10
 C8 
A   11
 C9 
A   12
 C10
A   13
 C11
A   14
 C12
A   15
 C13
M  END
>  <ref_pdb>  (56) 
Ax0310a

>  <ref_mols>  (56) 
Ax0451a,Ax0739a

>  <original SMILES>  (56) 
CCCC(=O)N(C)c1cc(C)cc(C)c1

>  <rationale>  (56) 
info halogenbond:G127+A86+S125+E85+Q95+E106+T126+H104+Y64+C65+S87+N129+F83+R93+L131+I82+G128+P91+N19+H21+V84+G133+Y90+Y89+H97+L81+F134+L98+R20+G103+S66+S67+S7+G108+R38+V124+M99+S36; hbond:S87+G108+G103+G128+G130+L131+N129+N19+R68+V124+P91+F83+S67+S7+S66+G112+G133+V132+R20+Y89+S77+A135+Y63+A92+A101+M99+F134+L100+I82+Y64+S36+L98+V84+L81+Y94+S80+R38+S37+V102+G8+I123+G111+I113+L114+C65+L22+S96; hydroph_interaction:V124+Y90+Y89+H21+P107+N129+D39+N19+L40+I123+A135+Q95+I82+L100+L98+L131+F83+R93+F134+H104+R20+A86+V74+P91+A101+F76+M99+L114+A92+Y94+R68+Y72+Y64+V18+V102+W28+G127+G128+L81; pication:H21+H104+R93+Y63+F134+Y90+R68+F83+R20; pistack:H21+Y89+Y90+H104+F134+Y63+F83+Y94; saltbridge:R93+H104+E106+D109+E85+E88+R68+R20; 

>  <intxn_cluster>  (56) 
-1

>  <intxn_cluster_rank>  (56) 
-1

>  <N_interactions>  (56) 
6

>  <∆∆G>  (56) 
-14.320634

>  <$/mg>  (56) 
163.0

>  <comRMSD>  (56) 
0.723011

>  <N_rotatable_bonds>  (56) 
7

>  <deep_P1_sidechain>  (56) 
nan

>  <farthest_distance_to_substrate>  (56) 
2.396487

>  <hbond:SER:7>  (56) 
hbond:SER:7    NaN
hbond:SER:7     -1
Name: 54, dtype: object

>  <halogenbond:SER:7>  (56) 
halogenbond:SER:7    NaN
halogenbond:SER:7     -1
Name: 54, dtype: object

>  <hbond:GLY:8>  (56) 
hbond:GLY:8    NaN
hbond:GLY:8     -1
Name: 54, dtype: object

>  <hydroph_interaction:VAL:18>  (56) 
hydroph_interaction:VAL:18    NaN
hydroph_interaction:VAL:18     -1
Name: 54, dtype: object

>  <hbond:ASN:19>  (56) 
hbond:ASN:19    NaN
hbond:ASN:19     -1
Name: 54, dtype: object

>  <hydroph_interaction:ASN:19>  (56) 
hydroph_interaction:ASN:19    NaN
hydroph_interaction:ASN:19     -1
Name: 54, dtype: object

>  <halogenbond:ASN:19>  (56) 
halogenbond:ASN:19    NaN
halogenbond:ASN:19     -1
Name: 54, dtype: object

>  <hbond:ARG:20>  (56) 
hbond:ARG:20    NaN
hbond:ARG:20     -1
Name: 54, dtype: object

>  <hydroph_interaction:ARG:20>  (56) 
hydroph_interaction:ARG:20    NaN
hydroph_interaction:ARG:20     -1
Name: 54, dtype: object

>  <saltbridge:ARG:20>  (56) 
saltbridge:ARG:20    NaN
saltbridge:ARG:20     -1
Name: 54, dtype: object

>  <halogenbond:ARG:20>  (56) 
halogenbond:ARG:20    NaN
halogenbond:ARG:20     -1
Name: 54, dtype: object

>  <pication:ARG:20>  (56) 
pication:ARG:20    NaN
pication:ARG:20     -1
Name: 54, dtype: object

>  <hbond:HIS:21>  (56) 
hbond:HIS:21    0.0
hbond:HIS:21      0
Name: 54, dtype: object

>  <hydroph_interaction:HIS:21>  (56) 
hydroph_interaction:HIS:21    1.0
hydroph_interaction:HIS:21      1
Name: 54, dtype: object

>  <pistack:HIS:21>  (56) 
pistack:HIS:21    NaN
pistack:HIS:21     -1
Name: 54, dtype: object

>  <pication:HIS:21>  (56) 
pication:HIS:21    NaN
pication:HIS:21     -1
Name: 54, dtype: object

>  <saltbridge:HIS:21>  (56) 
saltbridge:HIS:21    0.0
saltbridge:HIS:21      0
Name: 54, dtype: object

>  <halogenbond:HIS:21>  (56) 
halogenbond:HIS:21    NaN
halogenbond:HIS:21     -1
Name: 54, dtype: object

>  <hydroph_interaction:LEU:22>  (56) 
hydroph_interaction:LEU:22    0.0
hydroph_interaction:LEU:22      0
Name: 54, dtype: object

>  <hbond:LEU:22>  (56) 
hbond:LEU:22    NaN
hbond:LEU:22     -1
Name: 54, dtype: object

>  <hydroph_interaction:TRP:28>  (56) 
hydroph_interaction:TRP:28    NaN
hydroph_interaction:TRP:28     -1
Name: 54, dtype: object

>  <hbond:SER:36>  (56) 
hbond:SER:36    NaN
hbond:SER:36     -1
Name: 54, dtype: object

>  <halogenbond:SER:36>  (56) 
halogenbond:SER:36    NaN
halogenbond:SER:36     -1
Name: 54, dtype: object

>  <hbond:SER:37>  (56) 
hbond:SER:37    NaN
hbond:SER:37     -1
Name: 54, dtype: object

>  <hbond:ARG:38>  (56) 
hbond:ARG:38    NaN
hbond:ARG:38     -1
Name: 54, dtype: object

>  <halogenbond:ARG:38>  (56) 
halogenbond:ARG:38    NaN
halogenbond:ARG:38     -1
Name: 54, dtype: object

>  <saltbridge:ASP:39>  (56) 
saltbridge:ASP:39    0.0
saltbridge:ASP:39      0
Name: 54, dtype: object

>  <halogenbond:ASP:39>  (56) 
halogenbond:ASP:39    0.0
halogenbond:ASP:39      0
Name: 54, dtype: object

>  <hbond:ASP:39>  (56) 
hbond:ASP:39    0.0
hbond:ASP:39      0
Name: 54, dtype: object

>  <hydroph_interaction:ASP:39>  (56) 
hydroph_interaction:ASP:39    NaN
hydroph_interaction:ASP:39     -1
Name: 54, dtype: object

>  <hydroph_interaction:LEU:40>  (56) 
hydroph_interaction:LEU:40    NaN
hydroph_interaction:LEU:40     -1
Name: 54, dtype: object

>  <hydroph_interaction:TYR:63>  (56) 
hydroph_interaction:TYR:63    0.0
hydroph_interaction:TYR:63      0
Name: 54, dtype: object

>  <hbond:TYR:63>  (56) 
hbond:TYR:63    NaN
hbond:TYR:63     -1
Name: 54, dtype: object

>  <pistack:TYR:63>  (56) 
pistack:TYR:63    NaN
pistack:TYR:63     -1
Name: 54, dtype: object

>  <pication:TYR:63>  (56) 
pication:TYR:63    NaN
pication:TYR:63     -1
Name: 54, dtype: object

>  <halogenbond:TYR:64>  (56) 
halogenbond:TYR:64    NaN
halogenbond:TYR:64     -1
Name: 54, dtype: object

>  <hbond:TYR:64>  (56) 
hbond:TYR:64    NaN
hbond:TYR:64     -1
Name: 54, dtype: object

>  <hydroph_interaction:TYR:64>  (56) 
hydroph_interaction:TYR:64    NaN
hydroph_interaction:TYR:64     -1
Name: 54, dtype: object

>  <halogenbond:CYS:65>  (56) 
halogenbond:CYS:65    NaN
halogenbond:CYS:65     -1
Name: 54, dtype: object

>  <hbond:CYS:65>  (56) 
hbond:CYS:65    NaN
hbond:CYS:65     -1
Name: 54, dtype: object

>  <hbond:SER:66>  (56) 
hbond:SER:66    NaN
hbond:SER:66     -1
Name: 54, dtype: object

>  <halogenbond:SER:66>  (56) 
halogenbond:SER:66    NaN
halogenbond:SER:66     -1
Name: 54, dtype: object

>  <hbond:SER:67>  (56) 
hbond:SER:67    NaN
hbond:SER:67     -1
Name: 54, dtype: object

>  <halogenbond:SER:67>  (56) 
halogenbond:SER:67    NaN
halogenbond:SER:67     -1
Name: 54, dtype: object

>  <hbond:ARG:68>  (56) 
hbond:ARG:68    NaN
hbond:ARG:68     -1
Name: 54, dtype: object

>  <saltbridge:ARG:68>  (56) 
saltbridge:ARG:68    NaN
saltbridge:ARG:68     -1
Name: 54, dtype: object

>  <hydroph_interaction:ARG:68>  (56) 
hydroph_interaction:ARG:68    NaN
hydroph_interaction:ARG:68     -1
Name: 54, dtype: object

>  <pication:ARG:68>  (56) 
pication:ARG:68    NaN
pication:ARG:68     -1
Name: 54, dtype: object

>  <hydroph_interaction:TYR:72>  (56) 
hydroph_interaction:TYR:72    NaN
hydroph_interaction:TYR:72     -1
Name: 54, dtype: object

>  <hydroph_interaction:VAL:74>  (56) 
hydroph_interaction:VAL:74    NaN
hydroph_interaction:VAL:74     -1
Name: 54, dtype: object

>  <hydroph_interaction:PHE:76>  (56) 
hydroph_interaction:PHE:76    NaN
hydroph_interaction:PHE:76     -1
Name: 54, dtype: object

>  <hbond:SER:77>  (56) 
hbond:SER:77    NaN
hbond:SER:77     -1
Name: 54, dtype: object

>  <hbond:SER:80>  (56) 
hbond:SER:80    NaN
hbond:SER:80     -1
Name: 54, dtype: object

>  <hbond:LEU:81>  (56) 
hbond:LEU:81    NaN
hbond:LEU:81     -1
Name: 54, dtype: object

>  <halogenbond:LEU:81>  (56) 
halogenbond:LEU:81    NaN
halogenbond:LEU:81     -1
Name: 54, dtype: object

>  <hydroph_interaction:LEU:81>  (56) 
hydroph_interaction:LEU:81    NaN
hydroph_interaction:LEU:81     -1
Name: 54, dtype: object

>  <hydroph_interaction:ILE:82>  (56) 
hydroph_interaction:ILE:82    NaN
hydroph_interaction:ILE:82     -1
Name: 54, dtype: object

>  <halogenbond:ILE:82>  (56) 
halogenbond:ILE:82    NaN
halogenbond:ILE:82     -1
Name: 54, dtype: object

>  <hbond:ILE:82>  (56) 
hbond:ILE:82    NaN
hbond:ILE:82     -1
Name: 54, dtype: object

>  <hbond:PHE:83>  (56) 
hbond:PHE:83    NaN
hbond:PHE:83     -1
Name: 54, dtype: object

>  <hydroph_interaction:PHE:83>  (56) 
hydroph_interaction:PHE:83    NaN
hydroph_interaction:PHE:83     -1
Name: 54, dtype: object

>  <halogenbond:PHE:83>  (56) 
halogenbond:PHE:83    NaN
halogenbond:PHE:83     -1
Name: 54, dtype: object

>  <pistack:PHE:83>  (56) 
pistack:PHE:83    NaN
pistack:PHE:83     -1
Name: 54, dtype: object

>  <pication:PHE:83>  (56) 
pication:PHE:83    NaN
pication:PHE:83     -1
Name: 54, dtype: object

>  <hydroph_interaction:VAL:84>  (56) 
hydroph_interaction:VAL:84    0.0
hydroph_interaction:VAL:84      0
Name: 54, dtype: object

>  <halogenbond:VAL:84>  (56) 
halogenbond:VAL:84    NaN
halogenbond:VAL:84     -1
Name: 54, dtype: object

>  <hbond:VAL:84>  (56) 
hbond:VAL:84    NaN
hbond:VAL:84     -1
Name: 54, dtype: object

>  <hydroph_interaction:GLU:85>  (56) 
hydroph_interaction:GLU:85    0.0
hydroph_interaction:GLU:85      0
Name: 54, dtype: object

>  <hbond:GLU:85>  (56) 
hbond:GLU:85    0.0
hbond:GLU:85      0
Name: 54, dtype: object

>  <halogenbond:GLU:85>  (56) 
halogenbond:GLU:85    NaN
halogenbond:GLU:85     -1
Name: 54, dtype: object

>  <saltbridge:GLU:85>  (56) 
saltbridge:GLU:85    NaN
saltbridge:GLU:85     -1
Name: 54, dtype: object

>  <halogenbond:ALA:86>  (56) 
halogenbond:ALA:86    NaN
halogenbond:ALA:86     -1
Name: 54, dtype: object

>  <hbond:ALA:86>  (56) 
hbond:ALA:86    0.0
hbond:ALA:86      0
Name: 54, dtype: object

>  <hydroph_interaction:ALA:86>  (56) 
hydroph_interaction:ALA:86    NaN
hydroph_interaction:ALA:86     -1
Name: 54, dtype: object

>  <hbond:SER:87>  (56) 
hbond:SER:87    1
hbond:SER:87    1
Name: 54, dtype: object

>  <halogenbond:SER:87>  (56) 
halogenbond:SER:87    NaN
halogenbond:SER:87     -1
Name: 54, dtype: object

>  <hbond:GLU:88>  (56) 
hbond:GLU:88    0.0
hbond:GLU:88      0
Name: 54, dtype: object

>  <hydroph_interaction:GLU:88>  (56) 
hydroph_interaction:GLU:88    0.0
hydroph_interaction:GLU:88      0
Name: 54, dtype: object

>  <halogenbond:GLU:88>  (56) 
halogenbond:GLU:88    0.0
halogenbond:GLU:88      0
Name: 54, dtype: object

>  <saltbridge:GLU:88>  (56) 
saltbridge:GLU:88    NaN
saltbridge:GLU:88     -1
Name: 54, dtype: object

>  <hydroph_interaction:TYR:89>  (56) 
hydroph_interaction:TYR:89    1.0
hydroph_interaction:TYR:89      1
Name: 54, dtype: object

>  <pistack:TYR:89>  (56) 
pistack:TYR:89    NaN
pistack:TYR:89     -1
Name: 54, dtype: object

>  <hbond:TYR:89>  (56) 
hbond:TYR:89    NaN
hbond:TYR:89     -1
Name: 54, dtype: object

>  <halogenbond:TYR:89>  (56) 
halogenbond:TYR:89    NaN
halogenbond:TYR:89     -1
Name: 54, dtype: object

>  <hydroph_interaction:TYR:90>  (56) 
hydroph_interaction:TYR:90    1.0
hydroph_interaction:TYR:90      1
Name: 54, dtype: object

>  <hbond:TYR:90>  (56) 
hbond:TYR:90    0.0
hbond:TYR:90      0
Name: 54, dtype: object

>  <pistack:TYR:90>  (56) 
pistack:TYR:90    NaN
pistack:TYR:90     -1
Name: 54, dtype: object

>  <halogenbond:TYR:90>  (56) 
halogenbond:TYR:90    NaN
halogenbond:TYR:90     -1
Name: 54, dtype: object

>  <pication:TYR:90>  (56) 
pication:TYR:90    NaN
pication:TYR:90     -1
Name: 54, dtype: object

>  <hbond:PRO:91>  (56) 
hbond:PRO:91    NaN
hbond:PRO:91     -1
Name: 54, dtype: object

>  <hydroph_interaction:PRO:91>  (56) 
hydroph_interaction:PRO:91    NaN
hydroph_interaction:PRO:91     -1
Name: 54, dtype: object

>  <halogenbond:PRO:91>  (56) 
halogenbond:PRO:91    NaN
halogenbond:PRO:91     -1
Name: 54, dtype: object

>  <hbond:ALA:92>  (56) 
hbond:ALA:92    NaN
hbond:ALA:92     -1
Name: 54, dtype: object

>  <hydroph_interaction:ALA:92>  (56) 
hydroph_interaction:ALA:92    NaN
hydroph_interaction:ALA:92     -1
Name: 54, dtype: object

>  <saltbridge:ARG:93>  (56) 
saltbridge:ARG:93    NaN
saltbridge:ARG:93     -1
Name: 54, dtype: object

>  <hbond:ARG:93>  (56) 
hbond:ARG:93    0.0
hbond:ARG:93      0
Name: 54, dtype: object

>  <hydroph_interaction:ARG:93>  (56) 
hydroph_interaction:ARG:93    NaN
hydroph_interaction:ARG:93     -1
Name: 54, dtype: object

>  <halogenbond:ARG:93>  (56) 
halogenbond:ARG:93    NaN
halogenbond:ARG:93     -1
Name: 54, dtype: object

>  <pication:ARG:93>  (56) 
pication:ARG:93    NaN
pication:ARG:93     -1
Name: 54, dtype: object

>  <hydroph_interaction:TYR:94>  (56) 
hydroph_interaction:TYR:94    NaN
hydroph_interaction:TYR:94     -1
Name: 54, dtype: object

>  <pistack:TYR:94>  (56) 
pistack:TYR:94    NaN
pistack:TYR:94     -1
Name: 54, dtype: object

>  <hbond:TYR:94>  (56) 
hbond:TYR:94    NaN
hbond:TYR:94     -1
Name: 54, dtype: object

>  <hbond:GLN:95>  (56) 
hbond:GLN:95    0.0
hbond:GLN:95      0
Name: 54, dtype: object

>  <hydroph_interaction:GLN:95>  (56) 
hydroph_interaction:GLN:95    NaN
hydroph_interaction:GLN:95     -1
Name: 54, dtype: object

>  <halogenbond:GLN:95>  (56) 
halogenbond:GLN:95    NaN
halogenbond:GLN:95     -1
Name: 54, dtype: object

>  <hbond:SER:96>  (56) 
hbond:SER:96    NaN
hbond:SER:96     -1
Name: 54, dtype: object

>  <halogenbond:HIS:97>  (56) 
halogenbond:HIS:97    NaN
halogenbond:HIS:97     -1
Name: 54, dtype: object

>  <hydroph_interaction:LEU:98>  (56) 
hydroph_interaction:LEU:98    NaN
hydroph_interaction:LEU:98     -1
Name: 54, dtype: object

>  <hbond:LEU:98>  (56) 
hbond:LEU:98    NaN
hbond:LEU:98     -1
Name: 54, dtype: object

>  <halogenbond:LEU:98>  (56) 
halogenbond:LEU:98    NaN
halogenbond:LEU:98     -1
Name: 54, dtype: object

>  <hbond:MET:99>  (56) 
hbond:MET:99    NaN
hbond:MET:99     -1
Name: 54, dtype: object

>  <hydroph_interaction:MET:99>  (56) 
hydroph_interaction:MET:99    NaN
hydroph_interaction:MET:99     -1
Name: 54, dtype: object

>  <halogenbond:MET:99>  (56) 
halogenbond:MET:99    NaN
halogenbond:MET:99     -1
Name: 54, dtype: object

>  <hydroph_interaction:LEU:100>  (56) 
hydroph_interaction:LEU:100    NaN
hydroph_interaction:LEU:100     -1
Name: 54, dtype: object

>  <hbond:LEU:100>  (56) 
hbond:LEU:100    NaN
hbond:LEU:100     -1
Name: 54, dtype: object

>  <hbond:ALA:101>  (56) 
hbond:ALA:101    NaN
hbond:ALA:101     -1
Name: 54, dtype: object

>  <hydroph_interaction:ALA:101>  (56) 
hydroph_interaction:ALA:101    NaN
hydroph_interaction:ALA:101     -1
Name: 54, dtype: object

>  <hydroph_interaction:VAL:102>  (56) 
hydroph_interaction:VAL:102    NaN
hydroph_interaction:VAL:102     -1
Name: 54, dtype: object

>  <hbond:VAL:102>  (56) 
hbond:VAL:102    NaN
hbond:VAL:102     -1
Name: 54, dtype: object

>  <hbond:GLY:103>  (56) 
hbond:GLY:103    NaN
hbond:GLY:103     -1
Name: 54, dtype: object

>  <halogenbond:GLY:103>  (56) 
halogenbond:GLY:103    NaN
halogenbond:GLY:103     -1
Name: 54, dtype: object

>  <hbond:HIS:104>  (56) 
hbond:HIS:104    0.0
hbond:HIS:104      0
Name: 54, dtype: object

>  <saltbridge:HIS:104>  (56) 
saltbridge:HIS:104    NaN
saltbridge:HIS:104     -1
Name: 54, dtype: object

>  <pication:HIS:104>  (56) 
pication:HIS:104    NaN
pication:HIS:104     -1
Name: 54, dtype: object

>  <halogenbond:HIS:104>  (56) 
halogenbond:HIS:104    NaN
halogenbond:HIS:104     -1
Name: 54, dtype: object

>  <hydroph_interaction:HIS:104>  (56) 
hydroph_interaction:HIS:104    NaN
hydroph_interaction:HIS:104     -1
Name: 54, dtype: object

>  <pistack:HIS:104>  (56) 
pistack:HIS:104    NaN
pistack:HIS:104     -1
Name: 54, dtype: object

>  <halogenbond:SER:105>  (56) 
halogenbond:SER:105    0.0
halogenbond:SER:105      0
Name: 54, dtype: object

>  <hbond:SER:105>  (56) 
hbond:SER:105    0.0
hbond:SER:105      0
Name: 54, dtype: object

>  <hbond:GLU:106>  (56) 
hbond:GLU:106    0.0
hbond:GLU:106      0
Name: 54, dtype: object

>  <hydroph_interaction:GLU:106>  (56) 
hydroph_interaction:GLU:106    0.0
hydroph_interaction:GLU:106      0
Name: 54, dtype: object

>  <saltbridge:GLU:106>  (56) 
saltbridge:GLU:106    NaN
saltbridge:GLU:106     -1
Name: 54, dtype: object

>  <halogenbond:GLU:106>  (56) 
halogenbond:GLU:106    NaN
halogenbond:GLU:106     -1
Name: 54, dtype: object

>  <hydroph_interaction:PRO:107>  (56) 
hydroph_interaction:PRO:107    1
hydroph_interaction:PRO:107    1
Name: 54, dtype: object

>  <hbond:PRO:107>  (56) 
hbond:PRO:107    0.0
hbond:PRO:107      0
Name: 54, dtype: object

>  <halogenbond:PRO:107>  (56) 
halogenbond:PRO:107    0.0
halogenbond:PRO:107      0
Name: 54, dtype: object

>  <hbond:GLY:108>  (56) 
hbond:GLY:108    NaN
hbond:GLY:108     -1
Name: 54, dtype: object

>  <halogenbond:GLY:108>  (56) 
halogenbond:GLY:108    NaN
halogenbond:GLY:108     -1
Name: 54, dtype: object

>  <hbond:ASP:109>  (56) 
hbond:ASP:109    0.0
hbond:ASP:109      0
Name: 54, dtype: object

>  <hydroph_interaction:ASP:109>  (56) 
hydroph_interaction:ASP:109    0.0
hydroph_interaction:ASP:109      0
Name: 54, dtype: object

>  <saltbridge:ASP:109>  (56) 
saltbridge:ASP:109    NaN
saltbridge:ASP:109     -1
Name: 54, dtype: object

>  <halogenbond:CYS:110>  (56) 
halogenbond:CYS:110    0.0
halogenbond:CYS:110      0
Name: 54, dtype: object

>  <hbond:CYS:110>  (56) 
hbond:CYS:110    0.0
hbond:CYS:110      0
Name: 54, dtype: object

>  <hbond:GLY:111>  (56) 
hbond:GLY:111    NaN
hbond:GLY:111     -1
Name: 54, dtype: object

>  <hbond:GLY:112>  (56) 
hbond:GLY:112    NaN
hbond:GLY:112     -1
Name: 54, dtype: object

>  <hbond:ILE:113>  (56) 
hbond:ILE:113    NaN
hbond:ILE:113     -1
Name: 54, dtype: object

>  <hydroph_interaction:LEU:114>  (56) 
hydroph_interaction:LEU:114    NaN
hydroph_interaction:LEU:114     -1
Name: 54, dtype: object

>  <hbond:LEU:114>  (56) 
hbond:LEU:114    NaN
hbond:LEU:114     -1
Name: 54, dtype: object

>  <hydroph_interaction:ILE:123>  (56) 
hydroph_interaction:ILE:123    NaN
hydroph_interaction:ILE:123     -1
Name: 54, dtype: object

>  <hbond:ILE:123>  (56) 
hbond:ILE:123    NaN
hbond:ILE:123     -1
Name: 54, dtype: object

>  <hydroph_interaction:VAL:124>  (56) 
hydroph_interaction:VAL:124    1.0
hydroph_interaction:VAL:124      1
Name: 54, dtype: object

>  <hbond:VAL:124>  (56) 
hbond:VAL:124    NaN
hbond:VAL:124     -1
Name: 54, dtype: object

>  <halogenbond:VAL:124>  (56) 
halogenbond:VAL:124    NaN
halogenbond:VAL:124     -1
Name: 54, dtype: object

>  <hbond:SER:125>  (56) 
hbond:SER:125    0
hbond:SER:125    0
Name: 54, dtype: object

>  <halogenbond:SER:125>  (56) 
halogenbond:SER:125    NaN
halogenbond:SER:125     -1
Name: 54, dtype: object

>  <hydroph_interaction:THR:126>  (56) 
hydroph_interaction:THR:126    0.0
hydroph_interaction:THR:126      0
Name: 54, dtype: object

>  <hbond:THR:126>  (56) 
hbond:THR:126    0.0
hbond:THR:126      0
Name: 54, dtype: object

>  <halogenbond:THR:126>  (56) 
halogenbond:THR:126    NaN
halogenbond:THR:126     -1
Name: 54, dtype: object

>  <hbond:GLY:127>  (56) 
hbond:GLY:127    0
hbond:GLY:127    0
Name: 54, dtype: object

>  <halogenbond:GLY:127>  (56) 
halogenbond:GLY:127    NaN
halogenbond:GLY:127     -1
Name: 54, dtype: object

>  <hydroph_interaction:GLY:127>  (56) 
hydroph_interaction:GLY:127    NaN
hydroph_interaction:GLY:127     -1
Name: 54, dtype: object

>  <hbond:GLY:128>  (56) 
hbond:GLY:128    NaN
hbond:GLY:128     -1
Name: 54, dtype: object

>  <halogenbond:GLY:128>  (56) 
halogenbond:GLY:128    NaN
halogenbond:GLY:128     -1
Name: 54, dtype: object

>  <hydroph_interaction:GLY:128>  (56) 
hydroph_interaction:GLY:128    NaN
hydroph_interaction:GLY:128     -1
Name: 54, dtype: object

>  <hbond:ASN:129>  (56) 
hbond:ASN:129    NaN
hbond:ASN:129     -1
Name: 54, dtype: object

>  <hydroph_interaction:ASN:129>  (56) 
hydroph_interaction:ASN:129    NaN
hydroph_interaction:ASN:129     -1
Name: 54, dtype: object

>  <halogenbond:ASN:129>  (56) 
halogenbond:ASN:129    NaN
halogenbond:ASN:129     -1
Name: 54, dtype: object

>  <hbond:GLY:130>  (56) 
hbond:GLY:130    NaN
hbond:GLY:130     -1
Name: 54, dtype: object

>  <hbond:LEU:131>  (56) 
hbond:LEU:131    NaN
hbond:LEU:131     -1
Name: 54, dtype: object

>  <hydroph_interaction:LEU:131>  (56) 
hydroph_interaction:LEU:131    NaN
hydroph_interaction:LEU:131     -1
Name: 54, dtype: object

>  <halogenbond:LEU:131>  (56) 
halogenbond:LEU:131    NaN
halogenbond:LEU:131     -1
Name: 54, dtype: object

>  <hydroph_interaction:VAL:132>  (56) 
hydroph_interaction:VAL:132    0.0
hydroph_interaction:VAL:132      0
Name: 54, dtype: object

>  <hbond:VAL:132>  (56) 
hbond:VAL:132    NaN
hbond:VAL:132     -1
Name: 54, dtype: object

>  <hbond:GLY:133>  (56) 
hbond:GLY:133    NaN
hbond:GLY:133     -1
Name: 54, dtype: object

>  <halogenbond:GLY:133>  (56) 
halogenbond:GLY:133    NaN
halogenbond:GLY:133     -1
Name: 54, dtype: object

>  <hydroph_interaction:PHE:134>  (56) 
hydroph_interaction:PHE:134    NaN
hydroph_interaction:PHE:134     -1
Name: 54, dtype: object

>  <hbond:PHE:134>  (56) 
hbond:PHE:134    NaN
hbond:PHE:134     -1
Name: 54, dtype: object

>  <pistack:PHE:134>  (56) 
pistack:PHE:134    NaN
pistack:PHE:134     -1
Name: 54, dtype: object

>  <pication:PHE:134>  (56) 
pication:PHE:134    NaN
pication:PHE:134     -1
Name: 54, dtype: object

>  <halogenbond:PHE:134>  (56) 
halogenbond:PHE:134    NaN
halogenbond:PHE:134     -1
Name: 54, dtype: object

>  <hydroph_interaction:ALA:135>  (56) 
hydroph_interaction:ALA:135    NaN
hydroph_interaction:ALA:135     -1
Name: 54, dtype: object

>  <hbond:ALA:135>  (56) 
hbond:ALA:135    NaN
hbond:ALA:135     -1
Name: 54, dtype: object

$$$$
Z3505963386
     RDKit          3D

 15 16  0  0  0  0  0  0  0  0999 V2000
   28.6868   14.8107    8.3392 C   0  0  0  0  0  0  0  0  0  0  0  0
   29.3114   13.6065    7.6843 C   0  0  0  0  0  0  0  0  0  0  0  0
   28.7096   13.2366    6.3729 C   0  0  0  0  0  0  0  0  0  0  0  0
   30.3172   12.9527    8.2636 C   0  0  0  0  0  0  0  0  0  0  0  0
   30.9725   11.7728    7.7373 C   0  0  0  0  0  0  0  0  0  0  0  0
   30.6070   10.5724    8.2443 C   0  0  0  0  0  0  0  0  0  0  0  0
   31.0687    9.3385    7.9263 C   0  0  0  0  0  0  0  0  0  0  0  0
   30.3950    8.4605    8.7087 C   0  0  0  0  0  0  0  0  0  0  0  0
   32.0615    9.2278    6.9414 C   0  0  0  0  0  0  0  0  0  0  0  0
   32.4929   10.4461    6.3613 C   0  0  0  0  0  0  0  0  0  0  0  0
   31.9504   11.6920    6.7619 C   0  0  0  0  0  0  0  0  0  0  0  0
   32.4905   12.7588    6.0949 O   0  0  0  0  0  0  0  0  0  0  0  0
   33.7239   12.2129    5.5808 C   0  0  0  0  0  0  0  0  0  0  0  0
   33.5080   10.7283    5.2990 C   0  0  1  0  0  0  0  0  0  0  0  0
   34.7122    9.9924    5.3941 O   0  0  0  0  0  0  0  0  0  0  0  0
  1  2  1  0
  2  3  1  0
  2  4  2  3
  4  5  1  0
  5  6  2  0
  6  7  1  0
  7  8  1  0
  7  9  2  0
  9 10  1  0
 10 11  2  0
 11 12  1  0
 12 13  1  0
 13 14  1  0
 14 15  1  1
 11  5  1  0
 14 10  1  0
A    1
 C1 
A    2
 C2 
A    3
 C3 
A    4
 C4 
A    5
 C5 
A    6
 C6 
A    7
 C7 
A    8
 C8 
A    9
 C9 
A   10
 C10
A   11
 C11
A   12
 O1 
A   13
 C12
A   14
 C13
A   15
 O2 
M  END
>  <ref_pdb>  (57) 
Ax0310a

>  <ref_mols>  (57) 
Ax0554a,Ax0739a

>  <original SMILES>  (57) 
CC(C)=Cc1cc(C)cc2c1OCC2O

>  <rationale>  (57) 
info halogenbond:C110+G127+A86+S125+E85+Q95+E106+E88+T126+P107+H104+Y64+C65+S87+N129+F83+R93+L131+I82+G128+P91+N19+H21+V84+G133+Y90+Y89+H97+L81+F134+L98+R20+G103+S66+S67+S7+G108+R38+V124+M99+S36; hbond:S105+Q95+D39+A86+C110+D109+E85+G108+G103+G128+G130+L131+N129+N19+H104+R68+V124+P91+F83+S67+S7+S66+G112+G133+V132+R20+Y89+S77+A135+Y63+A92+A101+M99+F134+L100+I82+Y64+S36+L98+V84+L81+Y94+S80+R38+S37+V102+G8+I123+G111+I113+L114+C65+L22+S96; hydroph_interaction:V84+V124+P107+E85+E88+D109+N129+L40+I123+A135+Q95+I82+L100+L98+L131+F83+R93+V132+Y63+F134+H104+R20+A86+V74+P91+A101+F76+M99+L114+A92+Y94+R68+Y72+Y64+V18+V102+W28+G127+G128+L81; pication:H104+R93+Y63+F134+Y90+R68+F83+R20; pistack:H21+Y89+Y90+H104+F134+Y63+F83+Y94; saltbridge:D39+R93+H104+E106+D109+E85+E88+R68+R20; 

>  <intxn_cluster>  (57) 
-1

>  <intxn_cluster_rank>  (57) 
-1

>  <N_interactions>  (57) 
4

>  <∆∆G>  (57) 
-11.289608

>  <$/mg>  (57) 
163.0

>  <comRMSD>  (57) 
0.821024

>  <N_rotatable_bonds>  (57) 
5

>  <deep_P1_sidechain>  (57) 
nan

>  <farthest_distance_to_substrate>  (57) 
2.606186

>  <hbond:SER:7>  (57) 
hbond:SER:7    NaN
hbond:SER:7     -1
Name: 55, dtype: object

>  <halogenbond:SER:7>  (57) 
halogenbond:SER:7    NaN
halogenbond:SER:7     -1
Name: 55, dtype: object

>  <hbond:GLY:8>  (57) 
hbond:GLY:8    NaN
hbond:GLY:8     -1
Name: 55, dtype: object

>  <hydroph_interaction:VAL:18>  (57) 
hydroph_interaction:VAL:18    NaN
hydroph_interaction:VAL:18     -1
Name: 55, dtype: object

>  <hbond:ASN:19>  (57) 
hbond:ASN:19    NaN
hbond:ASN:19     -1
Name: 55, dtype: object

>  <hydroph_interaction:ASN:19>  (57) 
hydroph_interaction:ASN:19    0.0
hydroph_interaction:ASN:19      0
Name: 55, dtype: object

>  <halogenbond:ASN:19>  (57) 
halogenbond:ASN:19    NaN
halogenbond:ASN:19     -1
Name: 55, dtype: object

>  <hbond:ARG:20>  (57) 
hbond:ARG:20    NaN
hbond:ARG:20     -1
Name: 55, dtype: object

>  <hydroph_interaction:ARG:20>  (57) 
hydroph_interaction:ARG:20    NaN
hydroph_interaction:ARG:20     -1
Name: 55, dtype: object

>  <saltbridge:ARG:20>  (57) 
saltbridge:ARG:20    NaN
saltbridge:ARG:20     -1
Name: 55, dtype: object

>  <halogenbond:ARG:20>  (57) 
halogenbond:ARG:20    NaN
halogenbond:ARG:20     -1
Name: 55, dtype: object

>  <pication:ARG:20>  (57) 
pication:ARG:20    NaN
pication:ARG:20     -1
Name: 55, dtype: object

>  <hbond:HIS:21>  (57) 
hbond:HIS:21    0.0
hbond:HIS:21      0
Name: 55, dtype: object

>  <hydroph_interaction:HIS:21>  (57) 
hydroph_interaction:HIS:21    0.0
hydroph_interaction:HIS:21      0
Name: 55, dtype: object

>  <pistack:HIS:21>  (57) 
pistack:HIS:21    NaN
pistack:HIS:21     -1
Name: 55, dtype: object

>  <pication:HIS:21>  (57) 
pication:HIS:21    0.0
pication:HIS:21      0
Name: 55, dtype: object

>  <saltbridge:HIS:21>  (57) 
saltbridge:HIS:21    0.0
saltbridge:HIS:21      0
Name: 55, dtype: object

>  <halogenbond:HIS:21>  (57) 
halogenbond:HIS:21    NaN
halogenbond:HIS:21     -1
Name: 55, dtype: object

>  <hydroph_interaction:LEU:22>  (57) 
hydroph_interaction:LEU:22    0.0
hydroph_interaction:LEU:22      0
Name: 55, dtype: object

>  <hbond:LEU:22>  (57) 
hbond:LEU:22    NaN
hbond:LEU:22     -1
Name: 55, dtype: object

>  <hydroph_interaction:TRP:28>  (57) 
hydroph_interaction:TRP:28    NaN
hydroph_interaction:TRP:28     -1
Name: 55, dtype: object

>  <hbond:SER:36>  (57) 
hbond:SER:36    NaN
hbond:SER:36     -1
Name: 55, dtype: object

>  <halogenbond:SER:36>  (57) 
halogenbond:SER:36    NaN
halogenbond:SER:36     -1
Name: 55, dtype: object

>  <hbond:SER:37>  (57) 
hbond:SER:37    NaN
hbond:SER:37     -1
Name: 55, dtype: object

>  <hbond:ARG:38>  (57) 
hbond:ARG:38    NaN
hbond:ARG:38     -1
Name: 55, dtype: object

>  <halogenbond:ARG:38>  (57) 
halogenbond:ARG:38    NaN
halogenbond:ARG:38     -1
Name: 55, dtype: object

>  <saltbridge:ASP:39>  (57) 
saltbridge:ASP:39    NaN
saltbridge:ASP:39     -1
Name: 55, dtype: object

>  <halogenbond:ASP:39>  (57) 
halogenbond:ASP:39    0.0
halogenbond:ASP:39      0
Name: 55, dtype: object

>  <hbond:ASP:39>  (57) 
hbond:ASP:39    NaN
hbond:ASP:39     -1
Name: 55, dtype: object

>  <hydroph_interaction:ASP:39>  (57) 
hydroph_interaction:ASP:39    0.0
hydroph_interaction:ASP:39      0
Name: 55, dtype: object

>  <hydroph_interaction:LEU:40>  (57) 
hydroph_interaction:LEU:40    NaN
hydroph_interaction:LEU:40     -1
Name: 55, dtype: object

>  <hydroph_interaction:TYR:63>  (57) 
hydroph_interaction:TYR:63    NaN
hydroph_interaction:TYR:63     -1
Name: 55, dtype: object

>  <hbond:TYR:63>  (57) 
hbond:TYR:63    NaN
hbond:TYR:63     -1
Name: 55, dtype: object

>  <pistack:TYR:63>  (57) 
pistack:TYR:63    NaN
pistack:TYR:63     -1
Name: 55, dtype: object

>  <pication:TYR:63>  (57) 
pication:TYR:63    NaN
pication:TYR:63     -1
Name: 55, dtype: object

>  <halogenbond:TYR:64>  (57) 
halogenbond:TYR:64    NaN
halogenbond:TYR:64     -1
Name: 55, dtype: object

>  <hbond:TYR:64>  (57) 
hbond:TYR:64    NaN
hbond:TYR:64     -1
Name: 55, dtype: object

>  <hydroph_interaction:TYR:64>  (57) 
hydroph_interaction:TYR:64    NaN
hydroph_interaction:TYR:64     -1
Name: 55, dtype: object

>  <halogenbond:CYS:65>  (57) 
halogenbond:CYS:65    NaN
halogenbond:CYS:65     -1
Name: 55, dtype: object

>  <hbond:CYS:65>  (57) 
hbond:CYS:65    NaN
hbond:CYS:65     -1
Name: 55, dtype: object

>  <hbond:SER:66>  (57) 
hbond:SER:66    NaN
hbond:SER:66     -1
Name: 55, dtype: object

>  <halogenbond:SER:66>  (57) 
halogenbond:SER:66    NaN
halogenbond:SER:66     -1
Name: 55, dtype: object

>  <hbond:SER:67>  (57) 
hbond:SER:67    NaN
hbond:SER:67     -1
Name: 55, dtype: object

>  <halogenbond:SER:67>  (57) 
halogenbond:SER:67    NaN
halogenbond:SER:67     -1
Name: 55, dtype: object

>  <hbond:ARG:68>  (57) 
hbond:ARG:68    NaN
hbond:ARG:68     -1
Name: 55, dtype: object

>  <saltbridge:ARG:68>  (57) 
saltbridge:ARG:68    NaN
saltbridge:ARG:68     -1
Name: 55, dtype: object

>  <hydroph_interaction:ARG:68>  (57) 
hydroph_interaction:ARG:68    NaN
hydroph_interaction:ARG:68     -1
Name: 55, dtype: object

>  <pication:ARG:68>  (57) 
pication:ARG:68    NaN
pication:ARG:68     -1
Name: 55, dtype: object

>  <hydroph_interaction:TYR:72>  (57) 
hydroph_interaction:TYR:72    NaN
hydroph_interaction:TYR:72     -1
Name: 55, dtype: object

>  <hydroph_interaction:VAL:74>  (57) 
hydroph_interaction:VAL:74    NaN
hydroph_interaction:VAL:74     -1
Name: 55, dtype: object

>  <hydroph_interaction:PHE:76>  (57) 
hydroph_interaction:PHE:76    NaN
hydroph_interaction:PHE:76     -1
Name: 55, dtype: object

>  <hbond:SER:77>  (57) 
hbond:SER:77    NaN
hbond:SER:77     -1
Name: 55, dtype: object

>  <hbond:SER:80>  (57) 
hbond:SER:80    NaN
hbond:SER:80     -1
Name: 55, dtype: object

>  <hbond:LEU:81>  (57) 
hbond:LEU:81    NaN
hbond:LEU:81     -1
Name: 55, dtype: object

>  <halogenbond:LEU:81>  (57) 
halogenbond:LEU:81    NaN
halogenbond:LEU:81     -1
Name: 55, dtype: object

>  <hydroph_interaction:LEU:81>  (57) 
hydroph_interaction:LEU:81    NaN
hydroph_interaction:LEU:81     -1
Name: 55, dtype: object

>  <hydroph_interaction:ILE:82>  (57) 
hydroph_interaction:ILE:82    NaN
hydroph_interaction:ILE:82     -1
Name: 55, dtype: object

>  <halogenbond:ILE:82>  (57) 
halogenbond:ILE:82    NaN
halogenbond:ILE:82     -1
Name: 55, dtype: object

>  <hbond:ILE:82>  (57) 
hbond:ILE:82    NaN
hbond:ILE:82     -1
Name: 55, dtype: object

>  <hbond:PHE:83>  (57) 
hbond:PHE:83    NaN
hbond:PHE:83     -1
Name: 55, dtype: object

>  <hydroph_interaction:PHE:83>  (57) 
hydroph_interaction:PHE:83    NaN
hydroph_interaction:PHE:83     -1
Name: 55, dtype: object

>  <halogenbond:PHE:83>  (57) 
halogenbond:PHE:83    NaN
halogenbond:PHE:83     -1
Name: 55, dtype: object

>  <pistack:PHE:83>  (57) 
pistack:PHE:83    NaN
pistack:PHE:83     -1
Name: 55, dtype: object

>  <pication:PHE:83>  (57) 
pication:PHE:83    NaN
pication:PHE:83     -1
Name: 55, dtype: object

>  <hydroph_interaction:VAL:84>  (57) 
hydroph_interaction:VAL:84    NaN
hydroph_interaction:VAL:84     -1
Name: 55, dtype: object

>  <halogenbond:VAL:84>  (57) 
halogenbond:VAL:84    NaN
halogenbond:VAL:84     -1
Name: 55, dtype: object

>  <hbond:VAL:84>  (57) 
hbond:VAL:84    NaN
hbond:VAL:84     -1
Name: 55, dtype: object

>  <hydroph_interaction:GLU:85>  (57) 
hydroph_interaction:GLU:85    NaN
hydroph_interaction:GLU:85     -1
Name: 55, dtype: object

>  <hbond:GLU:85>  (57) 
hbond:GLU:85    NaN
hbond:GLU:85     -1
Name: 55, dtype: object

>  <halogenbond:GLU:85>  (57) 
halogenbond:GLU:85    NaN
halogenbond:GLU:85     -1
Name: 55, dtype: object

>  <saltbridge:GLU:85>  (57) 
saltbridge:GLU:85    NaN
saltbridge:GLU:85     -1
Name: 55, dtype: object

>  <halogenbond:ALA:86>  (57) 
halogenbond:ALA:86    NaN
halogenbond:ALA:86     -1
Name: 55, dtype: object

>  <hbond:ALA:86>  (57) 
hbond:ALA:86    NaN
hbond:ALA:86     -1
Name: 55, dtype: object

>  <hydroph_interaction:ALA:86>  (57) 
hydroph_interaction:ALA:86    NaN
hydroph_interaction:ALA:86     -1
Name: 55, dtype: object

>  <hbond:SER:87>  (57) 
hbond:SER:87    0
hbond:SER:87    0
Name: 55, dtype: object

>  <halogenbond:SER:87>  (57) 
halogenbond:SER:87    NaN
halogenbond:SER:87     -1
Name: 55, dtype: object

>  <hbond:GLU:88>  (57) 
hbond:GLU:88    0.0
hbond:GLU:88      0
Name: 55, dtype: object

>  <hydroph_interaction:GLU:88>  (57) 
hydroph_interaction:GLU:88    NaN
hydroph_interaction:GLU:88     -1
Name: 55, dtype: object

>  <halogenbond:GLU:88>  (57) 
halogenbond:GLU:88    NaN
halogenbond:GLU:88     -1
Name: 55, dtype: object

>  <saltbridge:GLU:88>  (57) 
saltbridge:GLU:88    NaN
saltbridge:GLU:88     -1
Name: 55, dtype: object

>  <hydroph_interaction:TYR:89>  (57) 
hydroph_interaction:TYR:89    0.0
hydroph_interaction:TYR:89      0
Name: 55, dtype: object

>  <pistack:TYR:89>  (57) 
pistack:TYR:89    NaN
pistack:TYR:89     -1
Name: 55, dtype: object

>  <hbond:TYR:89>  (57) 
hbond:TYR:89    NaN
hbond:TYR:89     -1
Name: 55, dtype: object

>  <halogenbond:TYR:89>  (57) 
halogenbond:TYR:89    NaN
halogenbond:TYR:89     -1
Name: 55, dtype: object

>  <hydroph_interaction:TYR:90>  (57) 
hydroph_interaction:TYR:90    0.0
hydroph_interaction:TYR:90      0
Name: 55, dtype: object

>  <hbond:TYR:90>  (57) 
hbond:TYR:90    0.0
hbond:TYR:90      0
Name: 55, dtype: object

>  <pistack:TYR:90>  (57) 
pistack:TYR:90    NaN
pistack:TYR:90     -1
Name: 55, dtype: object

>  <halogenbond:TYR:90>  (57) 
halogenbond:TYR:90    NaN
halogenbond:TYR:90     -1
Name: 55, dtype: object

>  <pication:TYR:90>  (57) 
pication:TYR:90    NaN
pication:TYR:90     -1
Name: 55, dtype: object

>  <hbond:PRO:91>  (57) 
hbond:PRO:91    NaN
hbond:PRO:91     -1
Name: 55, dtype: object

>  <hydroph_interaction:PRO:91>  (57) 
hydroph_interaction:PRO:91    NaN
hydroph_interaction:PRO:91     -1
Name: 55, dtype: object

>  <halogenbond:PRO:91>  (57) 
halogenbond:PRO:91    NaN
halogenbond:PRO:91     -1
Name: 55, dtype: object

>  <hbond:ALA:92>  (57) 
hbond:ALA:92    NaN
hbond:ALA:92     -1
Name: 55, dtype: object

>  <hydroph_interaction:ALA:92>  (57) 
hydroph_interaction:ALA:92    NaN
hydroph_interaction:ALA:92     -1
Name: 55, dtype: object

>  <saltbridge:ARG:93>  (57) 
saltbridge:ARG:93    NaN
saltbridge:ARG:93     -1
Name: 55, dtype: object

>  <hbond:ARG:93>  (57) 
hbond:ARG:93    0.0
hbond:ARG:93      0
Name: 55, dtype: object

>  <hydroph_interaction:ARG:93>  (57) 
hydroph_interaction:ARG:93    NaN
hydroph_interaction:ARG:93     -1
Name: 55, dtype: object

>  <halogenbond:ARG:93>  (57) 
halogenbond:ARG:93    NaN
halogenbond:ARG:93     -1
Name: 55, dtype: object

>  <pication:ARG:93>  (57) 
pication:ARG:93    NaN
pication:ARG:93     -1
Name: 55, dtype: object

>  <hydroph_interaction:TYR:94>  (57) 
hydroph_interaction:TYR:94    NaN
hydroph_interaction:TYR:94     -1
Name: 55, dtype: object

>  <pistack:TYR:94>  (57) 
pistack:TYR:94    NaN
pistack:TYR:94     -1
Name: 55, dtype: object

>  <hbond:TYR:94>  (57) 
hbond:TYR:94    NaN
hbond:TYR:94     -1
Name: 55, dtype: object

>  <hbond:GLN:95>  (57) 
hbond:GLN:95    NaN
hbond:GLN:95     -1
Name: 55, dtype: object

>  <hydroph_interaction:GLN:95>  (57) 
hydroph_interaction:GLN:95    NaN
hydroph_interaction:GLN:95     -1
Name: 55, dtype: object

>  <halogenbond:GLN:95>  (57) 
halogenbond:GLN:95    NaN
halogenbond:GLN:95     -1
Name: 55, dtype: object

>  <hbond:SER:96>  (57) 
hbond:SER:96    NaN
hbond:SER:96     -1
Name: 55, dtype: object

>  <halogenbond:HIS:97>  (57) 
halogenbond:HIS:97    NaN
halogenbond:HIS:97     -1
Name: 55, dtype: object

>  <hydroph_interaction:LEU:98>  (57) 
hydroph_interaction:LEU:98    NaN
hydroph_interaction:LEU:98     -1
Name: 55, dtype: object

>  <hbond:LEU:98>  (57) 
hbond:LEU:98    NaN
hbond:LEU:98     -1
Name: 55, dtype: object

>  <halogenbond:LEU:98>  (57) 
halogenbond:LEU:98    NaN
halogenbond:LEU:98     -1
Name: 55, dtype: object

>  <hbond:MET:99>  (57) 
hbond:MET:99    NaN
hbond:MET:99     -1
Name: 55, dtype: object

>  <hydroph_interaction:MET:99>  (57) 
hydroph_interaction:MET:99    NaN
hydroph_interaction:MET:99     -1
Name: 55, dtype: object

>  <halogenbond:MET:99>  (57) 
halogenbond:MET:99    NaN
halogenbond:MET:99     -1
Name: 55, dtype: object

>  <hydroph_interaction:LEU:100>  (57) 
hydroph_interaction:LEU:100    NaN
hydroph_interaction:LEU:100     -1
Name: 55, dtype: object

>  <hbond:LEU:100>  (57) 
hbond:LEU:100    NaN
hbond:LEU:100     -1
Name: 55, dtype: object

>  <hbond:ALA:101>  (57) 
hbond:ALA:101    NaN
hbond:ALA:101     -1
Name: 55, dtype: object

>  <hydroph_interaction:ALA:101>  (57) 
hydroph_interaction:ALA:101    NaN
hydroph_interaction:ALA:101     -1
Name: 55, dtype: object

>  <hydroph_interaction:VAL:102>  (57) 
hydroph_interaction:VAL:102    NaN
hydroph_interaction:VAL:102     -1
Name: 55, dtype: object

>  <hbond:VAL:102>  (57) 
hbond:VAL:102    NaN
hbond:VAL:102     -1
Name: 55, dtype: object

>  <hbond:GLY:103>  (57) 
hbond:GLY:103    NaN
hbond:GLY:103     -1
Name: 55, dtype: object

>  <halogenbond:GLY:103>  (57) 
halogenbond:GLY:103    NaN
halogenbond:GLY:103     -1
Name: 55, dtype: object

>  <hbond:HIS:104>  (57) 
hbond:HIS:104    NaN
hbond:HIS:104     -1
Name: 55, dtype: object

>  <saltbridge:HIS:104>  (57) 
saltbridge:HIS:104    NaN
saltbridge:HIS:104     -1
Name: 55, dtype: object

>  <pication:HIS:104>  (57) 
pication:HIS:104    NaN
pication:HIS:104     -1
Name: 55, dtype: object

>  <halogenbond:HIS:104>  (57) 
halogenbond:HIS:104    NaN
halogenbond:HIS:104     -1
Name: 55, dtype: object

>  <hydroph_interaction:HIS:104>  (57) 
hydroph_interaction:HIS:104    NaN
hydroph_interaction:HIS:104     -1
Name: 55, dtype: object

>  <pistack:HIS:104>  (57) 
pistack:HIS:104    NaN
pistack:HIS:104     -1
Name: 55, dtype: object

>  <halogenbond:SER:105>  (57) 
halogenbond:SER:105    0.0
halogenbond:SER:105      0
Name: 55, dtype: object

>  <hbond:SER:105>  (57) 
hbond:SER:105    1.0
hbond:SER:105      1
Name: 55, dtype: object

>  <hbond:GLU:106>  (57) 
hbond:GLU:106    0.0
hbond:GLU:106      0
Name: 55, dtype: object

>  <hydroph_interaction:GLU:106>  (57) 
hydroph_interaction:GLU:106    0.0
hydroph_interaction:GLU:106      0
Name: 55, dtype: object

>  <saltbridge:GLU:106>  (57) 
saltbridge:GLU:106    NaN
saltbridge:GLU:106     -1
Name: 55, dtype: object

>  <halogenbond:GLU:106>  (57) 
halogenbond:GLU:106    NaN
halogenbond:GLU:106     -1
Name: 55, dtype: object

>  <hydroph_interaction:PRO:107>  (57) 
hydroph_interaction:PRO:107    2
hydroph_interaction:PRO:107    2
Name: 55, dtype: object

>  <hbond:PRO:107>  (57) 
hbond:PRO:107    0.0
hbond:PRO:107      0
Name: 55, dtype: object

>  <halogenbond:PRO:107>  (57) 
halogenbond:PRO:107    NaN
halogenbond:PRO:107     -1
Name: 55, dtype: object

>  <hbond:GLY:108>  (57) 
hbond:GLY:108    NaN
hbond:GLY:108     -1
Name: 55, dtype: object

>  <halogenbond:GLY:108>  (57) 
halogenbond:GLY:108    NaN
halogenbond:GLY:108     -1
Name: 55, dtype: object

>  <hbond:ASP:109>  (57) 
hbond:ASP:109    NaN
hbond:ASP:109     -1
Name: 55, dtype: object

>  <hydroph_interaction:ASP:109>  (57) 
hydroph_interaction:ASP:109    NaN
hydroph_interaction:ASP:109     -1
Name: 55, dtype: object

>  <saltbridge:ASP:109>  (57) 
saltbridge:ASP:109    NaN
saltbridge:ASP:109     -1
Name: 55, dtype: object

>  <halogenbond:CYS:110>  (57) 
halogenbond:CYS:110    NaN
halogenbond:CYS:110     -1
Name: 55, dtype: object

>  <hbond:CYS:110>  (57) 
hbond:CYS:110    NaN
hbond:CYS:110     -1
Name: 55, dtype: object

>  <hbond:GLY:111>  (57) 
hbond:GLY:111    NaN
hbond:GLY:111     -1
Name: 55, dtype: object

>  <hbond:GLY:112>  (57) 
hbond:GLY:112    NaN
hbond:GLY:112     -1
Name: 55, dtype: object

>  <hbond:ILE:113>  (57) 
hbond:ILE:113    NaN
hbond:ILE:113     -1
Name: 55, dtype: object

>  <hydroph_interaction:LEU:114>  (57) 
hydroph_interaction:LEU:114    NaN
hydroph_interaction:LEU:114     -1
Name: 55, dtype: object

>  <hbond:LEU:114>  (57) 
hbond:LEU:114    NaN
hbond:LEU:114     -1
Name: 55, dtype: object

>  <hydroph_interaction:ILE:123>  (57) 
hydroph_interaction:ILE:123    NaN
hydroph_interaction:ILE:123     -1
Name: 55, dtype: object

>  <hbond:ILE:123>  (57) 
hbond:ILE:123    NaN
hbond:ILE:123     -1
Name: 55, dtype: object

>  <hydroph_interaction:VAL:124>  (57) 
hydroph_interaction:VAL:124    1.0
hydroph_interaction:VAL:124      1
Name: 55, dtype: object

>  <hbond:VAL:124>  (57) 
hbond:VAL:124    NaN
hbond:VAL:124     -1
Name: 55, dtype: object

>  <halogenbond:VAL:124>  (57) 
halogenbond:VAL:124    NaN
halogenbond:VAL:124     -1
Name: 55, dtype: object

>  <hbond:SER:125>  (57) 
hbond:SER:125    0
hbond:SER:125    0
Name: 55, dtype: object

>  <halogenbond:SER:125>  (57) 
halogenbond:SER:125    NaN
halogenbond:SER:125     -1
Name: 55, dtype: object

>  <hydroph_interaction:THR:126>  (57) 
hydroph_interaction:THR:126    0.0
hydroph_interaction:THR:126      0
Name: 55, dtype: object

>  <hbond:THR:126>  (57) 
hbond:THR:126    0.0
hbond:THR:126      0
Name: 55, dtype: object

>  <halogenbond:THR:126>  (57) 
halogenbond:THR:126    NaN
halogenbond:THR:126     -1
Name: 55, dtype: object

>  <hbond:GLY:127>  (57) 
hbond:GLY:127    0
hbond:GLY:127    0
Name: 55, dtype: object

>  <halogenbond:GLY:127>  (57) 
halogenbond:GLY:127    NaN
halogenbond:GLY:127     -1
Name: 55, dtype: object

>  <hydroph_interaction:GLY:127>  (57) 
hydroph_interaction:GLY:127    NaN
hydroph_interaction:GLY:127     -1
Name: 55, dtype: object

>  <hbond:GLY:128>  (57) 
hbond:GLY:128    NaN
hbond:GLY:128     -1
Name: 55, dtype: object

>  <halogenbond:GLY:128>  (57) 
halogenbond:GLY:128    NaN
halogenbond:GLY:128     -1
Name: 55, dtype: object

>  <hydroph_interaction:GLY:128>  (57) 
hydroph_interaction:GLY:128    NaN
hydroph_interaction:GLY:128     -1
Name: 55, dtype: object

>  <hbond:ASN:129>  (57) 
hbond:ASN:129    NaN
hbond:ASN:129     -1
Name: 55, dtype: object

>  <hydroph_interaction:ASN:129>  (57) 
hydroph_interaction:ASN:129    NaN
hydroph_interaction:ASN:129     -1
Name: 55, dtype: object

>  <halogenbond:ASN:129>  (57) 
halogenbond:ASN:129    NaN
halogenbond:ASN:129     -1
Name: 55, dtype: object

>  <hbond:GLY:130>  (57) 
hbond:GLY:130    NaN
hbond:GLY:130     -1
Name: 55, dtype: object

>  <hbond:LEU:131>  (57) 
hbond:LEU:131    NaN
hbond:LEU:131     -1
Name: 55, dtype: object

>  <hydroph_interaction:LEU:131>  (57) 
hydroph_interaction:LEU:131    NaN
hydroph_interaction:LEU:131     -1
Name: 55, dtype: object

>  <halogenbond:LEU:131>  (57) 
halogenbond:LEU:131    NaN
halogenbond:LEU:131     -1
Name: 55, dtype: object

>  <hydroph_interaction:VAL:132>  (57) 
hydroph_interaction:VAL:132    NaN
hydroph_interaction:VAL:132     -1
Name: 55, dtype: object

>  <hbond:VAL:132>  (57) 
hbond:VAL:132    NaN
hbond:VAL:132     -1
Name: 55, dtype: object

>  <hbond:GLY:133>  (57) 
hbond:GLY:133    NaN
hbond:GLY:133     -1
Name: 55, dtype: object

>  <halogenbond:GLY:133>  (57) 
halogenbond:GLY:133    NaN
halogenbond:GLY:133     -1
Name: 55, dtype: object

>  <hydroph_interaction:PHE:134>  (57) 
hydroph_interaction:PHE:134    NaN
hydroph_interaction:PHE:134     -1
Name: 55, dtype: object

>  <hbond:PHE:134>  (57) 
hbond:PHE:134    NaN
hbond:PHE:134     -1
Name: 55, dtype: object

>  <pistack:PHE:134>  (57) 
pistack:PHE:134    NaN
pistack:PHE:134     -1
Name: 55, dtype: object

>  <pication:PHE:134>  (57) 
pication:PHE:134    NaN
pication:PHE:134     -1
Name: 55, dtype: object

>  <halogenbond:PHE:134>  (57) 
halogenbond:PHE:134    NaN
halogenbond:PHE:134     -1
Name: 55, dtype: object

>  <hydroph_interaction:ALA:135>  (57) 
hydroph_interaction:ALA:135    NaN
hydroph_interaction:ALA:135     -1
Name: 55, dtype: object

>  <hbond:ALA:135>  (57) 
hbond:ALA:135    NaN
hbond:ALA:135     -1
Name: 55, dtype: object

$$$$
PV_002206406386
     RDKit          3D

 17 18  0  0  0  0  0  0  0  0999 V2000
   27.1774   16.2488   10.1641 C   0  0  0  0  0  0  0  0  0  0  0  0
   28.5146   16.5276    9.5534 C   0  0  0  0  0  0  0  0  0  0  0  0
   28.9138   15.5215    8.6038 N   0  0  0  0  0  0  0  0  0  0  0  0
   27.8685   14.8480    7.9169 O   0  0  0  0  0  0  0  0  0  0  0  0
   28.1986   13.4585    8.0113 C   0  0  0  0  0  0  0  0  0  0  0  0
   29.6908   13.3680    8.2471 C   0  0  1  0  0  0  0  0  0  0  0  0
   30.6065   13.2457    6.6870 S   0  0  0  0  0  0  0  0  0  0  0  0
   31.2664   11.6250    6.8233 C   0  0  0  0  0  0  0  0  0  0  0  0
   30.6498   10.7558    7.7178 C   0  0  0  0  0  0  0  0  0  0  0  0
   31.0931    9.4554    7.8512 C   0  0  0  0  0  0  0  0  0  0  0  0
   30.4642    8.6080    8.7405 C   0  0  0  0  0  0  0  0  0  0  0  0
   32.1695    9.0378    7.0741 C   0  0  0  0  0  0  0  0  0  0  0  0
   32.8069    9.9012    6.1898 C   0  0  0  0  0  0  0  0  0  0  0  0
   32.3530   11.2139    6.0652 C   0  0  0  0  0  0  0  0  0  0  0  0
   33.1594   12.2828    4.9613 Cl  0  0  0  0  0  0  0  0  0  0  0  0
   29.9763   14.6954    8.8570 C   0  0  0  0  0  0  0  0  0  0  0  0
   30.9860   15.0122    9.4665 O   0  0  0  0  0  0  0  0  0  0  0  0
  1  2  1  0
  2  3  1  0
  3  4  1  0
  4  5  1  0
  5  6  1  0
  6  7  1  6
  7  8  1  0
  8  9  2  0
  9 10  1  0
 10 11  1  0
 10 12  2  0
 12 13  1  0
 13 14  2  0
 14 15  1  0
  6 16  1  0
 16 17  2  0
 16  3  1  0
 14  8  1  0
A    1
 C1 
A    2
 C2 
A    3
 N1 
A    4
 O1 
A    5
 C3 
A    6
 C4 
A    7
 S1 
A    8
 C5 
A    9
 C6 
A   10
 C7 
A   11
 C8 
A   12
 C9 
A   13
 C10
A   14
 C11
A   15
CL1 
A   16
 C12
A   17
 O2 
M  END
>  <ref_pdb>  (58) 
Ax0310a

>  <ref_mols>  (58) 
Ax0416a,Ax0528a

>  <original SMILES>  (58) 
CCN1OCC(Sc2cc(C)ccc2Cl)C1=O

>  <rationale>  (58) 
info halogenbond:G127+D39+A86+E85+E106+E88+T126+P107+Y64+C65+N129+F83+R93+L131+I82+G128+P91+N19+H21+V84+G133+Y90+Y89+H97+L81+F134+L98+R20+G103+S66+S67+S7+G108+R38+V124+M99+S36; hbond:S87+T126+A86+E85+G103+G128+G130+L131+N129+H104+R68+V124+R93+P91+F83+S7+S66+G112+G133+V132+R20+Y89+S77+A135+Y63+A92+A101+M99+F134+L100+I82+Y64+S36+L98+V84+L81+Y94+S80+R38+S37+V102+G8+I123+G111+I113+L114+C65+L22+S96; hydroph_interaction:V124+Y90+Y89+H21+L22+E106+E88+N129+N19+L40+I123+A135+I82+L100+L98+L131+F83+R93+V132+Y63+F134+H104+R20+A86+V74+P91+A101+F76+M99+L114+A92+Y94+R68+Y72+Y64+V18+V102+W28+G127+G128+L81; pication:H104+Y63+F134+Y90+R68+F83+R20; pistack:H21+Y89+H104+F134+Y63+F83+Y94; saltbridge:R93+H104+E106+D109+E85+E88+R68+R20; 

>  <intxn_cluster>  (58) 
-1

>  <intxn_cluster_rank>  (58) 
-1

>  <N_interactions>  (58) 
5

>  <∆∆G>  (58) 
-10.866898

>  <$/mg>  (58) 
163.0

>  <comRMSD>  (58) 
0.570634

>  <N_rotatable_bonds>  (58) 
5

>  <deep_P1_sidechain>  (58) 
nan

>  <farthest_distance_to_substrate>  (58) 
2.309011

>  <hbond:SER:7>  (58) 
hbond:SER:7    NaN
hbond:SER:7     -1
Name: 56, dtype: object

>  <halogenbond:SER:7>  (58) 
halogenbond:SER:7    NaN
halogenbond:SER:7     -1
Name: 56, dtype: object

>  <hbond:GLY:8>  (58) 
hbond:GLY:8    NaN
hbond:GLY:8     -1
Name: 56, dtype: object

>  <hydroph_interaction:VAL:18>  (58) 
hydroph_interaction:VAL:18    NaN
hydroph_interaction:VAL:18     -1
Name: 56, dtype: object

>  <hbond:ASN:19>  (58) 
hbond:ASN:19    0.0
hbond:ASN:19      0
Name: 56, dtype: object

>  <hydroph_interaction:ASN:19>  (58) 
hydroph_interaction:ASN:19    NaN
hydroph_interaction:ASN:19     -1
Name: 56, dtype: object

>  <halogenbond:ASN:19>  (58) 
halogenbond:ASN:19    NaN
halogenbond:ASN:19     -1
Name: 56, dtype: object

>  <hbond:ARG:20>  (58) 
hbond:ARG:20    NaN
hbond:ARG:20     -1
Name: 56, dtype: object

>  <hydroph_interaction:ARG:20>  (58) 
hydroph_interaction:ARG:20    NaN
hydroph_interaction:ARG:20     -1
Name: 56, dtype: object

>  <saltbridge:ARG:20>  (58) 
saltbridge:ARG:20    NaN
saltbridge:ARG:20     -1
Name: 56, dtype: object

>  <halogenbond:ARG:20>  (58) 
halogenbond:ARG:20    NaN
halogenbond:ARG:20     -1
Name: 56, dtype: object

>  <pication:ARG:20>  (58) 
pication:ARG:20    NaN
pication:ARG:20     -1
Name: 56, dtype: object

>  <hbond:HIS:21>  (58) 
hbond:HIS:21    0.0
hbond:HIS:21      0
Name: 56, dtype: object

>  <hydroph_interaction:HIS:21>  (58) 
hydroph_interaction:HIS:21    1.0
hydroph_interaction:HIS:21      1
Name: 56, dtype: object

>  <pistack:HIS:21>  (58) 
pistack:HIS:21    NaN
pistack:HIS:21     -1
Name: 56, dtype: object

>  <pication:HIS:21>  (58) 
pication:HIS:21    0.0
pication:HIS:21      0
Name: 56, dtype: object

>  <saltbridge:HIS:21>  (58) 
saltbridge:HIS:21    0.0
saltbridge:HIS:21      0
Name: 56, dtype: object

>  <halogenbond:HIS:21>  (58) 
halogenbond:HIS:21    NaN
halogenbond:HIS:21     -1
Name: 56, dtype: object

>  <hydroph_interaction:LEU:22>  (58) 
hydroph_interaction:LEU:22    NaN
hydroph_interaction:LEU:22     -1
Name: 56, dtype: object

>  <hbond:LEU:22>  (58) 
hbond:LEU:22    NaN
hbond:LEU:22     -1
Name: 56, dtype: object

>  <hydroph_interaction:TRP:28>  (58) 
hydroph_interaction:TRP:28    NaN
hydroph_interaction:TRP:28     -1
Name: 56, dtype: object

>  <hbond:SER:36>  (58) 
hbond:SER:36    NaN
hbond:SER:36     -1
Name: 56, dtype: object

>  <halogenbond:SER:36>  (58) 
halogenbond:SER:36    NaN
halogenbond:SER:36     -1
Name: 56, dtype: object

>  <hbond:SER:37>  (58) 
hbond:SER:37    NaN
hbond:SER:37     -1
Name: 56, dtype: object

>  <hbond:ARG:38>  (58) 
hbond:ARG:38    NaN
hbond:ARG:38     -1
Name: 56, dtype: object

>  <halogenbond:ARG:38>  (58) 
halogenbond:ARG:38    NaN
halogenbond:ARG:38     -1
Name: 56, dtype: object

>  <saltbridge:ASP:39>  (58) 
saltbridge:ASP:39    0.0
saltbridge:ASP:39      0
Name: 56, dtype: object

>  <halogenbond:ASP:39>  (58) 
halogenbond:ASP:39    NaN
halogenbond:ASP:39     -1
Name: 56, dtype: object

>  <hbond:ASP:39>  (58) 
hbond:ASP:39    0.0
hbond:ASP:39      0
Name: 56, dtype: object

>  <hydroph_interaction:ASP:39>  (58) 
hydroph_interaction:ASP:39    0.0
hydroph_interaction:ASP:39      0
Name: 56, dtype: object

>  <hydroph_interaction:LEU:40>  (58) 
hydroph_interaction:LEU:40    NaN
hydroph_interaction:LEU:40     -1
Name: 56, dtype: object

>  <hydroph_interaction:TYR:63>  (58) 
hydroph_interaction:TYR:63    NaN
hydroph_interaction:TYR:63     -1
Name: 56, dtype: object

>  <hbond:TYR:63>  (58) 
hbond:TYR:63    NaN
hbond:TYR:63     -1
Name: 56, dtype: object

>  <pistack:TYR:63>  (58) 
pistack:TYR:63    NaN
pistack:TYR:63     -1
Name: 56, dtype: object

>  <pication:TYR:63>  (58) 
pication:TYR:63    NaN
pication:TYR:63     -1
Name: 56, dtype: object

>  <halogenbond:TYR:64>  (58) 
halogenbond:TYR:64    NaN
halogenbond:TYR:64     -1
Name: 56, dtype: object

>  <hbond:TYR:64>  (58) 
hbond:TYR:64    NaN
hbond:TYR:64     -1
Name: 56, dtype: object

>  <hydroph_interaction:TYR:64>  (58) 
hydroph_interaction:TYR:64    NaN
hydroph_interaction:TYR:64     -1
Name: 56, dtype: object

>  <halogenbond:CYS:65>  (58) 
halogenbond:CYS:65    NaN
halogenbond:CYS:65     -1
Name: 56, dtype: object

>  <hbond:CYS:65>  (58) 
hbond:CYS:65    NaN
hbond:CYS:65     -1
Name: 56, dtype: object

>  <hbond:SER:66>  (58) 
hbond:SER:66    NaN
hbond:SER:66     -1
Name: 56, dtype: object

>  <halogenbond:SER:66>  (58) 
halogenbond:SER:66    NaN
halogenbond:SER:66     -1
Name: 56, dtype: object

>  <hbond:SER:67>  (58) 
hbond:SER:67    0.0
hbond:SER:67      0
Name: 56, dtype: object

>  <halogenbond:SER:67>  (58) 
halogenbond:SER:67    NaN
halogenbond:SER:67     -1
Name: 56, dtype: object

>  <hbond:ARG:68>  (58) 
hbond:ARG:68    NaN
hbond:ARG:68     -1
Name: 56, dtype: object

>  <saltbridge:ARG:68>  (58) 
saltbridge:ARG:68    NaN
saltbridge:ARG:68     -1
Name: 56, dtype: object

>  <hydroph_interaction:ARG:68>  (58) 
hydroph_interaction:ARG:68    NaN
hydroph_interaction:ARG:68     -1
Name: 56, dtype: object

>  <pication:ARG:68>  (58) 
pication:ARG:68    NaN
pication:ARG:68     -1
Name: 56, dtype: object

>  <hydroph_interaction:TYR:72>  (58) 
hydroph_interaction:TYR:72    NaN
hydroph_interaction:TYR:72     -1
Name: 56, dtype: object

>  <hydroph_interaction:VAL:74>  (58) 
hydroph_interaction:VAL:74    NaN
hydroph_interaction:VAL:74     -1
Name: 56, dtype: object

>  <hydroph_interaction:PHE:76>  (58) 
hydroph_interaction:PHE:76    NaN
hydroph_interaction:PHE:76     -1
Name: 56, dtype: object

>  <hbond:SER:77>  (58) 
hbond:SER:77    NaN
hbond:SER:77     -1
Name: 56, dtype: object

>  <hbond:SER:80>  (58) 
hbond:SER:80    NaN
hbond:SER:80     -1
Name: 56, dtype: object

>  <hbond:LEU:81>  (58) 
hbond:LEU:81    NaN
hbond:LEU:81     -1
Name: 56, dtype: object

>  <halogenbond:LEU:81>  (58) 
halogenbond:LEU:81    NaN
halogenbond:LEU:81     -1
Name: 56, dtype: object

>  <hydroph_interaction:LEU:81>  (58) 
hydroph_interaction:LEU:81    NaN
hydroph_interaction:LEU:81     -1
Name: 56, dtype: object

>  <hydroph_interaction:ILE:82>  (58) 
hydroph_interaction:ILE:82    NaN
hydroph_interaction:ILE:82     -1
Name: 56, dtype: object

>  <halogenbond:ILE:82>  (58) 
halogenbond:ILE:82    NaN
halogenbond:ILE:82     -1
Name: 56, dtype: object

>  <hbond:ILE:82>  (58) 
hbond:ILE:82    NaN
hbond:ILE:82     -1
Name: 56, dtype: object

>  <hbond:PHE:83>  (58) 
hbond:PHE:83    NaN
hbond:PHE:83     -1
Name: 56, dtype: object

>  <hydroph_interaction:PHE:83>  (58) 
hydroph_interaction:PHE:83    NaN
hydroph_interaction:PHE:83     -1
Name: 56, dtype: object

>  <halogenbond:PHE:83>  (58) 
halogenbond:PHE:83    NaN
halogenbond:PHE:83     -1
Name: 56, dtype: object

>  <pistack:PHE:83>  (58) 
pistack:PHE:83    NaN
pistack:PHE:83     -1
Name: 56, dtype: object

>  <pication:PHE:83>  (58) 
pication:PHE:83    NaN
pication:PHE:83     -1
Name: 56, dtype: object

>  <hydroph_interaction:VAL:84>  (58) 
hydroph_interaction:VAL:84    0.0
hydroph_interaction:VAL:84      0
Name: 56, dtype: object

>  <halogenbond:VAL:84>  (58) 
halogenbond:VAL:84    NaN
halogenbond:VAL:84     -1
Name: 56, dtype: object

>  <hbond:VAL:84>  (58) 
hbond:VAL:84    NaN
hbond:VAL:84     -1
Name: 56, dtype: object

>  <hydroph_interaction:GLU:85>  (58) 
hydroph_interaction:GLU:85    0.0
hydroph_interaction:GLU:85      0
Name: 56, dtype: object

>  <hbond:GLU:85>  (58) 
hbond:GLU:85    NaN
hbond:GLU:85     -1
Name: 56, dtype: object

>  <halogenbond:GLU:85>  (58) 
halogenbond:GLU:85    NaN
halogenbond:GLU:85     -1
Name: 56, dtype: object

>  <saltbridge:GLU:85>  (58) 
saltbridge:GLU:85    NaN
saltbridge:GLU:85     -1
Name: 56, dtype: object

>  <halogenbond:ALA:86>  (58) 
halogenbond:ALA:86    NaN
halogenbond:ALA:86     -1
Name: 56, dtype: object

>  <hbond:ALA:86>  (58) 
hbond:ALA:86    NaN
hbond:ALA:86     -1
Name: 56, dtype: object

>  <hydroph_interaction:ALA:86>  (58) 
hydroph_interaction:ALA:86    NaN
hydroph_interaction:ALA:86     -1
Name: 56, dtype: object

>  <hbond:SER:87>  (58) 
hbond:SER:87    1
hbond:SER:87    1
Name: 56, dtype: object

>  <halogenbond:SER:87>  (58) 
halogenbond:SER:87    0.0
halogenbond:SER:87      0
Name: 56, dtype: object

>  <hbond:GLU:88>  (58) 
hbond:GLU:88    0.0
hbond:GLU:88      0
Name: 56, dtype: object

>  <hydroph_interaction:GLU:88>  (58) 
hydroph_interaction:GLU:88    NaN
hydroph_interaction:GLU:88     -1
Name: 56, dtype: object

>  <halogenbond:GLU:88>  (58) 
halogenbond:GLU:88    NaN
halogenbond:GLU:88     -1
Name: 56, dtype: object

>  <saltbridge:GLU:88>  (58) 
saltbridge:GLU:88    NaN
saltbridge:GLU:88     -1
Name: 56, dtype: object

>  <hydroph_interaction:TYR:89>  (58) 
hydroph_interaction:TYR:89    1.0
hydroph_interaction:TYR:89      1
Name: 56, dtype: object

>  <pistack:TYR:89>  (58) 
pistack:TYR:89    NaN
pistack:TYR:89     -1
Name: 56, dtype: object

>  <hbond:TYR:89>  (58) 
hbond:TYR:89    NaN
hbond:TYR:89     -1
Name: 56, dtype: object

>  <halogenbond:TYR:89>  (58) 
halogenbond:TYR:89    NaN
halogenbond:TYR:89     -1
Name: 56, dtype: object

>  <hydroph_interaction:TYR:90>  (58) 
hydroph_interaction:TYR:90    1.0
hydroph_interaction:TYR:90      1
Name: 56, dtype: object

>  <hbond:TYR:90>  (58) 
hbond:TYR:90    0.0
hbond:TYR:90      0
Name: 56, dtype: object

>  <pistack:TYR:90>  (58) 
pistack:TYR:90    0.0
pistack:TYR:90      0
Name: 56, dtype: object

>  <halogenbond:TYR:90>  (58) 
halogenbond:TYR:90    NaN
halogenbond:TYR:90     -1
Name: 56, dtype: object

>  <pication:TYR:90>  (58) 
pication:TYR:90    NaN
pication:TYR:90     -1
Name: 56, dtype: object

>  <hbond:PRO:91>  (58) 
hbond:PRO:91    NaN
hbond:PRO:91     -1
Name: 56, dtype: object

>  <hydroph_interaction:PRO:91>  (58) 
hydroph_interaction:PRO:91    NaN
hydroph_interaction:PRO:91     -1
Name: 56, dtype: object

>  <halogenbond:PRO:91>  (58) 
halogenbond:PRO:91    NaN
halogenbond:PRO:91     -1
Name: 56, dtype: object

>  <hbond:ALA:92>  (58) 
hbond:ALA:92    NaN
hbond:ALA:92     -1
Name: 56, dtype: object

>  <hydroph_interaction:ALA:92>  (58) 
hydroph_interaction:ALA:92    NaN
hydroph_interaction:ALA:92     -1
Name: 56, dtype: object

>  <saltbridge:ARG:93>  (58) 
saltbridge:ARG:93    NaN
saltbridge:ARG:93     -1
Name: 56, dtype: object

>  <hbond:ARG:93>  (58) 
hbond:ARG:93    NaN
hbond:ARG:93     -1
Name: 56, dtype: object

>  <hydroph_interaction:ARG:93>  (58) 
hydroph_interaction:ARG:93    NaN
hydroph_interaction:ARG:93     -1
Name: 56, dtype: object

>  <halogenbond:ARG:93>  (58) 
halogenbond:ARG:93    NaN
halogenbond:ARG:93     -1
Name: 56, dtype: object

>  <pication:ARG:93>  (58) 
pication:ARG:93    0.0
pication:ARG:93      0
Name: 56, dtype: object

>  <hydroph_interaction:TYR:94>  (58) 
hydroph_interaction:TYR:94    NaN
hydroph_interaction:TYR:94     -1
Name: 56, dtype: object

>  <pistack:TYR:94>  (58) 
pistack:TYR:94    NaN
pistack:TYR:94     -1
Name: 56, dtype: object

>  <hbond:TYR:94>  (58) 
hbond:TYR:94    NaN
hbond:TYR:94     -1
Name: 56, dtype: object

>  <hbond:GLN:95>  (58) 
hbond:GLN:95    0.0
hbond:GLN:95      0
Name: 56, dtype: object

>  <hydroph_interaction:GLN:95>  (58) 
hydroph_interaction:GLN:95    0.0
hydroph_interaction:GLN:95      0
Name: 56, dtype: object

>  <halogenbond:GLN:95>  (58) 
halogenbond:GLN:95    0.0
halogenbond:GLN:95      0
Name: 56, dtype: object

>  <hbond:SER:96>  (58) 
hbond:SER:96    NaN
hbond:SER:96     -1
Name: 56, dtype: object

>  <halogenbond:HIS:97>  (58) 
halogenbond:HIS:97    NaN
halogenbond:HIS:97     -1
Name: 56, dtype: object

>  <hydroph_interaction:LEU:98>  (58) 
hydroph_interaction:LEU:98    NaN
hydroph_interaction:LEU:98     -1
Name: 56, dtype: object

>  <hbond:LEU:98>  (58) 
hbond:LEU:98    NaN
hbond:LEU:98     -1
Name: 56, dtype: object

>  <halogenbond:LEU:98>  (58) 
halogenbond:LEU:98    NaN
halogenbond:LEU:98     -1
Name: 56, dtype: object

>  <hbond:MET:99>  (58) 
hbond:MET:99    NaN
hbond:MET:99     -1
Name: 56, dtype: object

>  <hydroph_interaction:MET:99>  (58) 
hydroph_interaction:MET:99    NaN
hydroph_interaction:MET:99     -1
Name: 56, dtype: object

>  <halogenbond:MET:99>  (58) 
halogenbond:MET:99    NaN
halogenbond:MET:99     -1
Name: 56, dtype: object

>  <hydroph_interaction:LEU:100>  (58) 
hydroph_interaction:LEU:100    NaN
hydroph_interaction:LEU:100     -1
Name: 56, dtype: object

>  <hbond:LEU:100>  (58) 
hbond:LEU:100    NaN
hbond:LEU:100     -1
Name: 56, dtype: object

>  <hbond:ALA:101>  (58) 
hbond:ALA:101    NaN
hbond:ALA:101     -1
Name: 56, dtype: object

>  <hydroph_interaction:ALA:101>  (58) 
hydroph_interaction:ALA:101    NaN
hydroph_interaction:ALA:101     -1
Name: 56, dtype: object

>  <hydroph_interaction:VAL:102>  (58) 
hydroph_interaction:VAL:102    NaN
hydroph_interaction:VAL:102     -1
Name: 56, dtype: object

>  <hbond:VAL:102>  (58) 
hbond:VAL:102    NaN
hbond:VAL:102     -1
Name: 56, dtype: object

>  <hbond:GLY:103>  (58) 
hbond:GLY:103    NaN
hbond:GLY:103     -1
Name: 56, dtype: object

>  <halogenbond:GLY:103>  (58) 
halogenbond:GLY:103    NaN
halogenbond:GLY:103     -1
Name: 56, dtype: object

>  <hbond:HIS:104>  (58) 
hbond:HIS:104    NaN
hbond:HIS:104     -1
Name: 56, dtype: object

>  <saltbridge:HIS:104>  (58) 
saltbridge:HIS:104    NaN
saltbridge:HIS:104     -1
Name: 56, dtype: object

>  <pication:HIS:104>  (58) 
pication:HIS:104    NaN
pication:HIS:104     -1
Name: 56, dtype: object

>  <halogenbond:HIS:104>  (58) 
halogenbond:HIS:104    0.0
halogenbond:HIS:104      0
Name: 56, dtype: object

>  <hydroph_interaction:HIS:104>  (58) 
hydroph_interaction:HIS:104    NaN
hydroph_interaction:HIS:104     -1
Name: 56, dtype: object

>  <pistack:HIS:104>  (58) 
pistack:HIS:104    NaN
pistack:HIS:104     -1
Name: 56, dtype: object

>  <halogenbond:SER:105>  (58) 
halogenbond:SER:105    0.0
halogenbond:SER:105      0
Name: 56, dtype: object

>  <hbond:SER:105>  (58) 
hbond:SER:105    0.0
hbond:SER:105      0
Name: 56, dtype: object

>  <hbond:GLU:106>  (58) 
hbond:GLU:106    0.0
hbond:GLU:106      0
Name: 56, dtype: object

>  <hydroph_interaction:GLU:106>  (58) 
hydroph_interaction:GLU:106    NaN
hydroph_interaction:GLU:106     -1
Name: 56, dtype: object

>  <saltbridge:GLU:106>  (58) 
saltbridge:GLU:106    NaN
saltbridge:GLU:106     -1
Name: 56, dtype: object

>  <halogenbond:GLU:106>  (58) 
halogenbond:GLU:106    NaN
halogenbond:GLU:106     -1
Name: 56, dtype: object

>  <hydroph_interaction:PRO:107>  (58) 
hydroph_interaction:PRO:107    0
hydroph_interaction:PRO:107    0
Name: 56, dtype: object

>  <hbond:PRO:107>  (58) 
hbond:PRO:107    0.0
hbond:PRO:107      0
Name: 56, dtype: object

>  <halogenbond:PRO:107>  (58) 
halogenbond:PRO:107    NaN
halogenbond:PRO:107     -1
Name: 56, dtype: object

>  <hbond:GLY:108>  (58) 
hbond:GLY:108    0.0
hbond:GLY:108      0
Name: 56, dtype: object

>  <halogenbond:GLY:108>  (58) 
halogenbond:GLY:108    NaN
halogenbond:GLY:108     -1
Name: 56, dtype: object

>  <hbond:ASP:109>  (58) 
hbond:ASP:109    0.0
hbond:ASP:109      0
Name: 56, dtype: object

>  <hydroph_interaction:ASP:109>  (58) 
hydroph_interaction:ASP:109    0.0
hydroph_interaction:ASP:109      0
Name: 56, dtype: object

>  <saltbridge:ASP:109>  (58) 
saltbridge:ASP:109    NaN
saltbridge:ASP:109     -1
Name: 56, dtype: object

>  <halogenbond:CYS:110>  (58) 
halogenbond:CYS:110    0.0
halogenbond:CYS:110      0
Name: 56, dtype: object

>  <hbond:CYS:110>  (58) 
hbond:CYS:110    0.0
hbond:CYS:110      0
Name: 56, dtype: object

>  <hbond:GLY:111>  (58) 
hbond:GLY:111    NaN
hbond:GLY:111     -1
Name: 56, dtype: object

>  <hbond:GLY:112>  (58) 
hbond:GLY:112    NaN
hbond:GLY:112     -1
Name: 56, dtype: object

>  <hbond:ILE:113>  (58) 
hbond:ILE:113    NaN
hbond:ILE:113     -1
Name: 56, dtype: object

>  <hydroph_interaction:LEU:114>  (58) 
hydroph_interaction:LEU:114    NaN
hydroph_interaction:LEU:114     -1
Name: 56, dtype: object

>  <hbond:LEU:114>  (58) 
hbond:LEU:114    NaN
hbond:LEU:114     -1
Name: 56, dtype: object

>  <hydroph_interaction:ILE:123>  (58) 
hydroph_interaction:ILE:123    NaN
hydroph_interaction:ILE:123     -1
Name: 56, dtype: object

>  <hbond:ILE:123>  (58) 
hbond:ILE:123    NaN
hbond:ILE:123     -1
Name: 56, dtype: object

>  <hydroph_interaction:VAL:124>  (58) 
hydroph_interaction:VAL:124    1.0
hydroph_interaction:VAL:124      1
Name: 56, dtype: object

>  <hbond:VAL:124>  (58) 
hbond:VAL:124    NaN
hbond:VAL:124     -1
Name: 56, dtype: object

>  <halogenbond:VAL:124>  (58) 
halogenbond:VAL:124    NaN
halogenbond:VAL:124     -1
Name: 56, dtype: object

>  <hbond:SER:125>  (58) 
hbond:SER:125    0
hbond:SER:125    0
Name: 56, dtype: object

>  <halogenbond:SER:125>  (58) 
halogenbond:SER:125    0.0
halogenbond:SER:125      0
Name: 56, dtype: object

>  <hydroph_interaction:THR:126>  (58) 
hydroph_interaction:THR:126    0.0
hydroph_interaction:THR:126      0
Name: 56, dtype: object

>  <hbond:THR:126>  (58) 
hbond:THR:126    NaN
hbond:THR:126     -1
Name: 56, dtype: object

>  <halogenbond:THR:126>  (58) 
halogenbond:THR:126    NaN
halogenbond:THR:126     -1
Name: 56, dtype: object

>  <hbond:GLY:127>  (58) 
hbond:GLY:127    0
hbond:GLY:127    0
Name: 56, dtype: object

>  <halogenbond:GLY:127>  (58) 
halogenbond:GLY:127    NaN
halogenbond:GLY:127     -1
Name: 56, dtype: object

>  <hydroph_interaction:GLY:127>  (58) 
hydroph_interaction:GLY:127    NaN
hydroph_interaction:GLY:127     -1
Name: 56, dtype: object

>  <hbond:GLY:128>  (58) 
hbond:GLY:128    NaN
hbond:GLY:128     -1
Name: 56, dtype: object

>  <halogenbond:GLY:128>  (58) 
halogenbond:GLY:128    NaN
halogenbond:GLY:128     -1
Name: 56, dtype: object

>  <hydroph_interaction:GLY:128>  (58) 
hydroph_interaction:GLY:128    NaN
hydroph_interaction:GLY:128     -1
Name: 56, dtype: object

>  <hbond:ASN:129>  (58) 
hbond:ASN:129    NaN
hbond:ASN:129     -1
Name: 56, dtype: object

>  <hydroph_interaction:ASN:129>  (58) 
hydroph_interaction:ASN:129    NaN
hydroph_interaction:ASN:129     -1
Name: 56, dtype: object

>  <halogenbond:ASN:129>  (58) 
halogenbond:ASN:129    NaN
halogenbond:ASN:129     -1
Name: 56, dtype: object

>  <hbond:GLY:130>  (58) 
hbond:GLY:130    NaN
hbond:GLY:130     -1
Name: 56, dtype: object

>  <hbond:LEU:131>  (58) 
hbond:LEU:131    NaN
hbond:LEU:131     -1
Name: 56, dtype: object

>  <hydroph_interaction:LEU:131>  (58) 
hydroph_interaction:LEU:131    NaN
hydroph_interaction:LEU:131     -1
Name: 56, dtype: object

>  <halogenbond:LEU:131>  (58) 
halogenbond:LEU:131    NaN
halogenbond:LEU:131     -1
Name: 56, dtype: object

>  <hydroph_interaction:VAL:132>  (58) 
hydroph_interaction:VAL:132    NaN
hydroph_interaction:VAL:132     -1
Name: 56, dtype: object

>  <hbond:VAL:132>  (58) 
hbond:VAL:132    NaN
hbond:VAL:132     -1
Name: 56, dtype: object

>  <hbond:GLY:133>  (58) 
hbond:GLY:133    NaN
hbond:GLY:133     -1
Name: 56, dtype: object

>  <halogenbond:GLY:133>  (58) 
halogenbond:GLY:133    NaN
halogenbond:GLY:133     -1
Name: 56, dtype: object

>  <hydroph_interaction:PHE:134>  (58) 
hydroph_interaction:PHE:134    NaN
hydroph_interaction:PHE:134     -1
Name: 56, dtype: object

>  <hbond:PHE:134>  (58) 
hbond:PHE:134    NaN
hbond:PHE:134     -1
Name: 56, dtype: object

>  <pistack:PHE:134>  (58) 
pistack:PHE:134    NaN
pistack:PHE:134     -1
Name: 56, dtype: object

>  <pication:PHE:134>  (58) 
pication:PHE:134    NaN
pication:PHE:134     -1
Name: 56, dtype: object

>  <halogenbond:PHE:134>  (58) 
halogenbond:PHE:134    NaN
halogenbond:PHE:134     -1
Name: 56, dtype: object

>  <hydroph_interaction:ALA:135>  (58) 
hydroph_interaction:ALA:135    NaN
hydroph_interaction:ALA:135     -1
Name: 56, dtype: object

>  <hbond:ALA:135>  (58) 
hbond:ALA:135    NaN
hbond:ALA:135     -1
Name: 56, dtype: object

$$$$
Z1533092983
     RDKit          3D

 13 13  0  0  0  0  0  0  0  0999 V2000
   31.8100   16.8761   11.4502 C   0  0  0  0  0  0  0  0  0  0  0  0
   31.3183   15.9643   10.8462 C   0  0  0  0  0  0  0  0  0  0  0  0
   30.7222   14.8406   10.0998 C   0  0  0  0  0  0  0  0  0  0  0  0
   31.7550   14.1203    9.2174 C   0  0  0  0  0  0  0  0  0  0  0  0
   31.0982   13.4277    8.0747 N   0  0  0  0  0  0  0  0  0  0  0  0
   31.3908   12.0778    7.6957 C   0  0  0  0  0  0  0  0  0  0  0  0
   32.4475   11.7722    6.7947 C   0  0  0  0  0  0  0  0  0  0  0  0
   33.4043   13.0745    6.1527 Cl  0  0  0  0  0  0  0  0  0  0  0  0
   32.7367   10.4405    6.4142 C   0  0  0  0  0  0  0  0  0  0  0  0
   33.8400   10.0908    5.4585 C   0  0  0  0  0  0  0  0  0  0  0  0
   31.9689    9.4077    6.9472 C   0  0  0  0  0  0  0  0  0  0  0  0
   30.9320    9.6785    7.8254 C   0  0  0  0  0  0  0  0  0  0  0  0
   30.6503   10.9945    8.1845 C   0  0  0  0  0  0  0  0  0  0  0  0
  1  2  3  0
  2  3  1  0
  3  4  1  0
  4  5  1  0
  5  6  1  0
  6  7  2  0
  7  8  1  0
  7  9  1  0
  9 10  1  0
  9 11  2  0
 11 12  1  0
 12 13  2  0
 13  6  1  0
A    1
 C1 
A    2
 C2 
A    3
 C3 
A    4
 C4 
A    5
 N1 
A    6
 C5 
A    7
 C6 
A    8
CL1 
A    9
 C7 
A   10
 C8 
A   11
 C9 
A   12
 C10
A   13
 C11
M  END
>  <ref_pdb>  (59) 
Ax0310a

>  <ref_mols>  (59) 
Ax0554a,Ax0732a

>  <original SMILES>  (59) 
C#CCCNc1cccc(C)c1Cl

>  <rationale>  (59) 
info halogenbond:G127+D39+A86+E85+Q95+E106+E88+T126+P107+H104+Y64+C65+S87+N129+F83+R93+L131+I82+G128+P91+N19+H21+V84+G133+Y90+Y89+H97+L81+F134+L98+R20+G103+S66+S67+S7+G108+R38+V124+M99+S36; hbond:S87+D39+G108+G103+G128+G130+L131+N129+N19+H104+R68+V124+R93+P91+F83+S67+S7+S66+G112+G133+V132+Y89+S77+A135+Y63+A92+A101+M99+F134+L100+I82+Y64+S36+L98+V84+L81+Y94+S80+R38+S37+V102+G8+I123+G111+I113+L114+C65+L22+S96; hydroph_interaction:V84+Y90+T126+L22+E106+N129+N19+L40+I123+A135+Q95+I82+L100+L98+L131+F83+R93+V132+Y63+F134+H104+R20+A86+V74+P91+A101+F76+M99+L114+A92+Y94+R68+Y72+Y64+V18+V102+W28+G127+G128+L81; pication:H104+R93+Y63+F134+Y90+R68+F83+R20; pistack:H21+Y89+Y90+H104+F134+Y63+F83+Y94; saltbridge:D39+R93+H104+E106+D109+E85+E88+R68+R20; 

>  <intxn_cluster>  (59) 
-1

>  <intxn_cluster_rank>  (59) 
-1

>  <N_interactions>  (59) 
6

>  <∆∆G>  (59) 
-7.411645

>  <$/mg>  (59) 
0.0

>  <comRMSD>  (59) 
0.535208

>  <N_rotatable_bonds>  (59) 
4

>  <deep_P1_sidechain>  (59) 
nan

>  <farthest_distance_to_substrate>  (59) 
2.151686

>  <hbond:SER:7>  (59) 
hbond:SER:7    NaN
hbond:SER:7     -1
Name: 57, dtype: object

>  <halogenbond:SER:7>  (59) 
halogenbond:SER:7    NaN
halogenbond:SER:7     -1
Name: 57, dtype: object

>  <hbond:GLY:8>  (59) 
hbond:GLY:8    NaN
hbond:GLY:8     -1
Name: 57, dtype: object

>  <hydroph_interaction:VAL:18>  (59) 
hydroph_interaction:VAL:18    NaN
hydroph_interaction:VAL:18     -1
Name: 57, dtype: object

>  <hbond:ASN:19>  (59) 
hbond:ASN:19    NaN
hbond:ASN:19     -1
Name: 57, dtype: object

>  <hydroph_interaction:ASN:19>  (59) 
hydroph_interaction:ASN:19    NaN
hydroph_interaction:ASN:19     -1
Name: 57, dtype: object

>  <halogenbond:ASN:19>  (59) 
halogenbond:ASN:19    NaN
halogenbond:ASN:19     -1
Name: 57, dtype: object

>  <hbond:ARG:20>  (59) 
hbond:ARG:20    0.0
hbond:ARG:20      0
Name: 57, dtype: object

>  <hydroph_interaction:ARG:20>  (59) 
hydroph_interaction:ARG:20    NaN
hydroph_interaction:ARG:20     -1
Name: 57, dtype: object

>  <saltbridge:ARG:20>  (59) 
saltbridge:ARG:20    NaN
saltbridge:ARG:20     -1
Name: 57, dtype: object

>  <halogenbond:ARG:20>  (59) 
halogenbond:ARG:20    NaN
halogenbond:ARG:20     -1
Name: 57, dtype: object

>  <pication:ARG:20>  (59) 
pication:ARG:20    NaN
pication:ARG:20     -1
Name: 57, dtype: object

>  <hbond:HIS:21>  (59) 
hbond:HIS:21    0.0
hbond:HIS:21      0
Name: 57, dtype: object

>  <hydroph_interaction:HIS:21>  (59) 
hydroph_interaction:HIS:21    0.0
hydroph_interaction:HIS:21      0
Name: 57, dtype: object

>  <pistack:HIS:21>  (59) 
pistack:HIS:21    NaN
pistack:HIS:21     -1
Name: 57, dtype: object

>  <pication:HIS:21>  (59) 
pication:HIS:21    0.0
pication:HIS:21      0
Name: 57, dtype: object

>  <saltbridge:HIS:21>  (59) 
saltbridge:HIS:21    0.0
saltbridge:HIS:21      0
Name: 57, dtype: object

>  <halogenbond:HIS:21>  (59) 
halogenbond:HIS:21    NaN
halogenbond:HIS:21     -1
Name: 57, dtype: object

>  <hydroph_interaction:LEU:22>  (59) 
hydroph_interaction:LEU:22    NaN
hydroph_interaction:LEU:22     -1
Name: 57, dtype: object

>  <hbond:LEU:22>  (59) 
hbond:LEU:22    NaN
hbond:LEU:22     -1
Name: 57, dtype: object

>  <hydroph_interaction:TRP:28>  (59) 
hydroph_interaction:TRP:28    NaN
hydroph_interaction:TRP:28     -1
Name: 57, dtype: object

>  <hbond:SER:36>  (59) 
hbond:SER:36    NaN
hbond:SER:36     -1
Name: 57, dtype: object

>  <halogenbond:SER:36>  (59) 
halogenbond:SER:36    NaN
halogenbond:SER:36     -1
Name: 57, dtype: object

>  <hbond:SER:37>  (59) 
hbond:SER:37    NaN
hbond:SER:37     -1
Name: 57, dtype: object

>  <hbond:ARG:38>  (59) 
hbond:ARG:38    NaN
hbond:ARG:38     -1
Name: 57, dtype: object

>  <halogenbond:ARG:38>  (59) 
halogenbond:ARG:38    NaN
halogenbond:ARG:38     -1
Name: 57, dtype: object

>  <saltbridge:ASP:39>  (59) 
saltbridge:ASP:39    NaN
saltbridge:ASP:39     -1
Name: 57, dtype: object

>  <halogenbond:ASP:39>  (59) 
halogenbond:ASP:39    NaN
halogenbond:ASP:39     -1
Name: 57, dtype: object

>  <hbond:ASP:39>  (59) 
hbond:ASP:39    NaN
hbond:ASP:39     -1
Name: 57, dtype: object

>  <hydroph_interaction:ASP:39>  (59) 
hydroph_interaction:ASP:39    0.0
hydroph_interaction:ASP:39      0
Name: 57, dtype: object

>  <hydroph_interaction:LEU:40>  (59) 
hydroph_interaction:LEU:40    NaN
hydroph_interaction:LEU:40     -1
Name: 57, dtype: object

>  <hydroph_interaction:TYR:63>  (59) 
hydroph_interaction:TYR:63    NaN
hydroph_interaction:TYR:63     -1
Name: 57, dtype: object

>  <hbond:TYR:63>  (59) 
hbond:TYR:63    NaN
hbond:TYR:63     -1
Name: 57, dtype: object

>  <pistack:TYR:63>  (59) 
pistack:TYR:63    NaN
pistack:TYR:63     -1
Name: 57, dtype: object

>  <pication:TYR:63>  (59) 
pication:TYR:63    NaN
pication:TYR:63     -1
Name: 57, dtype: object

>  <halogenbond:TYR:64>  (59) 
halogenbond:TYR:64    NaN
halogenbond:TYR:64     -1
Name: 57, dtype: object

>  <hbond:TYR:64>  (59) 
hbond:TYR:64    NaN
hbond:TYR:64     -1
Name: 57, dtype: object

>  <hydroph_interaction:TYR:64>  (59) 
hydroph_interaction:TYR:64    NaN
hydroph_interaction:TYR:64     -1
Name: 57, dtype: object

>  <halogenbond:CYS:65>  (59) 
halogenbond:CYS:65    NaN
halogenbond:CYS:65     -1
Name: 57, dtype: object

>  <hbond:CYS:65>  (59) 
hbond:CYS:65    NaN
hbond:CYS:65     -1
Name: 57, dtype: object

>  <hbond:SER:66>  (59) 
hbond:SER:66    NaN
hbond:SER:66     -1
Name: 57, dtype: object

>  <halogenbond:SER:66>  (59) 
halogenbond:SER:66    NaN
halogenbond:SER:66     -1
Name: 57, dtype: object

>  <hbond:SER:67>  (59) 
hbond:SER:67    NaN
hbond:SER:67     -1
Name: 57, dtype: object

>  <halogenbond:SER:67>  (59) 
halogenbond:SER:67    NaN
halogenbond:SER:67     -1
Name: 57, dtype: object

>  <hbond:ARG:68>  (59) 
hbond:ARG:68    NaN
hbond:ARG:68     -1
Name: 57, dtype: object

>  <saltbridge:ARG:68>  (59) 
saltbridge:ARG:68    NaN
saltbridge:ARG:68     -1
Name: 57, dtype: object

>  <hydroph_interaction:ARG:68>  (59) 
hydroph_interaction:ARG:68    NaN
hydroph_interaction:ARG:68     -1
Name: 57, dtype: object

>  <pication:ARG:68>  (59) 
pication:ARG:68    NaN
pication:ARG:68     -1
Name: 57, dtype: object

>  <hydroph_interaction:TYR:72>  (59) 
hydroph_interaction:TYR:72    NaN
hydroph_interaction:TYR:72     -1
Name: 57, dtype: object

>  <hydroph_interaction:VAL:74>  (59) 
hydroph_interaction:VAL:74    NaN
hydroph_interaction:VAL:74     -1
Name: 57, dtype: object

>  <hydroph_interaction:PHE:76>  (59) 
hydroph_interaction:PHE:76    NaN
hydroph_interaction:PHE:76     -1
Name: 57, dtype: object

>  <hbond:SER:77>  (59) 
hbond:SER:77    NaN
hbond:SER:77     -1
Name: 57, dtype: object

>  <hbond:SER:80>  (59) 
hbond:SER:80    NaN
hbond:SER:80     -1
Name: 57, dtype: object

>  <hbond:LEU:81>  (59) 
hbond:LEU:81    NaN
hbond:LEU:81     -1
Name: 57, dtype: object

>  <halogenbond:LEU:81>  (59) 
halogenbond:LEU:81    NaN
halogenbond:LEU:81     -1
Name: 57, dtype: object

>  <hydroph_interaction:LEU:81>  (59) 
hydroph_interaction:LEU:81    NaN
hydroph_interaction:LEU:81     -1
Name: 57, dtype: object

>  <hydroph_interaction:ILE:82>  (59) 
hydroph_interaction:ILE:82    NaN
hydroph_interaction:ILE:82     -1
Name: 57, dtype: object

>  <halogenbond:ILE:82>  (59) 
halogenbond:ILE:82    NaN
halogenbond:ILE:82     -1
Name: 57, dtype: object

>  <hbond:ILE:82>  (59) 
hbond:ILE:82    NaN
hbond:ILE:82     -1
Name: 57, dtype: object

>  <hbond:PHE:83>  (59) 
hbond:PHE:83    NaN
hbond:PHE:83     -1
Name: 57, dtype: object

>  <hydroph_interaction:PHE:83>  (59) 
hydroph_interaction:PHE:83    NaN
hydroph_interaction:PHE:83     -1
Name: 57, dtype: object

>  <halogenbond:PHE:83>  (59) 
halogenbond:PHE:83    NaN
halogenbond:PHE:83     -1
Name: 57, dtype: object

>  <pistack:PHE:83>  (59) 
pistack:PHE:83    NaN
pistack:PHE:83     -1
Name: 57, dtype: object

>  <pication:PHE:83>  (59) 
pication:PHE:83    NaN
pication:PHE:83     -1
Name: 57, dtype: object

>  <hydroph_interaction:VAL:84>  (59) 
hydroph_interaction:VAL:84    1.0
hydroph_interaction:VAL:84      1
Name: 57, dtype: object

>  <halogenbond:VAL:84>  (59) 
halogenbond:VAL:84    NaN
halogenbond:VAL:84     -1
Name: 57, dtype: object

>  <hbond:VAL:84>  (59) 
hbond:VAL:84    NaN
hbond:VAL:84     -1
Name: 57, dtype: object

>  <hydroph_interaction:GLU:85>  (59) 
hydroph_interaction:GLU:85    0.0
hydroph_interaction:GLU:85      0
Name: 57, dtype: object

>  <hbond:GLU:85>  (59) 
hbond:GLU:85    0.0
hbond:GLU:85      0
Name: 57, dtype: object

>  <halogenbond:GLU:85>  (59) 
halogenbond:GLU:85    NaN
halogenbond:GLU:85     -1
Name: 57, dtype: object

>  <saltbridge:GLU:85>  (59) 
saltbridge:GLU:85    NaN
saltbridge:GLU:85     -1
Name: 57, dtype: object

>  <halogenbond:ALA:86>  (59) 
halogenbond:ALA:86    NaN
halogenbond:ALA:86     -1
Name: 57, dtype: object

>  <hbond:ALA:86>  (59) 
hbond:ALA:86    0.0
hbond:ALA:86      0
Name: 57, dtype: object

>  <hydroph_interaction:ALA:86>  (59) 
hydroph_interaction:ALA:86    NaN
hydroph_interaction:ALA:86     -1
Name: 57, dtype: object

>  <hbond:SER:87>  (59) 
hbond:SER:87    2
hbond:SER:87    2
Name: 57, dtype: object

>  <halogenbond:SER:87>  (59) 
halogenbond:SER:87    NaN
halogenbond:SER:87     -1
Name: 57, dtype: object

>  <hbond:GLU:88>  (59) 
hbond:GLU:88    0.0
hbond:GLU:88      0
Name: 57, dtype: object

>  <hydroph_interaction:GLU:88>  (59) 
hydroph_interaction:GLU:88    0.0
hydroph_interaction:GLU:88      0
Name: 57, dtype: object

>  <halogenbond:GLU:88>  (59) 
halogenbond:GLU:88    NaN
halogenbond:GLU:88     -1
Name: 57, dtype: object

>  <saltbridge:GLU:88>  (59) 
saltbridge:GLU:88    NaN
saltbridge:GLU:88     -1
Name: 57, dtype: object

>  <hydroph_interaction:TYR:89>  (59) 
hydroph_interaction:TYR:89    0.0
hydroph_interaction:TYR:89      0
Name: 57, dtype: object

>  <pistack:TYR:89>  (59) 
pistack:TYR:89    NaN
pistack:TYR:89     -1
Name: 57, dtype: object

>  <hbond:TYR:89>  (59) 
hbond:TYR:89    NaN
hbond:TYR:89     -1
Name: 57, dtype: object

>  <halogenbond:TYR:89>  (59) 
halogenbond:TYR:89    NaN
halogenbond:TYR:89     -1
Name: 57, dtype: object

>  <hydroph_interaction:TYR:90>  (59) 
hydroph_interaction:TYR:90    2.0
hydroph_interaction:TYR:90      2
Name: 57, dtype: object

>  <hbond:TYR:90>  (59) 
hbond:TYR:90    0.0
hbond:TYR:90      0
Name: 57, dtype: object

>  <pistack:TYR:90>  (59) 
pistack:TYR:90    NaN
pistack:TYR:90     -1
Name: 57, dtype: object

>  <halogenbond:TYR:90>  (59) 
halogenbond:TYR:90    NaN
halogenbond:TYR:90     -1
Name: 57, dtype: object

>  <pication:TYR:90>  (59) 
pication:TYR:90    NaN
pication:TYR:90     -1
Name: 57, dtype: object

>  <hbond:PRO:91>  (59) 
hbond:PRO:91    NaN
hbond:PRO:91     -1
Name: 57, dtype: object

>  <hydroph_interaction:PRO:91>  (59) 
hydroph_interaction:PRO:91    NaN
hydroph_interaction:PRO:91     -1
Name: 57, dtype: object

>  <halogenbond:PRO:91>  (59) 
halogenbond:PRO:91    NaN
halogenbond:PRO:91     -1
Name: 57, dtype: object

>  <hbond:ALA:92>  (59) 
hbond:ALA:92    NaN
hbond:ALA:92     -1
Name: 57, dtype: object

>  <hydroph_interaction:ALA:92>  (59) 
hydroph_interaction:ALA:92    NaN
hydroph_interaction:ALA:92     -1
Name: 57, dtype: object

>  <saltbridge:ARG:93>  (59) 
saltbridge:ARG:93    NaN
saltbridge:ARG:93     -1
Name: 57, dtype: object

>  <hbond:ARG:93>  (59) 
hbond:ARG:93    NaN
hbond:ARG:93     -1
Name: 57, dtype: object

>  <hydroph_interaction:ARG:93>  (59) 
hydroph_interaction:ARG:93    NaN
hydroph_interaction:ARG:93     -1
Name: 57, dtype: object

>  <halogenbond:ARG:93>  (59) 
halogenbond:ARG:93    NaN
halogenbond:ARG:93     -1
Name: 57, dtype: object

>  <pication:ARG:93>  (59) 
pication:ARG:93    NaN
pication:ARG:93     -1
Name: 57, dtype: object

>  <hydroph_interaction:TYR:94>  (59) 
hydroph_interaction:TYR:94    NaN
hydroph_interaction:TYR:94     -1
Name: 57, dtype: object

>  <pistack:TYR:94>  (59) 
pistack:TYR:94    NaN
pistack:TYR:94     -1
Name: 57, dtype: object

>  <hbond:TYR:94>  (59) 
hbond:TYR:94    NaN
hbond:TYR:94     -1
Name: 57, dtype: object

>  <hbond:GLN:95>  (59) 
hbond:GLN:95    0.0
hbond:GLN:95      0
Name: 57, dtype: object

>  <hydroph_interaction:GLN:95>  (59) 
hydroph_interaction:GLN:95    NaN
hydroph_interaction:GLN:95     -1
Name: 57, dtype: object

>  <halogenbond:GLN:95>  (59) 
halogenbond:GLN:95    NaN
halogenbond:GLN:95     -1
Name: 57, dtype: object

>  <hbond:SER:96>  (59) 
hbond:SER:96    NaN
hbond:SER:96     -1
Name: 57, dtype: object

>  <halogenbond:HIS:97>  (59) 
halogenbond:HIS:97    NaN
halogenbond:HIS:97     -1
Name: 57, dtype: object

>  <hydroph_interaction:LEU:98>  (59) 
hydroph_interaction:LEU:98    NaN
hydroph_interaction:LEU:98     -1
Name: 57, dtype: object

>  <hbond:LEU:98>  (59) 
hbond:LEU:98    NaN
hbond:LEU:98     -1
Name: 57, dtype: object

>  <halogenbond:LEU:98>  (59) 
halogenbond:LEU:98    NaN
halogenbond:LEU:98     -1
Name: 57, dtype: object

>  <hbond:MET:99>  (59) 
hbond:MET:99    NaN
hbond:MET:99     -1
Name: 57, dtype: object

>  <hydroph_interaction:MET:99>  (59) 
hydroph_interaction:MET:99    NaN
hydroph_interaction:MET:99     -1
Name: 57, dtype: object

>  <halogenbond:MET:99>  (59) 
halogenbond:MET:99    NaN
halogenbond:MET:99     -1
Name: 57, dtype: object

>  <hydroph_interaction:LEU:100>  (59) 
hydroph_interaction:LEU:100    NaN
hydroph_interaction:LEU:100     -1
Name: 57, dtype: object

>  <hbond:LEU:100>  (59) 
hbond:LEU:100    NaN
hbond:LEU:100     -1
Name: 57, dtype: object

>  <hbond:ALA:101>  (59) 
hbond:ALA:101    NaN
hbond:ALA:101     -1
Name: 57, dtype: object

>  <hydroph_interaction:ALA:101>  (59) 
hydroph_interaction:ALA:101    NaN
hydroph_interaction:ALA:101     -1
Name: 57, dtype: object

>  <hydroph_interaction:VAL:102>  (59) 
hydroph_interaction:VAL:102    NaN
hydroph_interaction:VAL:102     -1
Name: 57, dtype: object

>  <hbond:VAL:102>  (59) 
hbond:VAL:102    NaN
hbond:VAL:102     -1
Name: 57, dtype: object

>  <hbond:GLY:103>  (59) 
hbond:GLY:103    NaN
hbond:GLY:103     -1
Name: 57, dtype: object

>  <halogenbond:GLY:103>  (59) 
halogenbond:GLY:103    NaN
halogenbond:GLY:103     -1
Name: 57, dtype: object

>  <hbond:HIS:104>  (59) 
hbond:HIS:104    NaN
hbond:HIS:104     -1
Name: 57, dtype: object

>  <saltbridge:HIS:104>  (59) 
saltbridge:HIS:104    NaN
saltbridge:HIS:104     -1
Name: 57, dtype: object

>  <pication:HIS:104>  (59) 
pication:HIS:104    NaN
pication:HIS:104     -1
Name: 57, dtype: object

>  <halogenbond:HIS:104>  (59) 
halogenbond:HIS:104    NaN
halogenbond:HIS:104     -1
Name: 57, dtype: object

>  <hydroph_interaction:HIS:104>  (59) 
hydroph_interaction:HIS:104    NaN
hydroph_interaction:HIS:104     -1
Name: 57, dtype: object

>  <pistack:HIS:104>  (59) 
pistack:HIS:104    NaN
pistack:HIS:104     -1
Name: 57, dtype: object

>  <halogenbond:SER:105>  (59) 
halogenbond:SER:105    0.0
halogenbond:SER:105      0
Name: 57, dtype: object

>  <hbond:SER:105>  (59) 
hbond:SER:105    0.0
hbond:SER:105      0
Name: 57, dtype: object

>  <hbond:GLU:106>  (59) 
hbond:GLU:106    0.0
hbond:GLU:106      0
Name: 57, dtype: object

>  <hydroph_interaction:GLU:106>  (59) 
hydroph_interaction:GLU:106    NaN
hydroph_interaction:GLU:106     -1
Name: 57, dtype: object

>  <saltbridge:GLU:106>  (59) 
saltbridge:GLU:106    NaN
saltbridge:GLU:106     -1
Name: 57, dtype: object

>  <halogenbond:GLU:106>  (59) 
halogenbond:GLU:106    NaN
halogenbond:GLU:106     -1
Name: 57, dtype: object

>  <hydroph_interaction:PRO:107>  (59) 
hydroph_interaction:PRO:107    0
hydroph_interaction:PRO:107    0
Name: 57, dtype: object

>  <hbond:PRO:107>  (59) 
hbond:PRO:107    0.0
hbond:PRO:107      0
Name: 57, dtype: object

>  <halogenbond:PRO:107>  (59) 
halogenbond:PRO:107    NaN
halogenbond:PRO:107     -1
Name: 57, dtype: object

>  <hbond:GLY:108>  (59) 
hbond:GLY:108    NaN
hbond:GLY:108     -1
Name: 57, dtype: object

>  <halogenbond:GLY:108>  (59) 
halogenbond:GLY:108    NaN
halogenbond:GLY:108     -1
Name: 57, dtype: object

>  <hbond:ASP:109>  (59) 
hbond:ASP:109    0.0
hbond:ASP:109      0
Name: 57, dtype: object

>  <hydroph_interaction:ASP:109>  (59) 
hydroph_interaction:ASP:109    0.0
hydroph_interaction:ASP:109      0
Name: 57, dtype: object

>  <saltbridge:ASP:109>  (59) 
saltbridge:ASP:109    NaN
saltbridge:ASP:109     -1
Name: 57, dtype: object

>  <halogenbond:CYS:110>  (59) 
halogenbond:CYS:110    0.0
halogenbond:CYS:110      0
Name: 57, dtype: object

>  <hbond:CYS:110>  (59) 
hbond:CYS:110    0.0
hbond:CYS:110      0
Name: 57, dtype: object

>  <hbond:GLY:111>  (59) 
hbond:GLY:111    NaN
hbond:GLY:111     -1
Name: 57, dtype: object

>  <hbond:GLY:112>  (59) 
hbond:GLY:112    NaN
hbond:GLY:112     -1
Name: 57, dtype: object

>  <hbond:ILE:113>  (59) 
hbond:ILE:113    NaN
hbond:ILE:113     -1
Name: 57, dtype: object

>  <hydroph_interaction:LEU:114>  (59) 
hydroph_interaction:LEU:114    NaN
hydroph_interaction:LEU:114     -1
Name: 57, dtype: object

>  <hbond:LEU:114>  (59) 
hbond:LEU:114    NaN
hbond:LEU:114     -1
Name: 57, dtype: object

>  <hydroph_interaction:ILE:123>  (59) 
hydroph_interaction:ILE:123    NaN
hydroph_interaction:ILE:123     -1
Name: 57, dtype: object

>  <hbond:ILE:123>  (59) 
hbond:ILE:123    NaN
hbond:ILE:123     -1
Name: 57, dtype: object

>  <hydroph_interaction:VAL:124>  (59) 
hydroph_interaction:VAL:124    0.0
hydroph_interaction:VAL:124      0
Name: 57, dtype: object

>  <hbond:VAL:124>  (59) 
hbond:VAL:124    NaN
hbond:VAL:124     -1
Name: 57, dtype: object

>  <halogenbond:VAL:124>  (59) 
halogenbond:VAL:124    NaN
halogenbond:VAL:124     -1
Name: 57, dtype: object

>  <hbond:SER:125>  (59) 
hbond:SER:125    0
hbond:SER:125    0
Name: 57, dtype: object

>  <halogenbond:SER:125>  (59) 
halogenbond:SER:125    0.0
halogenbond:SER:125      0
Name: 57, dtype: object

>  <hydroph_interaction:THR:126>  (59) 
hydroph_interaction:THR:126    1.0
hydroph_interaction:THR:126      1
Name: 57, dtype: object

>  <hbond:THR:126>  (59) 
hbond:THR:126    0.0
hbond:THR:126      0
Name: 57, dtype: object

>  <halogenbond:THR:126>  (59) 
halogenbond:THR:126    NaN
halogenbond:THR:126     -1
Name: 57, dtype: object

>  <hbond:GLY:127>  (59) 
hbond:GLY:127    0
hbond:GLY:127    0
Name: 57, dtype: object

>  <halogenbond:GLY:127>  (59) 
halogenbond:GLY:127    NaN
halogenbond:GLY:127     -1
Name: 57, dtype: object

>  <hydroph_interaction:GLY:127>  (59) 
hydroph_interaction:GLY:127    NaN
hydroph_interaction:GLY:127     -1
Name: 57, dtype: object

>  <hbond:GLY:128>  (59) 
hbond:GLY:128    NaN
hbond:GLY:128     -1
Name: 57, dtype: object

>  <halogenbond:GLY:128>  (59) 
halogenbond:GLY:128    NaN
halogenbond:GLY:128     -1
Name: 57, dtype: object

>  <hydroph_interaction:GLY:128>  (59) 
hydroph_interaction:GLY:128    NaN
hydroph_interaction:GLY:128     -1
Name: 57, dtype: object

>  <hbond:ASN:129>  (59) 
hbond:ASN:129    NaN
hbond:ASN:129     -1
Name: 57, dtype: object

>  <hydroph_interaction:ASN:129>  (59) 
hydroph_interaction:ASN:129    NaN
hydroph_interaction:ASN:129     -1
Name: 57, dtype: object

>  <halogenbond:ASN:129>  (59) 
halogenbond:ASN:129    NaN
halogenbond:ASN:129     -1
Name: 57, dtype: object

>  <hbond:GLY:130>  (59) 
hbond:GLY:130    NaN
hbond:GLY:130     -1
Name: 57, dtype: object

>  <hbond:LEU:131>  (59) 
hbond:LEU:131    NaN
hbond:LEU:131     -1
Name: 57, dtype: object

>  <hydroph_interaction:LEU:131>  (59) 
hydroph_interaction:LEU:131    NaN
hydroph_interaction:LEU:131     -1
Name: 57, dtype: object

>  <halogenbond:LEU:131>  (59) 
halogenbond:LEU:131    NaN
halogenbond:LEU:131     -1
Name: 57, dtype: object

>  <hydroph_interaction:VAL:132>  (59) 
hydroph_interaction:VAL:132    NaN
hydroph_interaction:VAL:132     -1
Name: 57, dtype: object

>  <hbond:VAL:132>  (59) 
hbond:VAL:132    NaN
hbond:VAL:132     -1
Name: 57, dtype: object

>  <hbond:GLY:133>  (59) 
hbond:GLY:133    NaN
hbond:GLY:133     -1
Name: 57, dtype: object

>  <halogenbond:GLY:133>  (59) 
halogenbond:GLY:133    NaN
halogenbond:GLY:133     -1
Name: 57, dtype: object

>  <hydroph_interaction:PHE:134>  (59) 
hydroph_interaction:PHE:134    NaN
hydroph_interaction:PHE:134     -1
Name: 57, dtype: object

>  <hbond:PHE:134>  (59) 
hbond:PHE:134    NaN
hbond:PHE:134     -1
Name: 57, dtype: object

>  <pistack:PHE:134>  (59) 
pistack:PHE:134    NaN
pistack:PHE:134     -1
Name: 57, dtype: object

>  <pication:PHE:134>  (59) 
pication:PHE:134    NaN
pication:PHE:134     -1
Name: 57, dtype: object

>  <halogenbond:PHE:134>  (59) 
halogenbond:PHE:134    NaN
halogenbond:PHE:134     -1
Name: 57, dtype: object

>  <hydroph_interaction:ALA:135>  (59) 
hydroph_interaction:ALA:135    NaN
hydroph_interaction:ALA:135     -1
Name: 57, dtype: object

>  <hbond:ALA:135>  (59) 
hbond:ALA:135    NaN
hbond:ALA:135     -1
Name: 57, dtype: object

$$$$
PV_005244075533
     RDKit          3D

  8  7  0  0  0  0  0  0  0  0999 V2000
   42.3141   11.9012   11.4638 C   0  0  0  0  0  0  0  0  0  0  0  0
   41.2404   11.9867   12.3939 O   0  0  0  0  0  0  0  0  0  0  0  0
   40.0512   12.0690   11.6650 N   0  0  0  0  0  0  0  0  0  0  0  0
   38.9673   11.4733   12.4845 C   0  0  0  0  0  0  0  0  0  0  0  0
   37.5388   11.3997   12.0126 C   0  0  0  0  0  0  0  0  0  0  0  0
   37.0500    9.9773   11.7424 C   0  0  0  0  0  0  0  0  0  0  0  0
   36.7233   12.0548   13.1117 C   0  0  0  0  0  0  0  0  0  0  0  0
   37.4062   12.2249   10.7196 C   0  0  0  0  0  0  0  0  0  0  0  0
  1  2  1  0
  2  3  1  0
  3  4  2  3
  4  5  1  0
  5  6  1  0
  5  7  1  0
  5  8  1  0
A    1
 C1 
A    2
 O1 
A    3
 N1 
A    4
 C2 
A    5
 C3 
A    6
 C4 
A    7
 C5 
A    8
 C6 
M  END
>  <ref_pdb>  (60) 
Ax0310a

>  <ref_mols>  (60) 
Ax0526a,Ax0365a

>  <original SMILES>  (60) 
CON=CC(C)(C)C

>  <rationale>  (60) 
info halogenbond:C110+G127+D39+A86+S125+E85+Q95+E106+E88+P107+H104+Y64+C65+S87+R93+I82+P91+N19+H21+V84+G133+Y90+Y89+H97+L81+F134+L98+R20+G103+S66+S67+S7+G108+R38+V124+M99+S36; hbond:Y90+D39+D109+G108+G103+N19+H104+R68+V124+R93+P91+S67+S7+S66+G112+R20+Y89+S77+A135+Y63+A92+A101+M99+F134+L100+Y64+S36+L98+V84+L81+Y94+S80+R38+S37+V102+G8+I123+G111+I113+L114+C65+L22+S96; hydroph_interaction:V84+H21+L22+E106+D109+D39+N19+L40+I123+A135+L100+L98+L131+R93+Y63+F134+H104+R20+A86+V74+P91+A101+F76+M99+L114+A92+Y94+R68+Y72+Y64+V18+V102+W28+G127+G128+L81; pication:H21+H104+R93+Y63+F134+Y90+R68+F83+R20; pistack:H21+Y89+Y90+H104+F134+Y63+F83+Y94; saltbridge:D39+R93+H104+E106+D109+E88+R68+R20; 

>  <intxn_cluster>  (60) 
-1

>  <intxn_cluster_rank>  (60) 
-1

>  <N_interactions>  (60) 
5

>  <∆∆G>  (60) 
-7.740916

>  <$/mg>  (60) 
244.5

>  <comRMSD>  (60) 
0.895812

>  <N_rotatable_bonds>  (60) 
2

>  <deep_P1_sidechain>  (60) 
nan

>  <farthest_distance_to_substrate>  (60) 
3.406275

>  <hbond:SER:7>  (60) 
hbond:SER:7    NaN
hbond:SER:7     -1
Name: 58, dtype: object

>  <halogenbond:SER:7>  (60) 
halogenbond:SER:7    NaN
halogenbond:SER:7     -1
Name: 58, dtype: object

>  <hbond:GLY:8>  (60) 
hbond:GLY:8    NaN
hbond:GLY:8     -1
Name: 58, dtype: object

>  <hydroph_interaction:VAL:18>  (60) 
hydroph_interaction:VAL:18    NaN
hydroph_interaction:VAL:18     -1
Name: 58, dtype: object

>  <hbond:ASN:19>  (60) 
hbond:ASN:19    NaN
hbond:ASN:19     -1
Name: 58, dtype: object

>  <hydroph_interaction:ASN:19>  (60) 
hydroph_interaction:ASN:19    NaN
hydroph_interaction:ASN:19     -1
Name: 58, dtype: object

>  <halogenbond:ASN:19>  (60) 
halogenbond:ASN:19    NaN
halogenbond:ASN:19     -1
Name: 58, dtype: object

>  <hbond:ARG:20>  (60) 
hbond:ARG:20    NaN
hbond:ARG:20     -1
Name: 58, dtype: object

>  <hydroph_interaction:ARG:20>  (60) 
hydroph_interaction:ARG:20    NaN
hydroph_interaction:ARG:20     -1
Name: 58, dtype: object

>  <saltbridge:ARG:20>  (60) 
saltbridge:ARG:20    NaN
saltbridge:ARG:20     -1
Name: 58, dtype: object

>  <halogenbond:ARG:20>  (60) 
halogenbond:ARG:20    NaN
halogenbond:ARG:20     -1
Name: 58, dtype: object

>  <pication:ARG:20>  (60) 
pication:ARG:20    NaN
pication:ARG:20     -1
Name: 58, dtype: object

>  <hbond:HIS:21>  (60) 
hbond:HIS:21    0.0
hbond:HIS:21      0
Name: 58, dtype: object

>  <hydroph_interaction:HIS:21>  (60) 
hydroph_interaction:HIS:21    NaN
hydroph_interaction:HIS:21     -1
Name: 58, dtype: object

>  <pistack:HIS:21>  (60) 
pistack:HIS:21    NaN
pistack:HIS:21     -1
Name: 58, dtype: object

>  <pication:HIS:21>  (60) 
pication:HIS:21    NaN
pication:HIS:21     -1
Name: 58, dtype: object

>  <saltbridge:HIS:21>  (60) 
saltbridge:HIS:21    0.0
saltbridge:HIS:21      0
Name: 58, dtype: object

>  <halogenbond:HIS:21>  (60) 
halogenbond:HIS:21    NaN
halogenbond:HIS:21     -1
Name: 58, dtype: object

>  <hydroph_interaction:LEU:22>  (60) 
hydroph_interaction:LEU:22    NaN
hydroph_interaction:LEU:22     -1
Name: 58, dtype: object

>  <hbond:LEU:22>  (60) 
hbond:LEU:22    NaN
hbond:LEU:22     -1
Name: 58, dtype: object

>  <hydroph_interaction:TRP:28>  (60) 
hydroph_interaction:TRP:28    NaN
hydroph_interaction:TRP:28     -1
Name: 58, dtype: object

>  <hbond:SER:36>  (60) 
hbond:SER:36    NaN
hbond:SER:36     -1
Name: 58, dtype: object

>  <halogenbond:SER:36>  (60) 
halogenbond:SER:36    NaN
halogenbond:SER:36     -1
Name: 58, dtype: object

>  <hbond:SER:37>  (60) 
hbond:SER:37    NaN
hbond:SER:37     -1
Name: 58, dtype: object

>  <hbond:ARG:38>  (60) 
hbond:ARG:38    NaN
hbond:ARG:38     -1
Name: 58, dtype: object

>  <halogenbond:ARG:38>  (60) 
halogenbond:ARG:38    NaN
halogenbond:ARG:38     -1
Name: 58, dtype: object

>  <saltbridge:ASP:39>  (60) 
saltbridge:ASP:39    NaN
saltbridge:ASP:39     -1
Name: 58, dtype: object

>  <halogenbond:ASP:39>  (60) 
halogenbond:ASP:39    NaN
halogenbond:ASP:39     -1
Name: 58, dtype: object

>  <hbond:ASP:39>  (60) 
hbond:ASP:39    NaN
hbond:ASP:39     -1
Name: 58, dtype: object

>  <hydroph_interaction:ASP:39>  (60) 
hydroph_interaction:ASP:39    NaN
hydroph_interaction:ASP:39     -1
Name: 58, dtype: object

>  <hydroph_interaction:LEU:40>  (60) 
hydroph_interaction:LEU:40    NaN
hydroph_interaction:LEU:40     -1
Name: 58, dtype: object

>  <hydroph_interaction:TYR:63>  (60) 
hydroph_interaction:TYR:63    NaN
hydroph_interaction:TYR:63     -1
Name: 58, dtype: object

>  <hbond:TYR:63>  (60) 
hbond:TYR:63    NaN
hbond:TYR:63     -1
Name: 58, dtype: object

>  <pistack:TYR:63>  (60) 
pistack:TYR:63    NaN
pistack:TYR:63     -1
Name: 58, dtype: object

>  <pication:TYR:63>  (60) 
pication:TYR:63    NaN
pication:TYR:63     -1
Name: 58, dtype: object

>  <halogenbond:TYR:64>  (60) 
halogenbond:TYR:64    NaN
halogenbond:TYR:64     -1
Name: 58, dtype: object

>  <hbond:TYR:64>  (60) 
hbond:TYR:64    NaN
hbond:TYR:64     -1
Name: 58, dtype: object

>  <hydroph_interaction:TYR:64>  (60) 
hydroph_interaction:TYR:64    NaN
hydroph_interaction:TYR:64     -1
Name: 58, dtype: object

>  <halogenbond:CYS:65>  (60) 
halogenbond:CYS:65    NaN
halogenbond:CYS:65     -1
Name: 58, dtype: object

>  <hbond:CYS:65>  (60) 
hbond:CYS:65    NaN
hbond:CYS:65     -1
Name: 58, dtype: object

>  <hbond:SER:66>  (60) 
hbond:SER:66    NaN
hbond:SER:66     -1
Name: 58, dtype: object

>  <halogenbond:SER:66>  (60) 
halogenbond:SER:66    NaN
halogenbond:SER:66     -1
Name: 58, dtype: object

>  <hbond:SER:67>  (60) 
hbond:SER:67    NaN
hbond:SER:67     -1
Name: 58, dtype: object

>  <halogenbond:SER:67>  (60) 
halogenbond:SER:67    NaN
halogenbond:SER:67     -1
Name: 58, dtype: object

>  <hbond:ARG:68>  (60) 
hbond:ARG:68    NaN
hbond:ARG:68     -1
Name: 58, dtype: object

>  <saltbridge:ARG:68>  (60) 
saltbridge:ARG:68    NaN
saltbridge:ARG:68     -1
Name: 58, dtype: object

>  <hydroph_interaction:ARG:68>  (60) 
hydroph_interaction:ARG:68    NaN
hydroph_interaction:ARG:68     -1
Name: 58, dtype: object

>  <pication:ARG:68>  (60) 
pication:ARG:68    NaN
pication:ARG:68     -1
Name: 58, dtype: object

>  <hydroph_interaction:TYR:72>  (60) 
hydroph_interaction:TYR:72    NaN
hydroph_interaction:TYR:72     -1
Name: 58, dtype: object

>  <hydroph_interaction:VAL:74>  (60) 
hydroph_interaction:VAL:74    NaN
hydroph_interaction:VAL:74     -1
Name: 58, dtype: object

>  <hydroph_interaction:PHE:76>  (60) 
hydroph_interaction:PHE:76    NaN
hydroph_interaction:PHE:76     -1
Name: 58, dtype: object

>  <hbond:SER:77>  (60) 
hbond:SER:77    NaN
hbond:SER:77     -1
Name: 58, dtype: object

>  <hbond:SER:80>  (60) 
hbond:SER:80    NaN
hbond:SER:80     -1
Name: 58, dtype: object

>  <hbond:LEU:81>  (60) 
hbond:LEU:81    NaN
hbond:LEU:81     -1
Name: 58, dtype: object

>  <halogenbond:LEU:81>  (60) 
halogenbond:LEU:81    NaN
halogenbond:LEU:81     -1
Name: 58, dtype: object

>  <hydroph_interaction:LEU:81>  (60) 
hydroph_interaction:LEU:81    NaN
hydroph_interaction:LEU:81     -1
Name: 58, dtype: object

>  <hydroph_interaction:ILE:82>  (60) 
hydroph_interaction:ILE:82    0.0
hydroph_interaction:ILE:82      0
Name: 58, dtype: object

>  <halogenbond:ILE:82>  (60) 
halogenbond:ILE:82    NaN
halogenbond:ILE:82     -1
Name: 58, dtype: object

>  <hbond:ILE:82>  (60) 
hbond:ILE:82    0.0
hbond:ILE:82      0
Name: 58, dtype: object

>  <hbond:PHE:83>  (60) 
hbond:PHE:83    0.0
hbond:PHE:83      0
Name: 58, dtype: object

>  <hydroph_interaction:PHE:83>  (60) 
hydroph_interaction:PHE:83    0.0
hydroph_interaction:PHE:83      0
Name: 58, dtype: object

>  <halogenbond:PHE:83>  (60) 
halogenbond:PHE:83    0.0
halogenbond:PHE:83      0
Name: 58, dtype: object

>  <pistack:PHE:83>  (60) 
pistack:PHE:83    NaN
pistack:PHE:83     -1
Name: 58, dtype: object

>  <pication:PHE:83>  (60) 
pication:PHE:83    NaN
pication:PHE:83     -1
Name: 58, dtype: object

>  <hydroph_interaction:VAL:84>  (60) 
hydroph_interaction:VAL:84    2.0
hydroph_interaction:VAL:84      2
Name: 58, dtype: object

>  <halogenbond:VAL:84>  (60) 
halogenbond:VAL:84    NaN
halogenbond:VAL:84     -1
Name: 58, dtype: object

>  <hbond:VAL:84>  (60) 
hbond:VAL:84    NaN
hbond:VAL:84     -1
Name: 58, dtype: object

>  <hydroph_interaction:GLU:85>  (60) 
hydroph_interaction:GLU:85    0.0
hydroph_interaction:GLU:85      0
Name: 58, dtype: object

>  <hbond:GLU:85>  (60) 
hbond:GLU:85    0.0
hbond:GLU:85      0
Name: 58, dtype: object

>  <halogenbond:GLU:85>  (60) 
halogenbond:GLU:85    NaN
halogenbond:GLU:85     -1
Name: 58, dtype: object

>  <saltbridge:GLU:85>  (60) 
saltbridge:GLU:85    0.0
saltbridge:GLU:85      0
Name: 58, dtype: object

>  <halogenbond:ALA:86>  (60) 
halogenbond:ALA:86    NaN
halogenbond:ALA:86     -1
Name: 58, dtype: object

>  <hbond:ALA:86>  (60) 
hbond:ALA:86    0.0
hbond:ALA:86      0
Name: 58, dtype: object

>  <hydroph_interaction:ALA:86>  (60) 
hydroph_interaction:ALA:86    NaN
hydroph_interaction:ALA:86     -1
Name: 58, dtype: object

>  <hbond:SER:87>  (60) 
hbond:SER:87    0
hbond:SER:87    0
Name: 58, dtype: object

>  <halogenbond:SER:87>  (60) 
halogenbond:SER:87    NaN
halogenbond:SER:87     -1
Name: 58, dtype: object

>  <hbond:GLU:88>  (60) 
hbond:GLU:88    0.0
hbond:GLU:88      0
Name: 58, dtype: object

>  <hydroph_interaction:GLU:88>  (60) 
hydroph_interaction:GLU:88    0.0
hydroph_interaction:GLU:88      0
Name: 58, dtype: object

>  <halogenbond:GLU:88>  (60) 
halogenbond:GLU:88    NaN
halogenbond:GLU:88     -1
Name: 58, dtype: object

>  <saltbridge:GLU:88>  (60) 
saltbridge:GLU:88    NaN
saltbridge:GLU:88     -1
Name: 58, dtype: object

>  <hydroph_interaction:TYR:89>  (60) 
hydroph_interaction:TYR:89    0.0
hydroph_interaction:TYR:89      0
Name: 58, dtype: object

>  <pistack:TYR:89>  (60) 
pistack:TYR:89    NaN
pistack:TYR:89     -1
Name: 58, dtype: object

>  <hbond:TYR:89>  (60) 
hbond:TYR:89    NaN
hbond:TYR:89     -1
Name: 58, dtype: object

>  <halogenbond:TYR:89>  (60) 
halogenbond:TYR:89    NaN
halogenbond:TYR:89     -1
Name: 58, dtype: object

>  <hydroph_interaction:TYR:90>  (60) 
hydroph_interaction:TYR:90    0.0
hydroph_interaction:TYR:90      0
Name: 58, dtype: object

>  <hbond:TYR:90>  (60) 
hbond:TYR:90    NaN
hbond:TYR:90     -1
Name: 58, dtype: object

>  <pistack:TYR:90>  (60) 
pistack:TYR:90    NaN
pistack:TYR:90     -1
Name: 58, dtype: object

>  <halogenbond:TYR:90>  (60) 
halogenbond:TYR:90    NaN
halogenbond:TYR:90     -1
Name: 58, dtype: object

>  <pication:TYR:90>  (60) 
pication:TYR:90    NaN
pication:TYR:90     -1
Name: 58, dtype: object

>  <hbond:PRO:91>  (60) 
hbond:PRO:91    NaN
hbond:PRO:91     -1
Name: 58, dtype: object

>  <hydroph_interaction:PRO:91>  (60) 
hydroph_interaction:PRO:91    NaN
hydroph_interaction:PRO:91     -1
Name: 58, dtype: object

>  <halogenbond:PRO:91>  (60) 
halogenbond:PRO:91    NaN
halogenbond:PRO:91     -1
Name: 58, dtype: object

>  <hbond:ALA:92>  (60) 
hbond:ALA:92    NaN
hbond:ALA:92     -1
Name: 58, dtype: object

>  <hydroph_interaction:ALA:92>  (60) 
hydroph_interaction:ALA:92    NaN
hydroph_interaction:ALA:92     -1
Name: 58, dtype: object

>  <saltbridge:ARG:93>  (60) 
saltbridge:ARG:93    NaN
saltbridge:ARG:93     -1
Name: 58, dtype: object

>  <hbond:ARG:93>  (60) 
hbond:ARG:93    NaN
hbond:ARG:93     -1
Name: 58, dtype: object

>  <hydroph_interaction:ARG:93>  (60) 
hydroph_interaction:ARG:93    NaN
hydroph_interaction:ARG:93     -1
Name: 58, dtype: object

>  <halogenbond:ARG:93>  (60) 
halogenbond:ARG:93    NaN
halogenbond:ARG:93     -1
Name: 58, dtype: object

>  <pication:ARG:93>  (60) 
pication:ARG:93    NaN
pication:ARG:93     -1
Name: 58, dtype: object

>  <hydroph_interaction:TYR:94>  (60) 
hydroph_interaction:TYR:94    NaN
hydroph_interaction:TYR:94     -1
Name: 58, dtype: object

>  <pistack:TYR:94>  (60) 
pistack:TYR:94    NaN
pistack:TYR:94     -1
Name: 58, dtype: object

>  <hbond:TYR:94>  (60) 
hbond:TYR:94    NaN
hbond:TYR:94     -1
Name: 58, dtype: object

>  <hbond:GLN:95>  (60) 
hbond:GLN:95    0.0
hbond:GLN:95      0
Name: 58, dtype: object

>  <hydroph_interaction:GLN:95>  (60) 
hydroph_interaction:GLN:95    0.0
hydroph_interaction:GLN:95      0
Name: 58, dtype: object

>  <halogenbond:GLN:95>  (60) 
halogenbond:GLN:95    NaN
halogenbond:GLN:95     -1
Name: 58, dtype: object

>  <hbond:SER:96>  (60) 
hbond:SER:96    NaN
hbond:SER:96     -1
Name: 58, dtype: object

>  <halogenbond:HIS:97>  (60) 
halogenbond:HIS:97    NaN
halogenbond:HIS:97     -1
Name: 58, dtype: object

>  <hydroph_interaction:LEU:98>  (60) 
hydroph_interaction:LEU:98    1.0
hydroph_interaction:LEU:98      1
Name: 58, dtype: object

>  <hbond:LEU:98>  (60) 
hbond:LEU:98    NaN
hbond:LEU:98     -1
Name: 58, dtype: object

>  <halogenbond:LEU:98>  (60) 
halogenbond:LEU:98    NaN
halogenbond:LEU:98     -1
Name: 58, dtype: object

>  <hbond:MET:99>  (60) 
hbond:MET:99    NaN
hbond:MET:99     -1
Name: 58, dtype: object

>  <hydroph_interaction:MET:99>  (60) 
hydroph_interaction:MET:99    NaN
hydroph_interaction:MET:99     -1
Name: 58, dtype: object

>  <halogenbond:MET:99>  (60) 
halogenbond:MET:99    NaN
halogenbond:MET:99     -1
Name: 58, dtype: object

>  <hydroph_interaction:LEU:100>  (60) 
hydroph_interaction:LEU:100    1.0
hydroph_interaction:LEU:100      1
Name: 58, dtype: object

>  <hbond:LEU:100>  (60) 
hbond:LEU:100    NaN
hbond:LEU:100     -1
Name: 58, dtype: object

>  <hbond:ALA:101>  (60) 
hbond:ALA:101    NaN
hbond:ALA:101     -1
Name: 58, dtype: object

>  <hydroph_interaction:ALA:101>  (60) 
hydroph_interaction:ALA:101    NaN
hydroph_interaction:ALA:101     -1
Name: 58, dtype: object

>  <hydroph_interaction:VAL:102>  (60) 
hydroph_interaction:VAL:102    NaN
hydroph_interaction:VAL:102     -1
Name: 58, dtype: object

>  <hbond:VAL:102>  (60) 
hbond:VAL:102    NaN
hbond:VAL:102     -1
Name: 58, dtype: object

>  <hbond:GLY:103>  (60) 
hbond:GLY:103    NaN
hbond:GLY:103     -1
Name: 58, dtype: object

>  <halogenbond:GLY:103>  (60) 
halogenbond:GLY:103    NaN
halogenbond:GLY:103     -1
Name: 58, dtype: object

>  <hbond:HIS:104>  (60) 
hbond:HIS:104    NaN
hbond:HIS:104     -1
Name: 58, dtype: object

>  <saltbridge:HIS:104>  (60) 
saltbridge:HIS:104    NaN
saltbridge:HIS:104     -1
Name: 58, dtype: object

>  <pication:HIS:104>  (60) 
pication:HIS:104    NaN
pication:HIS:104     -1
Name: 58, dtype: object

>  <halogenbond:HIS:104>  (60) 
halogenbond:HIS:104    NaN
halogenbond:HIS:104     -1
Name: 58, dtype: object

>  <hydroph_interaction:HIS:104>  (60) 
hydroph_interaction:HIS:104    NaN
hydroph_interaction:HIS:104     -1
Name: 58, dtype: object

>  <pistack:HIS:104>  (60) 
pistack:HIS:104    NaN
pistack:HIS:104     -1
Name: 58, dtype: object

>  <halogenbond:SER:105>  (60) 
halogenbond:SER:105    0.0
halogenbond:SER:105      0
Name: 58, dtype: object

>  <hbond:SER:105>  (60) 
hbond:SER:105    0.0
hbond:SER:105      0
Name: 58, dtype: object

>  <hbond:GLU:106>  (60) 
hbond:GLU:106    0.0
hbond:GLU:106      0
Name: 58, dtype: object

>  <hydroph_interaction:GLU:106>  (60) 
hydroph_interaction:GLU:106    NaN
hydroph_interaction:GLU:106     -1
Name: 58, dtype: object

>  <saltbridge:GLU:106>  (60) 
saltbridge:GLU:106    NaN
saltbridge:GLU:106     -1
Name: 58, dtype: object

>  <halogenbond:GLU:106>  (60) 
halogenbond:GLU:106    NaN
halogenbond:GLU:106     -1
Name: 58, dtype: object

>  <hydroph_interaction:PRO:107>  (60) 
hydroph_interaction:PRO:107    0
hydroph_interaction:PRO:107    0
Name: 58, dtype: object

>  <hbond:PRO:107>  (60) 
hbond:PRO:107    0.0
hbond:PRO:107      0
Name: 58, dtype: object

>  <halogenbond:PRO:107>  (60) 
halogenbond:PRO:107    NaN
halogenbond:PRO:107     -1
Name: 58, dtype: object

>  <hbond:GLY:108>  (60) 
hbond:GLY:108    NaN
hbond:GLY:108     -1
Name: 58, dtype: object

>  <halogenbond:GLY:108>  (60) 
halogenbond:GLY:108    NaN
halogenbond:GLY:108     -1
Name: 58, dtype: object

>  <hbond:ASP:109>  (60) 
hbond:ASP:109    NaN
hbond:ASP:109     -1
Name: 58, dtype: object

>  <hydroph_interaction:ASP:109>  (60) 
hydroph_interaction:ASP:109    NaN
hydroph_interaction:ASP:109     -1
Name: 58, dtype: object

>  <saltbridge:ASP:109>  (60) 
saltbridge:ASP:109    NaN
saltbridge:ASP:109     -1
Name: 58, dtype: object

>  <halogenbond:CYS:110>  (60) 
halogenbond:CYS:110    NaN
halogenbond:CYS:110     -1
Name: 58, dtype: object

>  <hbond:CYS:110>  (60) 
hbond:CYS:110    0.0
hbond:CYS:110      0
Name: 58, dtype: object

>  <hbond:GLY:111>  (60) 
hbond:GLY:111    NaN
hbond:GLY:111     -1
Name: 58, dtype: object

>  <hbond:GLY:112>  (60) 
hbond:GLY:112    NaN
hbond:GLY:112     -1
Name: 58, dtype: object

>  <hbond:ILE:113>  (60) 
hbond:ILE:113    NaN
hbond:ILE:113     -1
Name: 58, dtype: object

>  <hydroph_interaction:LEU:114>  (60) 
hydroph_interaction:LEU:114    NaN
hydroph_interaction:LEU:114     -1
Name: 58, dtype: object

>  <hbond:LEU:114>  (60) 
hbond:LEU:114    NaN
hbond:LEU:114     -1
Name: 58, dtype: object

>  <hydroph_interaction:ILE:123>  (60) 
hydroph_interaction:ILE:123    NaN
hydroph_interaction:ILE:123     -1
Name: 58, dtype: object

>  <hbond:ILE:123>  (60) 
hbond:ILE:123    NaN
hbond:ILE:123     -1
Name: 58, dtype: object

>  <hydroph_interaction:VAL:124>  (60) 
hydroph_interaction:VAL:124    0.0
hydroph_interaction:VAL:124      0
Name: 58, dtype: object

>  <hbond:VAL:124>  (60) 
hbond:VAL:124    NaN
hbond:VAL:124     -1
Name: 58, dtype: object

>  <halogenbond:VAL:124>  (60) 
halogenbond:VAL:124    NaN
halogenbond:VAL:124     -1
Name: 58, dtype: object

>  <hbond:SER:125>  (60) 
hbond:SER:125    0
hbond:SER:125    0
Name: 58, dtype: object

>  <halogenbond:SER:125>  (60) 
halogenbond:SER:125    NaN
halogenbond:SER:125     -1
Name: 58, dtype: object

>  <hydroph_interaction:THR:126>  (60) 
hydroph_interaction:THR:126    0.0
hydroph_interaction:THR:126      0
Name: 58, dtype: object

>  <hbond:THR:126>  (60) 
hbond:THR:126    0.0
hbond:THR:126      0
Name: 58, dtype: object

>  <halogenbond:THR:126>  (60) 
halogenbond:THR:126    0.0
halogenbond:THR:126      0
Name: 58, dtype: object

>  <hbond:GLY:127>  (60) 
hbond:GLY:127    0
hbond:GLY:127    0
Name: 58, dtype: object

>  <halogenbond:GLY:127>  (60) 
halogenbond:GLY:127    NaN
halogenbond:GLY:127     -1
Name: 58, dtype: object

>  <hydroph_interaction:GLY:127>  (60) 
hydroph_interaction:GLY:127    NaN
hydroph_interaction:GLY:127     -1
Name: 58, dtype: object

>  <hbond:GLY:128>  (60) 
hbond:GLY:128    0.0
hbond:GLY:128      0
Name: 58, dtype: object

>  <halogenbond:GLY:128>  (60) 
halogenbond:GLY:128    0.0
halogenbond:GLY:128      0
Name: 58, dtype: object

>  <hydroph_interaction:GLY:128>  (60) 
hydroph_interaction:GLY:128    NaN
hydroph_interaction:GLY:128     -1
Name: 58, dtype: object

>  <hbond:ASN:129>  (60) 
hbond:ASN:129    0.0
hbond:ASN:129      0
Name: 58, dtype: object

>  <hydroph_interaction:ASN:129>  (60) 
hydroph_interaction:ASN:129    0.0
hydroph_interaction:ASN:129      0
Name: 58, dtype: object

>  <halogenbond:ASN:129>  (60) 
halogenbond:ASN:129    0.0
halogenbond:ASN:129      0
Name: 58, dtype: object

>  <hbond:GLY:130>  (60) 
hbond:GLY:130    0.0
hbond:GLY:130      0
Name: 58, dtype: object

>  <hbond:LEU:131>  (60) 
hbond:LEU:131    0.0
hbond:LEU:131      0
Name: 58, dtype: object

>  <hydroph_interaction:LEU:131>  (60) 
hydroph_interaction:LEU:131    1.0
hydroph_interaction:LEU:131      1
Name: 58, dtype: object

>  <halogenbond:LEU:131>  (60) 
halogenbond:LEU:131    0.0
halogenbond:LEU:131      0
Name: 58, dtype: object

>  <hydroph_interaction:VAL:132>  (60) 
hydroph_interaction:VAL:132    0.0
hydroph_interaction:VAL:132      0
Name: 58, dtype: object

>  <hbond:VAL:132>  (60) 
hbond:VAL:132    0.0
hbond:VAL:132      0
Name: 58, dtype: object

>  <hbond:GLY:133>  (60) 
hbond:GLY:133    0.0
hbond:GLY:133      0
Name: 58, dtype: object

>  <halogenbond:GLY:133>  (60) 
halogenbond:GLY:133    NaN
halogenbond:GLY:133     -1
Name: 58, dtype: object

>  <hydroph_interaction:PHE:134>  (60) 
hydroph_interaction:PHE:134    NaN
hydroph_interaction:PHE:134     -1
Name: 58, dtype: object

>  <hbond:PHE:134>  (60) 
hbond:PHE:134    NaN
hbond:PHE:134     -1
Name: 58, dtype: object

>  <pistack:PHE:134>  (60) 
pistack:PHE:134    NaN
pistack:PHE:134     -1
Name: 58, dtype: object

>  <pication:PHE:134>  (60) 
pication:PHE:134    NaN
pication:PHE:134     -1
Name: 58, dtype: object

>  <halogenbond:PHE:134>  (60) 
halogenbond:PHE:134    NaN
halogenbond:PHE:134     -1
Name: 58, dtype: object

>  <hydroph_interaction:ALA:135>  (60) 
hydroph_interaction:ALA:135    NaN
hydroph_interaction:ALA:135     -1
Name: 58, dtype: object

>  <hbond:ALA:135>  (60) 
hbond:ALA:135    NaN
hbond:ALA:135     -1
Name: 58, dtype: object

$$$$
PV_002147894306
     RDKit          3D

 12 12  0  0  0  0  0  0  0  0999 V2000
   28.4429   15.3557    8.4726 C   0  0  0  0  0  0  0  0  0  0  0  0
   29.7781   14.7439    8.7873 C   0  0  0  0  0  0  0  0  0  0  0  0
   30.6130   15.3538    9.4491 O   0  0  0  0  0  0  0  0  0  0  0  0
   29.9601   13.4831    8.2548 N   0  0  0  0  0  0  0  0  0  0  0  0
   31.2485   13.3226    7.6727 O   0  0  0  0  0  0  0  0  0  0  0  0
   31.4981   11.9858    7.4350 C   0  0  0  0  0  0  0  0  0  0  0  0
   30.6936   11.0222    8.0433 C   0  0  0  0  0  0  0  0  0  0  0  0
   30.9417    9.6689    7.8201 C   0  0  0  0  0  0  0  0  0  0  0  0
   31.9884    9.2846    6.9836 C   0  0  0  0  0  0  0  0  0  0  0  0
   32.7877   10.2424    6.3704 C   0  0  0  0  0  0  0  0  0  0  0  0
   32.5426   11.5949    6.6008 C   0  0  0  0  0  0  0  0  0  0  0  0
   33.5480   12.7665    5.8478 Cl  0  0  0  0  0  0  0  0  0  0  0  0
  1  2  1  0
  2  3  2  0
  2  4  1  0
  4  5  1  0
  5  6  1  0
  6  7  2  0
  7  8  1  0
  8  9  2  0
  9 10  1  0
 10 11  2  0
 11 12  1  0
 11  6  1  0
A    1
 C1 
A    2
 C2 
A    3
 O1 
A    4
 N1 
A    5
 O2 
A    6
 C3 
A    7
 C4 
A    8
 C5 
A    9
 C6 
A   10
 C7 
A   11
 C8 
A   12
CL1 
M  END
>  <ref_pdb>  (61) 
Ax0310a

>  <ref_mols>  (61) 
Ax0732a,Ax0528a

>  <original SMILES>  (61) 
CC(=O)NOc1ccccc1Cl

>  <rationale>  (61) 
info halogenbond:G127+D39+S125+Q95+E106+T126+P107+H104+Y64+C65+S87+N129+F83+R93+L131+I82+G128+P91+N19+H21+V84+G133+Y90+Y89+H97+L81+F134+L98+R20+G103+S66+S67+S7+G108+R38+V124+M99+S36; hbond:S87+S125+Q95+D39+E106+D109+G108+G103+G128+G130+L131+N129+N19+H104+R68+V124+R93+P91+F83+S67+S7+S66+G112+G133+V132+R20+Y89+S77+A135+Y63+A92+A101+M99+F134+L100+I82+Y64+S36+L98+V84+L81+Y94+S80+R38+S37+V102+G8+I123+G111+I113+L114+C65+L22+S96; hydroph_interaction:Y90+Y89+L22+E106+D109+N129+D39+N19+L40+I123+A135+Q95+I82+L100+L98+L131+F83+R93+V132+Y63+F134+H104+R20+A86+V74+P91+A101+F76+M99+L114+A92+Y94+R68+Y72+Y64+V18+V102+W28+G127+G128+L81; pication:H104+R93+Y63+F134+Y90+R68+F83+R20; pistack:H21+Y89+Y90+H104+F134+Y63+F83+Y94; saltbridge:R93+H104+E106+D109+E85+E88+R68+R20; 

>  <intxn_cluster>  (61) 
-1

>  <intxn_cluster_rank>  (61) 
-1

>  <N_interactions>  (61) 
4

>  <∆∆G>  (61) 
-8.606379

>  <$/mg>  (61) 
244.5

>  <comRMSD>  (61) 
0.513605

>  <N_rotatable_bonds>  (61) 
3

>  <deep_P1_sidechain>  (61) 
nan

>  <farthest_distance_to_substrate>  (61) 
2.087959

>  <hbond:SER:7>  (61) 
hbond:SER:7    NaN
hbond:SER:7     -1
Name: 59, dtype: object

>  <halogenbond:SER:7>  (61) 
halogenbond:SER:7    NaN
halogenbond:SER:7     -1
Name: 59, dtype: object

>  <hbond:GLY:8>  (61) 
hbond:GLY:8    NaN
hbond:GLY:8     -1
Name: 59, dtype: object

>  <hydroph_interaction:VAL:18>  (61) 
hydroph_interaction:VAL:18    NaN
hydroph_interaction:VAL:18     -1
Name: 59, dtype: object

>  <hbond:ASN:19>  (61) 
hbond:ASN:19    NaN
hbond:ASN:19     -1
Name: 59, dtype: object

>  <hydroph_interaction:ASN:19>  (61) 
hydroph_interaction:ASN:19    NaN
hydroph_interaction:ASN:19     -1
Name: 59, dtype: object

>  <halogenbond:ASN:19>  (61) 
halogenbond:ASN:19    NaN
halogenbond:ASN:19     -1
Name: 59, dtype: object

>  <hbond:ARG:20>  (61) 
hbond:ARG:20    NaN
hbond:ARG:20     -1
Name: 59, dtype: object

>  <hydroph_interaction:ARG:20>  (61) 
hydroph_interaction:ARG:20    NaN
hydroph_interaction:ARG:20     -1
Name: 59, dtype: object

>  <saltbridge:ARG:20>  (61) 
saltbridge:ARG:20    NaN
saltbridge:ARG:20     -1
Name: 59, dtype: object

>  <halogenbond:ARG:20>  (61) 
halogenbond:ARG:20    NaN
halogenbond:ARG:20     -1
Name: 59, dtype: object

>  <pication:ARG:20>  (61) 
pication:ARG:20    NaN
pication:ARG:20     -1
Name: 59, dtype: object

>  <hbond:HIS:21>  (61) 
hbond:HIS:21    0.0
hbond:HIS:21      0
Name: 59, dtype: object

>  <hydroph_interaction:HIS:21>  (61) 
hydroph_interaction:HIS:21    0.0
hydroph_interaction:HIS:21      0
Name: 59, dtype: object

>  <pistack:HIS:21>  (61) 
pistack:HIS:21    NaN
pistack:HIS:21     -1
Name: 59, dtype: object

>  <pication:HIS:21>  (61) 
pication:HIS:21    0.0
pication:HIS:21      0
Name: 59, dtype: object

>  <saltbridge:HIS:21>  (61) 
saltbridge:HIS:21    0.0
saltbridge:HIS:21      0
Name: 59, dtype: object

>  <halogenbond:HIS:21>  (61) 
halogenbond:HIS:21    NaN
halogenbond:HIS:21     -1
Name: 59, dtype: object

>  <hydroph_interaction:LEU:22>  (61) 
hydroph_interaction:LEU:22    NaN
hydroph_interaction:LEU:22     -1
Name: 59, dtype: object

>  <hbond:LEU:22>  (61) 
hbond:LEU:22    NaN
hbond:LEU:22     -1
Name: 59, dtype: object

>  <hydroph_interaction:TRP:28>  (61) 
hydroph_interaction:TRP:28    NaN
hydroph_interaction:TRP:28     -1
Name: 59, dtype: object

>  <hbond:SER:36>  (61) 
hbond:SER:36    NaN
hbond:SER:36     -1
Name: 59, dtype: object

>  <halogenbond:SER:36>  (61) 
halogenbond:SER:36    NaN
halogenbond:SER:36     -1
Name: 59, dtype: object

>  <hbond:SER:37>  (61) 
hbond:SER:37    NaN
hbond:SER:37     -1
Name: 59, dtype: object

>  <hbond:ARG:38>  (61) 
hbond:ARG:38    NaN
hbond:ARG:38     -1
Name: 59, dtype: object

>  <halogenbond:ARG:38>  (61) 
halogenbond:ARG:38    NaN
halogenbond:ARG:38     -1
Name: 59, dtype: object

>  <saltbridge:ASP:39>  (61) 
saltbridge:ASP:39    0.0
saltbridge:ASP:39      0
Name: 59, dtype: object

>  <halogenbond:ASP:39>  (61) 
halogenbond:ASP:39    NaN
halogenbond:ASP:39     -1
Name: 59, dtype: object

>  <hbond:ASP:39>  (61) 
hbond:ASP:39    NaN
hbond:ASP:39     -1
Name: 59, dtype: object

>  <hydroph_interaction:ASP:39>  (61) 
hydroph_interaction:ASP:39    NaN
hydroph_interaction:ASP:39     -1
Name: 59, dtype: object

>  <hydroph_interaction:LEU:40>  (61) 
hydroph_interaction:LEU:40    NaN
hydroph_interaction:LEU:40     -1
Name: 59, dtype: object

>  <hydroph_interaction:TYR:63>  (61) 
hydroph_interaction:TYR:63    NaN
hydroph_interaction:TYR:63     -1
Name: 59, dtype: object

>  <hbond:TYR:63>  (61) 
hbond:TYR:63    NaN
hbond:TYR:63     -1
Name: 59, dtype: object

>  <pistack:TYR:63>  (61) 
pistack:TYR:63    NaN
pistack:TYR:63     -1
Name: 59, dtype: object

>  <pication:TYR:63>  (61) 
pication:TYR:63    NaN
pication:TYR:63     -1
Name: 59, dtype: object

>  <halogenbond:TYR:64>  (61) 
halogenbond:TYR:64    NaN
halogenbond:TYR:64     -1
Name: 59, dtype: object

>  <hbond:TYR:64>  (61) 
hbond:TYR:64    NaN
hbond:TYR:64     -1
Name: 59, dtype: object

>  <hydroph_interaction:TYR:64>  (61) 
hydroph_interaction:TYR:64    NaN
hydroph_interaction:TYR:64     -1
Name: 59, dtype: object

>  <halogenbond:CYS:65>  (61) 
halogenbond:CYS:65    NaN
halogenbond:CYS:65     -1
Name: 59, dtype: object

>  <hbond:CYS:65>  (61) 
hbond:CYS:65    NaN
hbond:CYS:65     -1
Name: 59, dtype: object

>  <hbond:SER:66>  (61) 
hbond:SER:66    NaN
hbond:SER:66     -1
Name: 59, dtype: object

>  <halogenbond:SER:66>  (61) 
halogenbond:SER:66    NaN
halogenbond:SER:66     -1
Name: 59, dtype: object

>  <hbond:SER:67>  (61) 
hbond:SER:67    NaN
hbond:SER:67     -1
Name: 59, dtype: object

>  <halogenbond:SER:67>  (61) 
halogenbond:SER:67    NaN
halogenbond:SER:67     -1
Name: 59, dtype: object

>  <hbond:ARG:68>  (61) 
hbond:ARG:68    NaN
hbond:ARG:68     -1
Name: 59, dtype: object

>  <saltbridge:ARG:68>  (61) 
saltbridge:ARG:68    NaN
saltbridge:ARG:68     -1
Name: 59, dtype: object

>  <hydroph_interaction:ARG:68>  (61) 
hydroph_interaction:ARG:68    NaN
hydroph_interaction:ARG:68     -1
Name: 59, dtype: object

>  <pication:ARG:68>  (61) 
pication:ARG:68    NaN
pication:ARG:68     -1
Name: 59, dtype: object

>  <hydroph_interaction:TYR:72>  (61) 
hydroph_interaction:TYR:72    NaN
hydroph_interaction:TYR:72     -1
Name: 59, dtype: object

>  <hydroph_interaction:VAL:74>  (61) 
hydroph_interaction:VAL:74    NaN
hydroph_interaction:VAL:74     -1
Name: 59, dtype: object

>  <hydroph_interaction:PHE:76>  (61) 
hydroph_interaction:PHE:76    NaN
hydroph_interaction:PHE:76     -1
Name: 59, dtype: object

>  <hbond:SER:77>  (61) 
hbond:SER:77    NaN
hbond:SER:77     -1
Name: 59, dtype: object

>  <hbond:SER:80>  (61) 
hbond:SER:80    NaN
hbond:SER:80     -1
Name: 59, dtype: object

>  <hbond:LEU:81>  (61) 
hbond:LEU:81    NaN
hbond:LEU:81     -1
Name: 59, dtype: object

>  <halogenbond:LEU:81>  (61) 
halogenbond:LEU:81    NaN
halogenbond:LEU:81     -1
Name: 59, dtype: object

>  <hydroph_interaction:LEU:81>  (61) 
hydroph_interaction:LEU:81    NaN
hydroph_interaction:LEU:81     -1
Name: 59, dtype: object

>  <hydroph_interaction:ILE:82>  (61) 
hydroph_interaction:ILE:82    NaN
hydroph_interaction:ILE:82     -1
Name: 59, dtype: object

>  <halogenbond:ILE:82>  (61) 
halogenbond:ILE:82    NaN
halogenbond:ILE:82     -1
Name: 59, dtype: object

>  <hbond:ILE:82>  (61) 
hbond:ILE:82    NaN
hbond:ILE:82     -1
Name: 59, dtype: object

>  <hbond:PHE:83>  (61) 
hbond:PHE:83    NaN
hbond:PHE:83     -1
Name: 59, dtype: object

>  <hydroph_interaction:PHE:83>  (61) 
hydroph_interaction:PHE:83    NaN
hydroph_interaction:PHE:83     -1
Name: 59, dtype: object

>  <halogenbond:PHE:83>  (61) 
halogenbond:PHE:83    NaN
halogenbond:PHE:83     -1
Name: 59, dtype: object

>  <pistack:PHE:83>  (61) 
pistack:PHE:83    NaN
pistack:PHE:83     -1
Name: 59, dtype: object

>  <pication:PHE:83>  (61) 
pication:PHE:83    NaN
pication:PHE:83     -1
Name: 59, dtype: object

>  <hydroph_interaction:VAL:84>  (61) 
hydroph_interaction:VAL:84    0.0
hydroph_interaction:VAL:84      0
Name: 59, dtype: object

>  <halogenbond:VAL:84>  (61) 
halogenbond:VAL:84    NaN
halogenbond:VAL:84     -1
Name: 59, dtype: object

>  <hbond:VAL:84>  (61) 
hbond:VAL:84    NaN
hbond:VAL:84     -1
Name: 59, dtype: object

>  <hydroph_interaction:GLU:85>  (61) 
hydroph_interaction:GLU:85    0.0
hydroph_interaction:GLU:85      0
Name: 59, dtype: object

>  <hbond:GLU:85>  (61) 
hbond:GLU:85    0.0
hbond:GLU:85      0
Name: 59, dtype: object

>  <halogenbond:GLU:85>  (61) 
halogenbond:GLU:85    0.0
halogenbond:GLU:85      0
Name: 59, dtype: object

>  <saltbridge:GLU:85>  (61) 
saltbridge:GLU:85    NaN
saltbridge:GLU:85     -1
Name: 59, dtype: object

>  <halogenbond:ALA:86>  (61) 
halogenbond:ALA:86    0.0
halogenbond:ALA:86      0
Name: 59, dtype: object

>  <hbond:ALA:86>  (61) 
hbond:ALA:86    0.0
hbond:ALA:86      0
Name: 59, dtype: object

>  <hydroph_interaction:ALA:86>  (61) 
hydroph_interaction:ALA:86    NaN
hydroph_interaction:ALA:86     -1
Name: 59, dtype: object

>  <hbond:SER:87>  (61) 
hbond:SER:87    1
hbond:SER:87    1
Name: 59, dtype: object

>  <halogenbond:SER:87>  (61) 
halogenbond:SER:87    NaN
halogenbond:SER:87     -1
Name: 59, dtype: object

>  <hbond:GLU:88>  (61) 
hbond:GLU:88    0.0
hbond:GLU:88      0
Name: 59, dtype: object

>  <hydroph_interaction:GLU:88>  (61) 
hydroph_interaction:GLU:88    0.0
hydroph_interaction:GLU:88      0
Name: 59, dtype: object

>  <halogenbond:GLU:88>  (61) 
halogenbond:GLU:88    0.0
halogenbond:GLU:88      0
Name: 59, dtype: object

>  <saltbridge:GLU:88>  (61) 
saltbridge:GLU:88    NaN
saltbridge:GLU:88     -1
Name: 59, dtype: object

>  <hydroph_interaction:TYR:89>  (61) 
hydroph_interaction:TYR:89    1.0
hydroph_interaction:TYR:89      1
Name: 59, dtype: object

>  <pistack:TYR:89>  (61) 
pistack:TYR:89    NaN
pistack:TYR:89     -1
Name: 59, dtype: object

>  <hbond:TYR:89>  (61) 
hbond:TYR:89    NaN
hbond:TYR:89     -1
Name: 59, dtype: object

>  <halogenbond:TYR:89>  (61) 
halogenbond:TYR:89    NaN
halogenbond:TYR:89     -1
Name: 59, dtype: object

>  <hydroph_interaction:TYR:90>  (61) 
hydroph_interaction:TYR:90    1.0
hydroph_interaction:TYR:90      1
Name: 59, dtype: object

>  <hbond:TYR:90>  (61) 
hbond:TYR:90    0.0
hbond:TYR:90      0
Name: 59, dtype: object

>  <pistack:TYR:90>  (61) 
pistack:TYR:90    NaN
pistack:TYR:90     -1
Name: 59, dtype: object

>  <halogenbond:TYR:90>  (61) 
halogenbond:TYR:90    NaN
halogenbond:TYR:90     -1
Name: 59, dtype: object

>  <pication:TYR:90>  (61) 
pication:TYR:90    NaN
pication:TYR:90     -1
Name: 59, dtype: object

>  <hbond:PRO:91>  (61) 
hbond:PRO:91    NaN
hbond:PRO:91     -1
Name: 59, dtype: object

>  <hydroph_interaction:PRO:91>  (61) 
hydroph_interaction:PRO:91    NaN
hydroph_interaction:PRO:91     -1
Name: 59, dtype: object

>  <halogenbond:PRO:91>  (61) 
halogenbond:PRO:91    NaN
halogenbond:PRO:91     -1
Name: 59, dtype: object

>  <hbond:ALA:92>  (61) 
hbond:ALA:92    NaN
hbond:ALA:92     -1
Name: 59, dtype: object

>  <hydroph_interaction:ALA:92>  (61) 
hydroph_interaction:ALA:92    NaN
hydroph_interaction:ALA:92     -1
Name: 59, dtype: object

>  <saltbridge:ARG:93>  (61) 
saltbridge:ARG:93    NaN
saltbridge:ARG:93     -1
Name: 59, dtype: object

>  <hbond:ARG:93>  (61) 
hbond:ARG:93    NaN
hbond:ARG:93     -1
Name: 59, dtype: object

>  <hydroph_interaction:ARG:93>  (61) 
hydroph_interaction:ARG:93    NaN
hydroph_interaction:ARG:93     -1
Name: 59, dtype: object

>  <halogenbond:ARG:93>  (61) 
halogenbond:ARG:93    NaN
halogenbond:ARG:93     -1
Name: 59, dtype: object

>  <pication:ARG:93>  (61) 
pication:ARG:93    NaN
pication:ARG:93     -1
Name: 59, dtype: object

>  <hydroph_interaction:TYR:94>  (61) 
hydroph_interaction:TYR:94    NaN
hydroph_interaction:TYR:94     -1
Name: 59, dtype: object

>  <pistack:TYR:94>  (61) 
pistack:TYR:94    NaN
pistack:TYR:94     -1
Name: 59, dtype: object

>  <hbond:TYR:94>  (61) 
hbond:TYR:94    NaN
hbond:TYR:94     -1
Name: 59, dtype: object

>  <hbond:GLN:95>  (61) 
hbond:GLN:95    NaN
hbond:GLN:95     -1
Name: 59, dtype: object

>  <hydroph_interaction:GLN:95>  (61) 
hydroph_interaction:GLN:95    NaN
hydroph_interaction:GLN:95     -1
Name: 59, dtype: object

>  <halogenbond:GLN:95>  (61) 
halogenbond:GLN:95    NaN
halogenbond:GLN:95     -1
Name: 59, dtype: object

>  <hbond:SER:96>  (61) 
hbond:SER:96    NaN
hbond:SER:96     -1
Name: 59, dtype: object

>  <halogenbond:HIS:97>  (61) 
halogenbond:HIS:97    NaN
halogenbond:HIS:97     -1
Name: 59, dtype: object

>  <hydroph_interaction:LEU:98>  (61) 
hydroph_interaction:LEU:98    NaN
hydroph_interaction:LEU:98     -1
Name: 59, dtype: object

>  <hbond:LEU:98>  (61) 
hbond:LEU:98    NaN
hbond:LEU:98     -1
Name: 59, dtype: object

>  <halogenbond:LEU:98>  (61) 
halogenbond:LEU:98    NaN
halogenbond:LEU:98     -1
Name: 59, dtype: object

>  <hbond:MET:99>  (61) 
hbond:MET:99    NaN
hbond:MET:99     -1
Name: 59, dtype: object

>  <hydroph_interaction:MET:99>  (61) 
hydroph_interaction:MET:99    NaN
hydroph_interaction:MET:99     -1
Name: 59, dtype: object

>  <halogenbond:MET:99>  (61) 
halogenbond:MET:99    NaN
halogenbond:MET:99     -1
Name: 59, dtype: object

>  <hydroph_interaction:LEU:100>  (61) 
hydroph_interaction:LEU:100    NaN
hydroph_interaction:LEU:100     -1
Name: 59, dtype: object

>  <hbond:LEU:100>  (61) 
hbond:LEU:100    NaN
hbond:LEU:100     -1
Name: 59, dtype: object

>  <hbond:ALA:101>  (61) 
hbond:ALA:101    NaN
hbond:ALA:101     -1
Name: 59, dtype: object

>  <hydroph_interaction:ALA:101>  (61) 
hydroph_interaction:ALA:101    NaN
hydroph_interaction:ALA:101     -1
Name: 59, dtype: object

>  <hydroph_interaction:VAL:102>  (61) 
hydroph_interaction:VAL:102    NaN
hydroph_interaction:VAL:102     -1
Name: 59, dtype: object

>  <hbond:VAL:102>  (61) 
hbond:VAL:102    NaN
hbond:VAL:102     -1
Name: 59, dtype: object

>  <hbond:GLY:103>  (61) 
hbond:GLY:103    NaN
hbond:GLY:103     -1
Name: 59, dtype: object

>  <halogenbond:GLY:103>  (61) 
halogenbond:GLY:103    NaN
halogenbond:GLY:103     -1
Name: 59, dtype: object

>  <hbond:HIS:104>  (61) 
hbond:HIS:104    NaN
hbond:HIS:104     -1
Name: 59, dtype: object

>  <saltbridge:HIS:104>  (61) 
saltbridge:HIS:104    NaN
saltbridge:HIS:104     -1
Name: 59, dtype: object

>  <pication:HIS:104>  (61) 
pication:HIS:104    NaN
pication:HIS:104     -1
Name: 59, dtype: object

>  <halogenbond:HIS:104>  (61) 
halogenbond:HIS:104    NaN
halogenbond:HIS:104     -1
Name: 59, dtype: object

>  <hydroph_interaction:HIS:104>  (61) 
hydroph_interaction:HIS:104    NaN
hydroph_interaction:HIS:104     -1
Name: 59, dtype: object

>  <pistack:HIS:104>  (61) 
pistack:HIS:104    NaN
pistack:HIS:104     -1
Name: 59, dtype: object

>  <halogenbond:SER:105>  (61) 
halogenbond:SER:105    0.0
halogenbond:SER:105      0
Name: 59, dtype: object

>  <hbond:SER:105>  (61) 
hbond:SER:105    0.0
hbond:SER:105      0
Name: 59, dtype: object

>  <hbond:GLU:106>  (61) 
hbond:GLU:106    NaN
hbond:GLU:106     -1
Name: 59, dtype: object

>  <hydroph_interaction:GLU:106>  (61) 
hydroph_interaction:GLU:106    NaN
hydroph_interaction:GLU:106     -1
Name: 59, dtype: object

>  <saltbridge:GLU:106>  (61) 
saltbridge:GLU:106    NaN
saltbridge:GLU:106     -1
Name: 59, dtype: object

>  <halogenbond:GLU:106>  (61) 
halogenbond:GLU:106    NaN
halogenbond:GLU:106     -1
Name: 59, dtype: object

>  <hydroph_interaction:PRO:107>  (61) 
hydroph_interaction:PRO:107    0
hydroph_interaction:PRO:107    0
Name: 59, dtype: object

>  <hbond:PRO:107>  (61) 
hbond:PRO:107    0.0
hbond:PRO:107      0
Name: 59, dtype: object

>  <halogenbond:PRO:107>  (61) 
halogenbond:PRO:107    NaN
halogenbond:PRO:107     -1
Name: 59, dtype: object

>  <hbond:GLY:108>  (61) 
hbond:GLY:108    NaN
hbond:GLY:108     -1
Name: 59, dtype: object

>  <halogenbond:GLY:108>  (61) 
halogenbond:GLY:108    NaN
halogenbond:GLY:108     -1
Name: 59, dtype: object

>  <hbond:ASP:109>  (61) 
hbond:ASP:109    NaN
hbond:ASP:109     -1
Name: 59, dtype: object

>  <hydroph_interaction:ASP:109>  (61) 
hydroph_interaction:ASP:109    NaN
hydroph_interaction:ASP:109     -1
Name: 59, dtype: object

>  <saltbridge:ASP:109>  (61) 
saltbridge:ASP:109    NaN
saltbridge:ASP:109     -1
Name: 59, dtype: object

>  <halogenbond:CYS:110>  (61) 
halogenbond:CYS:110    0.0
halogenbond:CYS:110      0
Name: 59, dtype: object

>  <hbond:CYS:110>  (61) 
hbond:CYS:110    0.0
hbond:CYS:110      0
Name: 59, dtype: object

>  <hbond:GLY:111>  (61) 
hbond:GLY:111    NaN
hbond:GLY:111     -1
Name: 59, dtype: object

>  <hbond:GLY:112>  (61) 
hbond:GLY:112    NaN
hbond:GLY:112     -1
Name: 59, dtype: object

>  <hbond:ILE:113>  (61) 
hbond:ILE:113    NaN
hbond:ILE:113     -1
Name: 59, dtype: object

>  <hydroph_interaction:LEU:114>  (61) 
hydroph_interaction:LEU:114    NaN
hydroph_interaction:LEU:114     -1
Name: 59, dtype: object

>  <hbond:LEU:114>  (61) 
hbond:LEU:114    NaN
hbond:LEU:114     -1
Name: 59, dtype: object

>  <hydroph_interaction:ILE:123>  (61) 
hydroph_interaction:ILE:123    NaN
hydroph_interaction:ILE:123     -1
Name: 59, dtype: object

>  <hbond:ILE:123>  (61) 
hbond:ILE:123    NaN
hbond:ILE:123     -1
Name: 59, dtype: object

>  <hydroph_interaction:VAL:124>  (61) 
hydroph_interaction:VAL:124    0.0
hydroph_interaction:VAL:124      0
Name: 59, dtype: object

>  <hbond:VAL:124>  (61) 
hbond:VAL:124    NaN
hbond:VAL:124     -1
Name: 59, dtype: object

>  <halogenbond:VAL:124>  (61) 
halogenbond:VAL:124    NaN
halogenbond:VAL:124     -1
Name: 59, dtype: object

>  <hbond:SER:125>  (61) 
hbond:SER:125    1
hbond:SER:125    1
Name: 59, dtype: object

>  <halogenbond:SER:125>  (61) 
halogenbond:SER:125    NaN
halogenbond:SER:125     -1
Name: 59, dtype: object

>  <hydroph_interaction:THR:126>  (61) 
hydroph_interaction:THR:126    0.0
hydroph_interaction:THR:126      0
Name: 59, dtype: object

>  <hbond:THR:126>  (61) 
hbond:THR:126    0.0
hbond:THR:126      0
Name: 59, dtype: object

>  <halogenbond:THR:126>  (61) 
halogenbond:THR:126    NaN
halogenbond:THR:126     -1
Name: 59, dtype: object

>  <hbond:GLY:127>  (61) 
hbond:GLY:127    0
hbond:GLY:127    0
Name: 59, dtype: object

>  <halogenbond:GLY:127>  (61) 
halogenbond:GLY:127    NaN
halogenbond:GLY:127     -1
Name: 59, dtype: object

>  <hydroph_interaction:GLY:127>  (61) 
hydroph_interaction:GLY:127    NaN
hydroph_interaction:GLY:127     -1
Name: 59, dtype: object

>  <hbond:GLY:128>  (61) 
hbond:GLY:128    NaN
hbond:GLY:128     -1
Name: 59, dtype: object

>  <halogenbond:GLY:128>  (61) 
halogenbond:GLY:128    NaN
halogenbond:GLY:128     -1
Name: 59, dtype: object

>  <hydroph_interaction:GLY:128>  (61) 
hydroph_interaction:GLY:128    NaN
hydroph_interaction:GLY:128     -1
Name: 59, dtype: object

>  <hbond:ASN:129>  (61) 
hbond:ASN:129    NaN
hbond:ASN:129     -1
Name: 59, dtype: object

>  <hydroph_interaction:ASN:129>  (61) 
hydroph_interaction:ASN:129    NaN
hydroph_interaction:ASN:129     -1
Name: 59, dtype: object

>  <halogenbond:ASN:129>  (61) 
halogenbond:ASN:129    NaN
halogenbond:ASN:129     -1
Name: 59, dtype: object

>  <hbond:GLY:130>  (61) 
hbond:GLY:130    NaN
hbond:GLY:130     -1
Name: 59, dtype: object

>  <hbond:LEU:131>  (61) 
hbond:LEU:131    NaN
hbond:LEU:131     -1
Name: 59, dtype: object

>  <hydroph_interaction:LEU:131>  (61) 
hydroph_interaction:LEU:131    NaN
hydroph_interaction:LEU:131     -1
Name: 59, dtype: object

>  <halogenbond:LEU:131>  (61) 
halogenbond:LEU:131    NaN
halogenbond:LEU:131     -1
Name: 59, dtype: object

>  <hydroph_interaction:VAL:132>  (61) 
hydroph_interaction:VAL:132    NaN
hydroph_interaction:VAL:132     -1
Name: 59, dtype: object

>  <hbond:VAL:132>  (61) 
hbond:VAL:132    NaN
hbond:VAL:132     -1
Name: 59, dtype: object

>  <hbond:GLY:133>  (61) 
hbond:GLY:133    NaN
hbond:GLY:133     -1
Name: 59, dtype: object

>  <halogenbond:GLY:133>  (61) 
halogenbond:GLY:133    NaN
halogenbond:GLY:133     -1
Name: 59, dtype: object

>  <hydroph_interaction:PHE:134>  (61) 
hydroph_interaction:PHE:134    NaN
hydroph_interaction:PHE:134     -1
Name: 59, dtype: object

>  <hbond:PHE:134>  (61) 
hbond:PHE:134    NaN
hbond:PHE:134     -1
Name: 59, dtype: object

>  <pistack:PHE:134>  (61) 
pistack:PHE:134    NaN
pistack:PHE:134     -1
Name: 59, dtype: object

>  <pication:PHE:134>  (61) 
pication:PHE:134    NaN
pication:PHE:134     -1
Name: 59, dtype: object

>  <halogenbond:PHE:134>  (61) 
halogenbond:PHE:134    NaN
halogenbond:PHE:134     -1
Name: 59, dtype: object

>  <hydroph_interaction:ALA:135>  (61) 
hydroph_interaction:ALA:135    NaN
hydroph_interaction:ALA:135     -1
Name: 59, dtype: object

>  <hbond:ALA:135>  (61) 
hbond:ALA:135    NaN
hbond:ALA:135     -1
Name: 59, dtype: object

$$$$
Z5480666518
     RDKit          3D

 16 17  0  0  0  0  0  0  0  0999 V2000
   28.7280   15.6294    8.4235 C   0  0  0  0  0  0  0  0  0  0  0  0
   29.7031   14.4918    8.7099 C   0  0  0  0  0  0  0  0  0  0  0  0
   29.5259   13.5095    7.7594 N   0  0  0  0  0  0  0  0  0  0  0  0
   28.2342   13.0767    7.4360 C   0  0  0  0  0  0  0  0  0  0  0  0
   30.6347   13.0775    7.0084 C   0  0  0  0  0  0  0  0  0  0  0  0
   31.2160   13.7176    6.1662 O   0  0  0  0  0  0  0  0  0  0  0  0
   31.1794   11.6959    7.0431 C   0  0  0  0  0  0  0  0  0  0  0  0
   30.5123   10.7326    7.9737 C   0  0  0  0  0  0  0  0  0  0  0  0
   31.0920    9.3477    7.9203 C   0  0  0  0  0  0  0  0  0  0  0  0
   30.4221    8.3629    8.8654 C   0  0  0  0  0  0  0  0  0  0  0  0
   32.1575    9.0371    7.0580 C   0  0  0  0  0  0  0  0  0  0  0  0
   32.7252   10.0253    6.2300 C   0  0  0  0  0  0  0  0  0  0  0  0
   32.2763   11.3149    6.2118 C   0  0  0  0  0  0  0  0  0  0  0  0
   33.0115   12.0884    5.3243 C   0  0  0  0  0  0  0  0  0  0  0  0
   33.9047   11.2320    4.6986 C   0  0  0  0  0  0  0  0  0  0  0  0
   33.8648    9.9323    5.2378 C   0  0  0  0  0  0  0  0  0  0  0  0
  1  2  1  0
  2  3  1  0
  3  4  1  0
  3  5  1  0
  5  6  2  0
  5  7  1  0
  7  8  2  0
  8  9  1  0
  9 10  1  0
  9 11  2  0
 11 12  1  0
 12 13  2  0
 13 14  1  0
 14 15  1  0
 15 16  1  0
 13  7  1  0
 16 12  1  0
A    1
 C1 
A    2
 C2 
A    3
 N1 
A    4
 C3 
A    5
 C4 
A    6
 O1 
A    7
 C5 
A    8
 C6 
A    9
 C7 
A   10
 C8 
A   11
 C9 
A   12
 C10
A   13
 C11
A   14
 C12
A   15
 C13
A   16
 C14
M  END
>  <ref_pdb>  (62) 
Ax0310a

>  <ref_mols>  (62) 
Ax0554a,Ax0528a

>  <original SMILES>  (62) 
CCN(C)C(=O)c1cc(C)cc2c1CCC2

>  <rationale>  (62) 
info halogenbond:C110+G127+D39+A86+S125+E85+Q95+E106+E88+T126+H104+Y64+C65+S87+N129+F83+L131+I82+G128+P91+H21+V84+G133+Y90+Y89+H97+L81+F134+L98+R20+G103+S66+S67+S7+G108+R38+V124+M99+S36; hbond:T126+D109+G108+G103+G128+G130+L131+N129+H104+R68+V124+P91+F83+S67+S66+G112+G133+V132+S77+A135+Y63+A92+A101+M99+F134+L100+I82+Y64+L98+V84+L81+Y94+S80+R38+S37+V102+G8+I123+G111+I113+L114+C65+L22+S96; hydroph_interaction:V124+Y90+Y89+P107+N129+L40+I123+A135+I82+L100+L98+L131+F83+V132+Y63+F134+H104+A86+V74+P91+A101+F76+M99+L114+A92+Y94+R68+Y72+Y64+V18+V102+W28+G127+G128+L81; pication:H104+Y63+F134+Y90+R68+F83+R20; pistack:H104+F134+Y63+F83+Y94; saltbridge:H104+E106+D109+E85+E88+R68; 

>  <intxn_cluster>  (62) 
-1

>  <intxn_cluster_rank>  (62) 
-1

>  <N_interactions>  (62) 
4

>  <∆∆G>  (62) 
-11.696653

>  <$/mg>  (62) 
163.0

>  <comRMSD>  (62) 
0.9088

>  <N_rotatable_bonds>  (62) 
5

>  <deep_P1_sidechain>  (62) 
nan

>  <farthest_distance_to_substrate>  (62) 
2.588773

>  <hbond:SER:7>  (62) 
hbond:SER:7    0.0
hbond:SER:7      0
Name: 60, dtype: object

>  <halogenbond:SER:7>  (62) 
halogenbond:SER:7    NaN
halogenbond:SER:7     -1
Name: 60, dtype: object

>  <hbond:GLY:8>  (62) 
hbond:GLY:8    NaN
hbond:GLY:8     -1
Name: 60, dtype: object

>  <hydroph_interaction:VAL:18>  (62) 
hydroph_interaction:VAL:18    NaN
hydroph_interaction:VAL:18     -1
Name: 60, dtype: object

>  <hbond:ASN:19>  (62) 
hbond:ASN:19    0.0
hbond:ASN:19      0
Name: 60, dtype: object

>  <hydroph_interaction:ASN:19>  (62) 
hydroph_interaction:ASN:19    0.0
hydroph_interaction:ASN:19      0
Name: 60, dtype: object

>  <halogenbond:ASN:19>  (62) 
halogenbond:ASN:19    0.0
halogenbond:ASN:19      0
Name: 60, dtype: object

>  <hbond:ARG:20>  (62) 
hbond:ARG:20    0.0
hbond:ARG:20      0
Name: 60, dtype: object

>  <hydroph_interaction:ARG:20>  (62) 
hydroph_interaction:ARG:20    0.0
hydroph_interaction:ARG:20      0
Name: 60, dtype: object

>  <saltbridge:ARG:20>  (62) 
saltbridge:ARG:20    0.0
saltbridge:ARG:20      0
Name: 60, dtype: object

>  <halogenbond:ARG:20>  (62) 
halogenbond:ARG:20    NaN
halogenbond:ARG:20     -1
Name: 60, dtype: object

>  <pication:ARG:20>  (62) 
pication:ARG:20    NaN
pication:ARG:20     -1
Name: 60, dtype: object

>  <hbond:HIS:21>  (62) 
hbond:HIS:21    0.0
hbond:HIS:21      0
Name: 60, dtype: object

>  <hydroph_interaction:HIS:21>  (62) 
hydroph_interaction:HIS:21    0.0
hydroph_interaction:HIS:21      0
Name: 60, dtype: object

>  <pistack:HIS:21>  (62) 
pistack:HIS:21    0.0
pistack:HIS:21      0
Name: 60, dtype: object

>  <pication:HIS:21>  (62) 
pication:HIS:21    0.0
pication:HIS:21      0
Name: 60, dtype: object

>  <saltbridge:HIS:21>  (62) 
saltbridge:HIS:21    0.0
saltbridge:HIS:21      0
Name: 60, dtype: object

>  <halogenbond:HIS:21>  (62) 
halogenbond:HIS:21    NaN
halogenbond:HIS:21     -1
Name: 60, dtype: object

>  <hydroph_interaction:LEU:22>  (62) 
hydroph_interaction:LEU:22    0.0
hydroph_interaction:LEU:22      0
Name: 60, dtype: object

>  <hbond:LEU:22>  (62) 
hbond:LEU:22    NaN
hbond:LEU:22     -1
Name: 60, dtype: object

>  <hydroph_interaction:TRP:28>  (62) 
hydroph_interaction:TRP:28    NaN
hydroph_interaction:TRP:28     -1
Name: 60, dtype: object

>  <hbond:SER:36>  (62) 
hbond:SER:36    0.0
hbond:SER:36      0
Name: 60, dtype: object

>  <halogenbond:SER:36>  (62) 
halogenbond:SER:36    NaN
halogenbond:SER:36     -1
Name: 60, dtype: object

>  <hbond:SER:37>  (62) 
hbond:SER:37    NaN
hbond:SER:37     -1
Name: 60, dtype: object

>  <hbond:ARG:38>  (62) 
hbond:ARG:38    NaN
hbond:ARG:38     -1
Name: 60, dtype: object

>  <halogenbond:ARG:38>  (62) 
halogenbond:ARG:38    NaN
halogenbond:ARG:38     -1
Name: 60, dtype: object

>  <saltbridge:ASP:39>  (62) 
saltbridge:ASP:39    0.0
saltbridge:ASP:39      0
Name: 60, dtype: object

>  <halogenbond:ASP:39>  (62) 
halogenbond:ASP:39    NaN
halogenbond:ASP:39     -1
Name: 60, dtype: object

>  <hbond:ASP:39>  (62) 
hbond:ASP:39    0.0
hbond:ASP:39      0
Name: 60, dtype: object

>  <hydroph_interaction:ASP:39>  (62) 
hydroph_interaction:ASP:39    0.0
hydroph_interaction:ASP:39      0
Name: 60, dtype: object

>  <hydroph_interaction:LEU:40>  (62) 
hydroph_interaction:LEU:40    NaN
hydroph_interaction:LEU:40     -1
Name: 60, dtype: object

>  <hydroph_interaction:TYR:63>  (62) 
hydroph_interaction:TYR:63    NaN
hydroph_interaction:TYR:63     -1
Name: 60, dtype: object

>  <hbond:TYR:63>  (62) 
hbond:TYR:63    NaN
hbond:TYR:63     -1
Name: 60, dtype: object

>  <pistack:TYR:63>  (62) 
pistack:TYR:63    NaN
pistack:TYR:63     -1
Name: 60, dtype: object

>  <pication:TYR:63>  (62) 
pication:TYR:63    NaN
pication:TYR:63     -1
Name: 60, dtype: object

>  <halogenbond:TYR:64>  (62) 
halogenbond:TYR:64    NaN
halogenbond:TYR:64     -1
Name: 60, dtype: object

>  <hbond:TYR:64>  (62) 
hbond:TYR:64    NaN
hbond:TYR:64     -1
Name: 60, dtype: object

>  <hydroph_interaction:TYR:64>  (62) 
hydroph_interaction:TYR:64    NaN
hydroph_interaction:TYR:64     -1
Name: 60, dtype: object

>  <halogenbond:CYS:65>  (62) 
halogenbond:CYS:65    NaN
halogenbond:CYS:65     -1
Name: 60, dtype: object

>  <hbond:CYS:65>  (62) 
hbond:CYS:65    NaN
hbond:CYS:65     -1
Name: 60, dtype: object

>  <hbond:SER:66>  (62) 
hbond:SER:66    NaN
hbond:SER:66     -1
Name: 60, dtype: object

>  <halogenbond:SER:66>  (62) 
halogenbond:SER:66    NaN
halogenbond:SER:66     -1
Name: 60, dtype: object

>  <hbond:SER:67>  (62) 
hbond:SER:67    NaN
hbond:SER:67     -1
Name: 60, dtype: object

>  <halogenbond:SER:67>  (62) 
halogenbond:SER:67    NaN
halogenbond:SER:67     -1
Name: 60, dtype: object

>  <hbond:ARG:68>  (62) 
hbond:ARG:68    NaN
hbond:ARG:68     -1
Name: 60, dtype: object

>  <saltbridge:ARG:68>  (62) 
saltbridge:ARG:68    NaN
saltbridge:ARG:68     -1
Name: 60, dtype: object

>  <hydroph_interaction:ARG:68>  (62) 
hydroph_interaction:ARG:68    NaN
hydroph_interaction:ARG:68     -1
Name: 60, dtype: object

>  <pication:ARG:68>  (62) 
pication:ARG:68    NaN
pication:ARG:68     -1
Name: 60, dtype: object

>  <hydroph_interaction:TYR:72>  (62) 
hydroph_interaction:TYR:72    NaN
hydroph_interaction:TYR:72     -1
Name: 60, dtype: object

>  <hydroph_interaction:VAL:74>  (62) 
hydroph_interaction:VAL:74    NaN
hydroph_interaction:VAL:74     -1
Name: 60, dtype: object

>  <hydroph_interaction:PHE:76>  (62) 
hydroph_interaction:PHE:76    NaN
hydroph_interaction:PHE:76     -1
Name: 60, dtype: object

>  <hbond:SER:77>  (62) 
hbond:SER:77    NaN
hbond:SER:77     -1
Name: 60, dtype: object

>  <hbond:SER:80>  (62) 
hbond:SER:80    NaN
hbond:SER:80     -1
Name: 60, dtype: object

>  <hbond:LEU:81>  (62) 
hbond:LEU:81    NaN
hbond:LEU:81     -1
Name: 60, dtype: object

>  <halogenbond:LEU:81>  (62) 
halogenbond:LEU:81    NaN
halogenbond:LEU:81     -1
Name: 60, dtype: object

>  <hydroph_interaction:LEU:81>  (62) 
hydroph_interaction:LEU:81    NaN
hydroph_interaction:LEU:81     -1
Name: 60, dtype: object

>  <hydroph_interaction:ILE:82>  (62) 
hydroph_interaction:ILE:82    NaN
hydroph_interaction:ILE:82     -1
Name: 60, dtype: object

>  <halogenbond:ILE:82>  (62) 
halogenbond:ILE:82    NaN
halogenbond:ILE:82     -1
Name: 60, dtype: object

>  <hbond:ILE:82>  (62) 
hbond:ILE:82    NaN
hbond:ILE:82     -1
Name: 60, dtype: object

>  <hbond:PHE:83>  (62) 
hbond:PHE:83    NaN
hbond:PHE:83     -1
Name: 60, dtype: object

>  <hydroph_interaction:PHE:83>  (62) 
hydroph_interaction:PHE:83    NaN
hydroph_interaction:PHE:83     -1
Name: 60, dtype: object

>  <halogenbond:PHE:83>  (62) 
halogenbond:PHE:83    NaN
halogenbond:PHE:83     -1
Name: 60, dtype: object

>  <pistack:PHE:83>  (62) 
pistack:PHE:83    NaN
pistack:PHE:83     -1
Name: 60, dtype: object

>  <pication:PHE:83>  (62) 
pication:PHE:83    NaN
pication:PHE:83     -1
Name: 60, dtype: object

>  <hydroph_interaction:VAL:84>  (62) 
hydroph_interaction:VAL:84    0.0
hydroph_interaction:VAL:84      0
Name: 60, dtype: object

>  <halogenbond:VAL:84>  (62) 
halogenbond:VAL:84    NaN
halogenbond:VAL:84     -1
Name: 60, dtype: object

>  <hbond:VAL:84>  (62) 
hbond:VAL:84    NaN
hbond:VAL:84     -1
Name: 60, dtype: object

>  <hydroph_interaction:GLU:85>  (62) 
hydroph_interaction:GLU:85    0.0
hydroph_interaction:GLU:85      0
Name: 60, dtype: object

>  <hbond:GLU:85>  (62) 
hbond:GLU:85    0.0
hbond:GLU:85      0
Name: 60, dtype: object

>  <halogenbond:GLU:85>  (62) 
halogenbond:GLU:85    NaN
halogenbond:GLU:85     -1
Name: 60, dtype: object

>  <saltbridge:GLU:85>  (62) 
saltbridge:GLU:85    NaN
saltbridge:GLU:85     -1
Name: 60, dtype: object

>  <halogenbond:ALA:86>  (62) 
halogenbond:ALA:86    NaN
halogenbond:ALA:86     -1
Name: 60, dtype: object

>  <hbond:ALA:86>  (62) 
hbond:ALA:86    0.0
hbond:ALA:86      0
Name: 60, dtype: object

>  <hydroph_interaction:ALA:86>  (62) 
hydroph_interaction:ALA:86    NaN
hydroph_interaction:ALA:86     -1
Name: 60, dtype: object

>  <hbond:SER:87>  (62) 
hbond:SER:87    0
hbond:SER:87    0
Name: 60, dtype: object

>  <halogenbond:SER:87>  (62) 
halogenbond:SER:87    NaN
halogenbond:SER:87     -1
Name: 60, dtype: object

>  <hbond:GLU:88>  (62) 
hbond:GLU:88    0.0
hbond:GLU:88      0
Name: 60, dtype: object

>  <hydroph_interaction:GLU:88>  (62) 
hydroph_interaction:GLU:88    0.0
hydroph_interaction:GLU:88      0
Name: 60, dtype: object

>  <halogenbond:GLU:88>  (62) 
halogenbond:GLU:88    NaN
halogenbond:GLU:88     -1
Name: 60, dtype: object

>  <saltbridge:GLU:88>  (62) 
saltbridge:GLU:88    NaN
saltbridge:GLU:88     -1
Name: 60, dtype: object

>  <hydroph_interaction:TYR:89>  (62) 
hydroph_interaction:TYR:89    1.0
hydroph_interaction:TYR:89      1
Name: 60, dtype: object

>  <pistack:TYR:89>  (62) 
pistack:TYR:89    0.0
pistack:TYR:89      0
Name: 60, dtype: object

>  <hbond:TYR:89>  (62) 
hbond:TYR:89    0.0
hbond:TYR:89      0
Name: 60, dtype: object

>  <halogenbond:TYR:89>  (62) 
halogenbond:TYR:89    NaN
halogenbond:TYR:89     -1
Name: 60, dtype: object

>  <hydroph_interaction:TYR:90>  (62) 
hydroph_interaction:TYR:90    1.0
hydroph_interaction:TYR:90      1
Name: 60, dtype: object

>  <hbond:TYR:90>  (62) 
hbond:TYR:90    0.0
hbond:TYR:90      0
Name: 60, dtype: object

>  <pistack:TYR:90>  (62) 
pistack:TYR:90    0.0
pistack:TYR:90      0
Name: 60, dtype: object

>  <halogenbond:TYR:90>  (62) 
halogenbond:TYR:90    NaN
halogenbond:TYR:90     -1
Name: 60, dtype: object

>  <pication:TYR:90>  (62) 
pication:TYR:90    NaN
pication:TYR:90     -1
Name: 60, dtype: object

>  <hbond:PRO:91>  (62) 
hbond:PRO:91    NaN
hbond:PRO:91     -1
Name: 60, dtype: object

>  <hydroph_interaction:PRO:91>  (62) 
hydroph_interaction:PRO:91    NaN
hydroph_interaction:PRO:91     -1
Name: 60, dtype: object

>  <halogenbond:PRO:91>  (62) 
halogenbond:PRO:91    NaN
halogenbond:PRO:91     -1
Name: 60, dtype: object

>  <hbond:ALA:92>  (62) 
hbond:ALA:92    NaN
hbond:ALA:92     -1
Name: 60, dtype: object

>  <hydroph_interaction:ALA:92>  (62) 
hydroph_interaction:ALA:92    NaN
hydroph_interaction:ALA:92     -1
Name: 60, dtype: object

>  <saltbridge:ARG:93>  (62) 
saltbridge:ARG:93    0.0
saltbridge:ARG:93      0
Name: 60, dtype: object

>  <hbond:ARG:93>  (62) 
hbond:ARG:93    0.0
hbond:ARG:93      0
Name: 60, dtype: object

>  <hydroph_interaction:ARG:93>  (62) 
hydroph_interaction:ARG:93    0.0
hydroph_interaction:ARG:93      0
Name: 60, dtype: object

>  <halogenbond:ARG:93>  (62) 
halogenbond:ARG:93    0.0
halogenbond:ARG:93      0
Name: 60, dtype: object

>  <pication:ARG:93>  (62) 
pication:ARG:93    0.0
pication:ARG:93      0
Name: 60, dtype: object

>  <hydroph_interaction:TYR:94>  (62) 
hydroph_interaction:TYR:94    NaN
hydroph_interaction:TYR:94     -1
Name: 60, dtype: object

>  <pistack:TYR:94>  (62) 
pistack:TYR:94    NaN
pistack:TYR:94     -1
Name: 60, dtype: object

>  <hbond:TYR:94>  (62) 
hbond:TYR:94    NaN
hbond:TYR:94     -1
Name: 60, dtype: object

>  <hbond:GLN:95>  (62) 
hbond:GLN:95    0.0
hbond:GLN:95      0
Name: 60, dtype: object

>  <hydroph_interaction:GLN:95>  (62) 
hydroph_interaction:GLN:95    0.0
hydroph_interaction:GLN:95      0
Name: 60, dtype: object

>  <halogenbond:GLN:95>  (62) 
halogenbond:GLN:95    NaN
halogenbond:GLN:95     -1
Name: 60, dtype: object

>  <hbond:SER:96>  (62) 
hbond:SER:96    NaN
hbond:SER:96     -1
Name: 60, dtype: object

>  <halogenbond:HIS:97>  (62) 
halogenbond:HIS:97    NaN
halogenbond:HIS:97     -1
Name: 60, dtype: object

>  <hydroph_interaction:LEU:98>  (62) 
hydroph_interaction:LEU:98    NaN
hydroph_interaction:LEU:98     -1
Name: 60, dtype: object

>  <hbond:LEU:98>  (62) 
hbond:LEU:98    NaN
hbond:LEU:98     -1
Name: 60, dtype: object

>  <halogenbond:LEU:98>  (62) 
halogenbond:LEU:98    NaN
halogenbond:LEU:98     -1
Name: 60, dtype: object

>  <hbond:MET:99>  (62) 
hbond:MET:99    NaN
hbond:MET:99     -1
Name: 60, dtype: object

>  <hydroph_interaction:MET:99>  (62) 
hydroph_interaction:MET:99    NaN
hydroph_interaction:MET:99     -1
Name: 60, dtype: object

>  <halogenbond:MET:99>  (62) 
halogenbond:MET:99    NaN
halogenbond:MET:99     -1
Name: 60, dtype: object

>  <hydroph_interaction:LEU:100>  (62) 
hydroph_interaction:LEU:100    NaN
hydroph_interaction:LEU:100     -1
Name: 60, dtype: object

>  <hbond:LEU:100>  (62) 
hbond:LEU:100    NaN
hbond:LEU:100     -1
Name: 60, dtype: object

>  <hbond:ALA:101>  (62) 
hbond:ALA:101    NaN
hbond:ALA:101     -1
Name: 60, dtype: object

>  <hydroph_interaction:ALA:101>  (62) 
hydroph_interaction:ALA:101    NaN
hydroph_interaction:ALA:101     -1
Name: 60, dtype: object

>  <hydroph_interaction:VAL:102>  (62) 
hydroph_interaction:VAL:102    NaN
hydroph_interaction:VAL:102     -1
Name: 60, dtype: object

>  <hbond:VAL:102>  (62) 
hbond:VAL:102    NaN
hbond:VAL:102     -1
Name: 60, dtype: object

>  <hbond:GLY:103>  (62) 
hbond:GLY:103    NaN
hbond:GLY:103     -1
Name: 60, dtype: object

>  <halogenbond:GLY:103>  (62) 
halogenbond:GLY:103    NaN
halogenbond:GLY:103     -1
Name: 60, dtype: object

>  <hbond:HIS:104>  (62) 
hbond:HIS:104    NaN
hbond:HIS:104     -1
Name: 60, dtype: object

>  <saltbridge:HIS:104>  (62) 
saltbridge:HIS:104    NaN
saltbridge:HIS:104     -1
Name: 60, dtype: object

>  <pication:HIS:104>  (62) 
pication:HIS:104    NaN
pication:HIS:104     -1
Name: 60, dtype: object

>  <halogenbond:HIS:104>  (62) 
halogenbond:HIS:104    NaN
halogenbond:HIS:104     -1
Name: 60, dtype: object

>  <hydroph_interaction:HIS:104>  (62) 
hydroph_interaction:HIS:104    NaN
hydroph_interaction:HIS:104     -1
Name: 60, dtype: object

>  <pistack:HIS:104>  (62) 
pistack:HIS:104    NaN
pistack:HIS:104     -1
Name: 60, dtype: object

>  <halogenbond:SER:105>  (62) 
halogenbond:SER:105    0.0
halogenbond:SER:105      0
Name: 60, dtype: object

>  <hbond:SER:105>  (62) 
hbond:SER:105    0.0
hbond:SER:105      0
Name: 60, dtype: object

>  <hbond:GLU:106>  (62) 
hbond:GLU:106    0.0
hbond:GLU:106      0
Name: 60, dtype: object

>  <hydroph_interaction:GLU:106>  (62) 
hydroph_interaction:GLU:106    0.0
hydroph_interaction:GLU:106      0
Name: 60, dtype: object

>  <saltbridge:GLU:106>  (62) 
saltbridge:GLU:106    NaN
saltbridge:GLU:106     -1
Name: 60, dtype: object

>  <halogenbond:GLU:106>  (62) 
halogenbond:GLU:106    NaN
halogenbond:GLU:106     -1
Name: 60, dtype: object

>  <hydroph_interaction:PRO:107>  (62) 
hydroph_interaction:PRO:107    1
hydroph_interaction:PRO:107    1
Name: 60, dtype: object

>  <hbond:PRO:107>  (62) 
hbond:PRO:107    0.0
hbond:PRO:107      0
Name: 60, dtype: object

>  <halogenbond:PRO:107>  (62) 
halogenbond:PRO:107    0.0
halogenbond:PRO:107      0
Name: 60, dtype: object

>  <hbond:GLY:108>  (62) 
hbond:GLY:108    NaN
hbond:GLY:108     -1
Name: 60, dtype: object

>  <halogenbond:GLY:108>  (62) 
halogenbond:GLY:108    NaN
halogenbond:GLY:108     -1
Name: 60, dtype: object

>  <hbond:ASP:109>  (62) 
hbond:ASP:109    NaN
hbond:ASP:109     -1
Name: 60, dtype: object

>  <hydroph_interaction:ASP:109>  (62) 
hydroph_interaction:ASP:109    0.0
hydroph_interaction:ASP:109      0
Name: 60, dtype: object

>  <saltbridge:ASP:109>  (62) 
saltbridge:ASP:109    NaN
saltbridge:ASP:109     -1
Name: 60, dtype: object

>  <halogenbond:CYS:110>  (62) 
halogenbond:CYS:110    NaN
halogenbond:CYS:110     -1
Name: 60, dtype: object

>  <hbond:CYS:110>  (62) 
hbond:CYS:110    0.0
hbond:CYS:110      0
Name: 60, dtype: object

>  <hbond:GLY:111>  (62) 
hbond:GLY:111    NaN
hbond:GLY:111     -1
Name: 60, dtype: object

>  <hbond:GLY:112>  (62) 
hbond:GLY:112    NaN
hbond:GLY:112     -1
Name: 60, dtype: object

>  <hbond:ILE:113>  (62) 
hbond:ILE:113    NaN
hbond:ILE:113     -1
Name: 60, dtype: object

>  <hydroph_interaction:LEU:114>  (62) 
hydroph_interaction:LEU:114    NaN
hydroph_interaction:LEU:114     -1
Name: 60, dtype: object

>  <hbond:LEU:114>  (62) 
hbond:LEU:114    NaN
hbond:LEU:114     -1
Name: 60, dtype: object

>  <hydroph_interaction:ILE:123>  (62) 
hydroph_interaction:ILE:123    NaN
hydroph_interaction:ILE:123     -1
Name: 60, dtype: object

>  <hbond:ILE:123>  (62) 
hbond:ILE:123    NaN
hbond:ILE:123     -1
Name: 60, dtype: object

>  <hydroph_interaction:VAL:124>  (62) 
hydroph_interaction:VAL:124    1.0
hydroph_interaction:VAL:124      1
Name: 60, dtype: object

>  <hbond:VAL:124>  (62) 
hbond:VAL:124    NaN
hbond:VAL:124     -1
Name: 60, dtype: object

>  <halogenbond:VAL:124>  (62) 
halogenbond:VAL:124    NaN
halogenbond:VAL:124     -1
Name: 60, dtype: object

>  <hbond:SER:125>  (62) 
hbond:SER:125    0
hbond:SER:125    0
Name: 60, dtype: object

>  <halogenbond:SER:125>  (62) 
halogenbond:SER:125    NaN
halogenbond:SER:125     -1
Name: 60, dtype: object

>  <hydroph_interaction:THR:126>  (62) 
hydroph_interaction:THR:126    0.0
hydroph_interaction:THR:126      0
Name: 60, dtype: object

>  <hbond:THR:126>  (62) 
hbond:THR:126    NaN
hbond:THR:126     -1
Name: 60, dtype: object

>  <halogenbond:THR:126>  (62) 
halogenbond:THR:126    NaN
halogenbond:THR:126     -1
Name: 60, dtype: object

>  <hbond:GLY:127>  (62) 
hbond:GLY:127    0
hbond:GLY:127    0
Name: 60, dtype: object

>  <halogenbond:GLY:127>  (62) 
halogenbond:GLY:127    NaN
halogenbond:GLY:127     -1
Name: 60, dtype: object

>  <hydroph_interaction:GLY:127>  (62) 
hydroph_interaction:GLY:127    NaN
hydroph_interaction:GLY:127     -1
Name: 60, dtype: object

>  <hbond:GLY:128>  (62) 
hbond:GLY:128    NaN
hbond:GLY:128     -1
Name: 60, dtype: object

>  <halogenbond:GLY:128>  (62) 
halogenbond:GLY:128    NaN
halogenbond:GLY:128     -1
Name: 60, dtype: object

>  <hydroph_interaction:GLY:128>  (62) 
hydroph_interaction:GLY:128    NaN
hydroph_interaction:GLY:128     -1
Name: 60, dtype: object

>  <hbond:ASN:129>  (62) 
hbond:ASN:129    NaN
hbond:ASN:129     -1
Name: 60, dtype: object

>  <hydroph_interaction:ASN:129>  (62) 
hydroph_interaction:ASN:129    NaN
hydroph_interaction:ASN:129     -1
Name: 60, dtype: object

>  <halogenbond:ASN:129>  (62) 
halogenbond:ASN:129    NaN
halogenbond:ASN:129     -1
Name: 60, dtype: object

>  <hbond:GLY:130>  (62) 
hbond:GLY:130    NaN
hbond:GLY:130     -1
Name: 60, dtype: object

>  <hbond:LEU:131>  (62) 
hbond:LEU:131    NaN
hbond:LEU:131     -1
Name: 60, dtype: object

>  <hydroph_interaction:LEU:131>  (62) 
hydroph_interaction:LEU:131    NaN
hydroph_interaction:LEU:131     -1
Name: 60, dtype: object

>  <halogenbond:LEU:131>  (62) 
halogenbond:LEU:131    NaN
halogenbond:LEU:131     -1
Name: 60, dtype: object

>  <hydroph_interaction:VAL:132>  (62) 
hydroph_interaction:VAL:132    NaN
hydroph_interaction:VAL:132     -1
Name: 60, dtype: object

>  <hbond:VAL:132>  (62) 
hbond:VAL:132    NaN
hbond:VAL:132     -1
Name: 60, dtype: object

>  <hbond:GLY:133>  (62) 
hbond:GLY:133    NaN
hbond:GLY:133     -1
Name: 60, dtype: object

>  <halogenbond:GLY:133>  (62) 
halogenbond:GLY:133    NaN
halogenbond:GLY:133     -1
Name: 60, dtype: object

>  <hydroph_interaction:PHE:134>  (62) 
hydroph_interaction:PHE:134    NaN
hydroph_interaction:PHE:134     -1
Name: 60, dtype: object

>  <hbond:PHE:134>  (62) 
hbond:PHE:134    NaN
hbond:PHE:134     -1
Name: 60, dtype: object

>  <pistack:PHE:134>  (62) 
pistack:PHE:134    NaN
pistack:PHE:134     -1
Name: 60, dtype: object

>  <pication:PHE:134>  (62) 
pication:PHE:134    NaN
pication:PHE:134     -1
Name: 60, dtype: object

>  <halogenbond:PHE:134>  (62) 
halogenbond:PHE:134    NaN
halogenbond:PHE:134     -1
Name: 60, dtype: object

>  <hydroph_interaction:ALA:135>  (62) 
hydroph_interaction:ALA:135    NaN
hydroph_interaction:ALA:135     -1
Name: 60, dtype: object

>  <hbond:ALA:135>  (62) 
hbond:ALA:135    NaN
hbond:ALA:135     -1
Name: 60, dtype: object

$$$$
Z1480922451
     RDKit          3D

 13 13  0  0  0  0  0  0  0  0999 V2000
   27.9826   14.7175    8.5076 C   0  0  0  0  0  0  0  0  0  0  0  0
   29.3318   14.6086    8.3697 N   0  0  0  0  0  0  0  0  0  0  0  0
   29.7664   13.5638    7.5825 C   0  0  0  0  0  0  0  0  0  0  0  0
   29.3651   13.4368    5.9777 S   0  0  0  0  0  0  0  0  0  0  0  0
   30.5303   12.7022    8.3149 N   0  0  0  0  0  0  0  0  0  0  0  0
   31.0366   11.4786    7.8815 C   0  0  0  0  0  0  0  0  0  0  0  0
   30.5266   10.3527    8.4347 C   0  0  0  0  0  0  0  0  0  0  0  0
   31.0132    9.0565    8.0534 C   0  0  0  0  0  0  0  0  0  0  0  0
   30.4320    7.9865    8.6856 C   0  0  0  0  0  0  0  0  0  0  0  0
   32.0158    9.0227    7.0982 C   0  0  0  0  0  0  0  0  0  0  0  0
   32.4856   10.2300    6.5730 C   0  0  0  0  0  0  0  0  0  0  0  0
   33.5989   10.1813    5.5265 C   0  0  0  0  0  0  0  0  0  0  0  0
   32.0166   11.4591    6.9430 N   0  0  0  0  0  0  0  0  0  0  0  0
  1  2  1  0
  2  3  1  0
  3  4  2  0
  3  5  1  0
  5  6  1  0
  6  7  2  0
  7  8  1  0
  8  9  1  0
  8 10  2  0
 10 11  1  0
 11 12  1  0
 11 13  2  0
 13  6  1  0
A    1
 C1 
A    2
 N1 
A    3
 C2 
A    4
 S1 
A    5
 N2 
A    6
 C3 
A    7
 C4 
A    8
 C5 
A    9
 C6 
A   10
 C7 
A   11
 C8 
A   12
 C9 
A   13
 N3 
M  END
>  <ref_pdb>  (63) 
Ax0310a

>  <ref_mols>  (63) 
Ax0554a,Ax0739a

>  <original SMILES>  (63) 
CNC(=S)Nc1cc(C)cc(C)n1

>  <rationale>  (63) 
info halogenbond:C110+G127+D39+A86+E85+Q95+E106+E88+T126+P107+H104+Y64+C65+S87+N129+F83+R93+L131+I82+G128+P91+N19+H21+V84+G133+Y90+Y89+H97+L81+F134+L98+R20+G103+S66+S67+S7+G108+R38+V124+M99+S36; hbond:S87+S125+G127+Q95+A86+E85+G108+G103+G128+G130+L131+N129+N19+H104+R68+R93+P91+F83+S67+S7+S66+G112+V132+R20+Y89+S77+A135+Y63+A92+A101+M99+F134+L100+I82+Y64+S36+L98+V84+L81+Y94+S80+R38+S37+V102+G8+I123+G111+I113+L114+C65+L22+S96; hydroph_interaction:V124+L22+E85+E88+N129+D39+N19+L40+I123+A135+Q95+I82+L100+L98+L131+F83+R93+Y63+F134+H104+R20+A86+V74+P91+A101+F76+M99+L114+A92+Y94+R68+Y72+Y64+V18+V102+W28+G127+G128+L81; pication:H104+R93+Y63+F134+Y90+R68+F83+R20; pistack:H21+Y89+Y90+H104+F134+Y63+F83+Y94; saltbridge:R93+H104+E106+D109+E85+E88+R68+R20; 

>  <intxn_cluster>  (63) 
-1

>  <intxn_cluster_rank>  (63) 
-1

>  <N_interactions>  (63) 
5

>  <∆∆G>  (63) 
-11.516324

>  <$/mg>  (63) 
163.0

>  <comRMSD>  (63) 
0.795427

>  <N_rotatable_bonds>  (63) 
4

>  <deep_P1_sidechain>  (63) 
nan

>  <farthest_distance_to_substrate>  (63) 
2.365271

>  <hbond:SER:7>  (63) 
hbond:SER:7    NaN
hbond:SER:7     -1
Name: 61, dtype: object

>  <halogenbond:SER:7>  (63) 
halogenbond:SER:7    NaN
halogenbond:SER:7     -1
Name: 61, dtype: object

>  <hbond:GLY:8>  (63) 
hbond:GLY:8    NaN
hbond:GLY:8     -1
Name: 61, dtype: object

>  <hydroph_interaction:VAL:18>  (63) 
hydroph_interaction:VAL:18    NaN
hydroph_interaction:VAL:18     -1
Name: 61, dtype: object

>  <hbond:ASN:19>  (63) 
hbond:ASN:19    NaN
hbond:ASN:19     -1
Name: 61, dtype: object

>  <hydroph_interaction:ASN:19>  (63) 
hydroph_interaction:ASN:19    NaN
hydroph_interaction:ASN:19     -1
Name: 61, dtype: object

>  <halogenbond:ASN:19>  (63) 
halogenbond:ASN:19    NaN
halogenbond:ASN:19     -1
Name: 61, dtype: object

>  <hbond:ARG:20>  (63) 
hbond:ARG:20    NaN
hbond:ARG:20     -1
Name: 61, dtype: object

>  <hydroph_interaction:ARG:20>  (63) 
hydroph_interaction:ARG:20    NaN
hydroph_interaction:ARG:20     -1
Name: 61, dtype: object

>  <saltbridge:ARG:20>  (63) 
saltbridge:ARG:20    NaN
saltbridge:ARG:20     -1
Name: 61, dtype: object

>  <halogenbond:ARG:20>  (63) 
halogenbond:ARG:20    NaN
halogenbond:ARG:20     -1
Name: 61, dtype: object

>  <pication:ARG:20>  (63) 
pication:ARG:20    NaN
pication:ARG:20     -1
Name: 61, dtype: object

>  <hbond:HIS:21>  (63) 
hbond:HIS:21    0.0
hbond:HIS:21      0
Name: 61, dtype: object

>  <hydroph_interaction:HIS:21>  (63) 
hydroph_interaction:HIS:21    0.0
hydroph_interaction:HIS:21      0
Name: 61, dtype: object

>  <pistack:HIS:21>  (63) 
pistack:HIS:21    NaN
pistack:HIS:21     -1
Name: 61, dtype: object

>  <pication:HIS:21>  (63) 
pication:HIS:21    0.0
pication:HIS:21      0
Name: 61, dtype: object

>  <saltbridge:HIS:21>  (63) 
saltbridge:HIS:21    0.0
saltbridge:HIS:21      0
Name: 61, dtype: object

>  <halogenbond:HIS:21>  (63) 
halogenbond:HIS:21    NaN
halogenbond:HIS:21     -1
Name: 61, dtype: object

>  <hydroph_interaction:LEU:22>  (63) 
hydroph_interaction:LEU:22    NaN
hydroph_interaction:LEU:22     -1
Name: 61, dtype: object

>  <hbond:LEU:22>  (63) 
hbond:LEU:22    NaN
hbond:LEU:22     -1
Name: 61, dtype: object

>  <hydroph_interaction:TRP:28>  (63) 
hydroph_interaction:TRP:28    NaN
hydroph_interaction:TRP:28     -1
Name: 61, dtype: object

>  <hbond:SER:36>  (63) 
hbond:SER:36    NaN
hbond:SER:36     -1
Name: 61, dtype: object

>  <halogenbond:SER:36>  (63) 
halogenbond:SER:36    NaN
halogenbond:SER:36     -1
Name: 61, dtype: object

>  <hbond:SER:37>  (63) 
hbond:SER:37    NaN
hbond:SER:37     -1
Name: 61, dtype: object

>  <hbond:ARG:38>  (63) 
hbond:ARG:38    NaN
hbond:ARG:38     -1
Name: 61, dtype: object

>  <halogenbond:ARG:38>  (63) 
halogenbond:ARG:38    NaN
halogenbond:ARG:38     -1
Name: 61, dtype: object

>  <saltbridge:ASP:39>  (63) 
saltbridge:ASP:39    0.0
saltbridge:ASP:39      0
Name: 61, dtype: object

>  <halogenbond:ASP:39>  (63) 
halogenbond:ASP:39    NaN
halogenbond:ASP:39     -1
Name: 61, dtype: object

>  <hbond:ASP:39>  (63) 
hbond:ASP:39    0.0
hbond:ASP:39      0
Name: 61, dtype: object

>  <hydroph_interaction:ASP:39>  (63) 
hydroph_interaction:ASP:39    NaN
hydroph_interaction:ASP:39     -1
Name: 61, dtype: object

>  <hydroph_interaction:LEU:40>  (63) 
hydroph_interaction:LEU:40    NaN
hydroph_interaction:LEU:40     -1
Name: 61, dtype: object

>  <hydroph_interaction:TYR:63>  (63) 
hydroph_interaction:TYR:63    NaN
hydroph_interaction:TYR:63     -1
Name: 61, dtype: object

>  <hbond:TYR:63>  (63) 
hbond:TYR:63    NaN
hbond:TYR:63     -1
Name: 61, dtype: object

>  <pistack:TYR:63>  (63) 
pistack:TYR:63    NaN
pistack:TYR:63     -1
Name: 61, dtype: object

>  <pication:TYR:63>  (63) 
pication:TYR:63    NaN
pication:TYR:63     -1
Name: 61, dtype: object

>  <halogenbond:TYR:64>  (63) 
halogenbond:TYR:64    NaN
halogenbond:TYR:64     -1
Name: 61, dtype: object

>  <hbond:TYR:64>  (63) 
hbond:TYR:64    NaN
hbond:TYR:64     -1
Name: 61, dtype: object

>  <hydroph_interaction:TYR:64>  (63) 
hydroph_interaction:TYR:64    NaN
hydroph_interaction:TYR:64     -1
Name: 61, dtype: object

>  <halogenbond:CYS:65>  (63) 
halogenbond:CYS:65    NaN
halogenbond:CYS:65     -1
Name: 61, dtype: object

>  <hbond:CYS:65>  (63) 
hbond:CYS:65    NaN
hbond:CYS:65     -1
Name: 61, dtype: object

>  <hbond:SER:66>  (63) 
hbond:SER:66    NaN
hbond:SER:66     -1
Name: 61, dtype: object

>  <halogenbond:SER:66>  (63) 
halogenbond:SER:66    NaN
halogenbond:SER:66     -1
Name: 61, dtype: object

>  <hbond:SER:67>  (63) 
hbond:SER:67    NaN
hbond:SER:67     -1
Name: 61, dtype: object

>  <halogenbond:SER:67>  (63) 
halogenbond:SER:67    NaN
halogenbond:SER:67     -1
Name: 61, dtype: object

>  <hbond:ARG:68>  (63) 
hbond:ARG:68    NaN
hbond:ARG:68     -1
Name: 61, dtype: object

>  <saltbridge:ARG:68>  (63) 
saltbridge:ARG:68    NaN
saltbridge:ARG:68     -1
Name: 61, dtype: object

>  <hydroph_interaction:ARG:68>  (63) 
hydroph_interaction:ARG:68    NaN
hydroph_interaction:ARG:68     -1
Name: 61, dtype: object

>  <pication:ARG:68>  (63) 
pication:ARG:68    NaN
pication:ARG:68     -1
Name: 61, dtype: object

>  <hydroph_interaction:TYR:72>  (63) 
hydroph_interaction:TYR:72    NaN
hydroph_interaction:TYR:72     -1
Name: 61, dtype: object

>  <hydroph_interaction:VAL:74>  (63) 
hydroph_interaction:VAL:74    NaN
hydroph_interaction:VAL:74     -1
Name: 61, dtype: object

>  <hydroph_interaction:PHE:76>  (63) 
hydroph_interaction:PHE:76    NaN
hydroph_interaction:PHE:76     -1
Name: 61, dtype: object

>  <hbond:SER:77>  (63) 
hbond:SER:77    NaN
hbond:SER:77     -1
Name: 61, dtype: object

>  <hbond:SER:80>  (63) 
hbond:SER:80    NaN
hbond:SER:80     -1
Name: 61, dtype: object

>  <hbond:LEU:81>  (63) 
hbond:LEU:81    NaN
hbond:LEU:81     -1
Name: 61, dtype: object

>  <halogenbond:LEU:81>  (63) 
halogenbond:LEU:81    NaN
halogenbond:LEU:81     -1
Name: 61, dtype: object

>  <hydroph_interaction:LEU:81>  (63) 
hydroph_interaction:LEU:81    NaN
hydroph_interaction:LEU:81     -1
Name: 61, dtype: object

>  <hydroph_interaction:ILE:82>  (63) 
hydroph_interaction:ILE:82    NaN
hydroph_interaction:ILE:82     -1
Name: 61, dtype: object

>  <halogenbond:ILE:82>  (63) 
halogenbond:ILE:82    NaN
halogenbond:ILE:82     -1
Name: 61, dtype: object

>  <hbond:ILE:82>  (63) 
hbond:ILE:82    NaN
hbond:ILE:82     -1
Name: 61, dtype: object

>  <hbond:PHE:83>  (63) 
hbond:PHE:83    NaN
hbond:PHE:83     -1
Name: 61, dtype: object

>  <hydroph_interaction:PHE:83>  (63) 
hydroph_interaction:PHE:83    NaN
hydroph_interaction:PHE:83     -1
Name: 61, dtype: object

>  <halogenbond:PHE:83>  (63) 
halogenbond:PHE:83    NaN
halogenbond:PHE:83     -1
Name: 61, dtype: object

>  <pistack:PHE:83>  (63) 
pistack:PHE:83    NaN
pistack:PHE:83     -1
Name: 61, dtype: object

>  <pication:PHE:83>  (63) 
pication:PHE:83    NaN
pication:PHE:83     -1
Name: 61, dtype: object

>  <hydroph_interaction:VAL:84>  (63) 
hydroph_interaction:VAL:84    0.0
hydroph_interaction:VAL:84      0
Name: 61, dtype: object

>  <halogenbond:VAL:84>  (63) 
halogenbond:VAL:84    NaN
halogenbond:VAL:84     -1
Name: 61, dtype: object

>  <hbond:VAL:84>  (63) 
hbond:VAL:84    NaN
hbond:VAL:84     -1
Name: 61, dtype: object

>  <hydroph_interaction:GLU:85>  (63) 
hydroph_interaction:GLU:85    NaN
hydroph_interaction:GLU:85     -1
Name: 61, dtype: object

>  <hbond:GLU:85>  (63) 
hbond:GLU:85    NaN
hbond:GLU:85     -1
Name: 61, dtype: object

>  <halogenbond:GLU:85>  (63) 
halogenbond:GLU:85    NaN
halogenbond:GLU:85     -1
Name: 61, dtype: object

>  <saltbridge:GLU:85>  (63) 
saltbridge:GLU:85    NaN
saltbridge:GLU:85     -1
Name: 61, dtype: object

>  <halogenbond:ALA:86>  (63) 
halogenbond:ALA:86    NaN
halogenbond:ALA:86     -1
Name: 61, dtype: object

>  <hbond:ALA:86>  (63) 
hbond:ALA:86    NaN
hbond:ALA:86     -1
Name: 61, dtype: object

>  <hydroph_interaction:ALA:86>  (63) 
hydroph_interaction:ALA:86    NaN
hydroph_interaction:ALA:86     -1
Name: 61, dtype: object

>  <hbond:SER:87>  (63) 
hbond:SER:87    2
hbond:SER:87    2
Name: 61, dtype: object

>  <halogenbond:SER:87>  (63) 
halogenbond:SER:87    NaN
halogenbond:SER:87     -1
Name: 61, dtype: object

>  <hbond:GLU:88>  (63) 
hbond:GLU:88    0.0
hbond:GLU:88      0
Name: 61, dtype: object

>  <hydroph_interaction:GLU:88>  (63) 
hydroph_interaction:GLU:88    NaN
hydroph_interaction:GLU:88     -1
Name: 61, dtype: object

>  <halogenbond:GLU:88>  (63) 
halogenbond:GLU:88    NaN
halogenbond:GLU:88     -1
Name: 61, dtype: object

>  <saltbridge:GLU:88>  (63) 
saltbridge:GLU:88    NaN
saltbridge:GLU:88     -1
Name: 61, dtype: object

>  <hydroph_interaction:TYR:89>  (63) 
hydroph_interaction:TYR:89    0.0
hydroph_interaction:TYR:89      0
Name: 61, dtype: object

>  <pistack:TYR:89>  (63) 
pistack:TYR:89    NaN
pistack:TYR:89     -1
Name: 61, dtype: object

>  <hbond:TYR:89>  (63) 
hbond:TYR:89    NaN
hbond:TYR:89     -1
Name: 61, dtype: object

>  <halogenbond:TYR:89>  (63) 
halogenbond:TYR:89    NaN
halogenbond:TYR:89     -1
Name: 61, dtype: object

>  <hydroph_interaction:TYR:90>  (63) 
hydroph_interaction:TYR:90    0.0
hydroph_interaction:TYR:90      0
Name: 61, dtype: object

>  <hbond:TYR:90>  (63) 
hbond:TYR:90    0.0
hbond:TYR:90      0
Name: 61, dtype: object

>  <pistack:TYR:90>  (63) 
pistack:TYR:90    NaN
pistack:TYR:90     -1
Name: 61, dtype: object

>  <halogenbond:TYR:90>  (63) 
halogenbond:TYR:90    NaN
halogenbond:TYR:90     -1
Name: 61, dtype: object

>  <pication:TYR:90>  (63) 
pication:TYR:90    NaN
pication:TYR:90     -1
Name: 61, dtype: object

>  <hbond:PRO:91>  (63) 
hbond:PRO:91    NaN
hbond:PRO:91     -1
Name: 61, dtype: object

>  <hydroph_interaction:PRO:91>  (63) 
hydroph_interaction:PRO:91    NaN
hydroph_interaction:PRO:91     -1
Name: 61, dtype: object

>  <halogenbond:PRO:91>  (63) 
halogenbond:PRO:91    NaN
halogenbond:PRO:91     -1
Name: 61, dtype: object

>  <hbond:ALA:92>  (63) 
hbond:ALA:92    NaN
hbond:ALA:92     -1
Name: 61, dtype: object

>  <hydroph_interaction:ALA:92>  (63) 
hydroph_interaction:ALA:92    NaN
hydroph_interaction:ALA:92     -1
Name: 61, dtype: object

>  <saltbridge:ARG:93>  (63) 
saltbridge:ARG:93    NaN
saltbridge:ARG:93     -1
Name: 61, dtype: object

>  <hbond:ARG:93>  (63) 
hbond:ARG:93    NaN
hbond:ARG:93     -1
Name: 61, dtype: object

>  <hydroph_interaction:ARG:93>  (63) 
hydroph_interaction:ARG:93    NaN
hydroph_interaction:ARG:93     -1
Name: 61, dtype: object

>  <halogenbond:ARG:93>  (63) 
halogenbond:ARG:93    NaN
halogenbond:ARG:93     -1
Name: 61, dtype: object

>  <pication:ARG:93>  (63) 
pication:ARG:93    NaN
pication:ARG:93     -1
Name: 61, dtype: object

>  <hydroph_interaction:TYR:94>  (63) 
hydroph_interaction:TYR:94    NaN
hydroph_interaction:TYR:94     -1
Name: 61, dtype: object

>  <pistack:TYR:94>  (63) 
pistack:TYR:94    NaN
pistack:TYR:94     -1
Name: 61, dtype: object

>  <hbond:TYR:94>  (63) 
hbond:TYR:94    NaN
hbond:TYR:94     -1
Name: 61, dtype: object

>  <hbond:GLN:95>  (63) 
hbond:GLN:95    NaN
hbond:GLN:95     -1
Name: 61, dtype: object

>  <hydroph_interaction:GLN:95>  (63) 
hydroph_interaction:GLN:95    NaN
hydroph_interaction:GLN:95     -1
Name: 61, dtype: object

>  <halogenbond:GLN:95>  (63) 
halogenbond:GLN:95    NaN
halogenbond:GLN:95     -1
Name: 61, dtype: object

>  <hbond:SER:96>  (63) 
hbond:SER:96    NaN
hbond:SER:96     -1
Name: 61, dtype: object

>  <halogenbond:HIS:97>  (63) 
halogenbond:HIS:97    NaN
halogenbond:HIS:97     -1
Name: 61, dtype: object

>  <hydroph_interaction:LEU:98>  (63) 
hydroph_interaction:LEU:98    NaN
hydroph_interaction:LEU:98     -1
Name: 61, dtype: object

>  <hbond:LEU:98>  (63) 
hbond:LEU:98    NaN
hbond:LEU:98     -1
Name: 61, dtype: object

>  <halogenbond:LEU:98>  (63) 
halogenbond:LEU:98    NaN
halogenbond:LEU:98     -1
Name: 61, dtype: object

>  <hbond:MET:99>  (63) 
hbond:MET:99    NaN
hbond:MET:99     -1
Name: 61, dtype: object

>  <hydroph_interaction:MET:99>  (63) 
hydroph_interaction:MET:99    NaN
hydroph_interaction:MET:99     -1
Name: 61, dtype: object

>  <halogenbond:MET:99>  (63) 
halogenbond:MET:99    NaN
halogenbond:MET:99     -1
Name: 61, dtype: object

>  <hydroph_interaction:LEU:100>  (63) 
hydroph_interaction:LEU:100    NaN
hydroph_interaction:LEU:100     -1
Name: 61, dtype: object

>  <hbond:LEU:100>  (63) 
hbond:LEU:100    NaN
hbond:LEU:100     -1
Name: 61, dtype: object

>  <hbond:ALA:101>  (63) 
hbond:ALA:101    NaN
hbond:ALA:101     -1
Name: 61, dtype: object

>  <hydroph_interaction:ALA:101>  (63) 
hydroph_interaction:ALA:101    NaN
hydroph_interaction:ALA:101     -1
Name: 61, dtype: object

>  <hydroph_interaction:VAL:102>  (63) 
hydroph_interaction:VAL:102    NaN
hydroph_interaction:VAL:102     -1
Name: 61, dtype: object

>  <hbond:VAL:102>  (63) 
hbond:VAL:102    NaN
hbond:VAL:102     -1
Name: 61, dtype: object

>  <hbond:GLY:103>  (63) 
hbond:GLY:103    NaN
hbond:GLY:103     -1
Name: 61, dtype: object

>  <halogenbond:GLY:103>  (63) 
halogenbond:GLY:103    NaN
halogenbond:GLY:103     -1
Name: 61, dtype: object

>  <hbond:HIS:104>  (63) 
hbond:HIS:104    NaN
hbond:HIS:104     -1
Name: 61, dtype: object

>  <saltbridge:HIS:104>  (63) 
saltbridge:HIS:104    NaN
saltbridge:HIS:104     -1
Name: 61, dtype: object

>  <pication:HIS:104>  (63) 
pication:HIS:104    NaN
pication:HIS:104     -1
Name: 61, dtype: object

>  <halogenbond:HIS:104>  (63) 
halogenbond:HIS:104    NaN
halogenbond:HIS:104     -1
Name: 61, dtype: object

>  <hydroph_interaction:HIS:104>  (63) 
hydroph_interaction:HIS:104    NaN
hydroph_interaction:HIS:104     -1
Name: 61, dtype: object

>  <pistack:HIS:104>  (63) 
pistack:HIS:104    NaN
pistack:HIS:104     -1
Name: 61, dtype: object

>  <halogenbond:SER:105>  (63) 
halogenbond:SER:105    0.0
halogenbond:SER:105      0
Name: 61, dtype: object

>  <hbond:SER:105>  (63) 
hbond:SER:105    0.0
hbond:SER:105      0
Name: 61, dtype: object

>  <hbond:GLU:106>  (63) 
hbond:GLU:106    0.0
hbond:GLU:106      0
Name: 61, dtype: object

>  <hydroph_interaction:GLU:106>  (63) 
hydroph_interaction:GLU:106    0.0
hydroph_interaction:GLU:106      0
Name: 61, dtype: object

>  <saltbridge:GLU:106>  (63) 
saltbridge:GLU:106    NaN
saltbridge:GLU:106     -1
Name: 61, dtype: object

>  <halogenbond:GLU:106>  (63) 
halogenbond:GLU:106    NaN
halogenbond:GLU:106     -1
Name: 61, dtype: object

>  <hydroph_interaction:PRO:107>  (63) 
hydroph_interaction:PRO:107    0
hydroph_interaction:PRO:107    0
Name: 61, dtype: object

>  <hbond:PRO:107>  (63) 
hbond:PRO:107    0.0
hbond:PRO:107      0
Name: 61, dtype: object

>  <halogenbond:PRO:107>  (63) 
halogenbond:PRO:107    NaN
halogenbond:PRO:107     -1
Name: 61, dtype: object

>  <hbond:GLY:108>  (63) 
hbond:GLY:108    NaN
hbond:GLY:108     -1
Name: 61, dtype: object

>  <halogenbond:GLY:108>  (63) 
halogenbond:GLY:108    NaN
halogenbond:GLY:108     -1
Name: 61, dtype: object

>  <hbond:ASP:109>  (63) 
hbond:ASP:109    0.0
hbond:ASP:109      0
Name: 61, dtype: object

>  <hydroph_interaction:ASP:109>  (63) 
hydroph_interaction:ASP:109    0.0
hydroph_interaction:ASP:109      0
Name: 61, dtype: object

>  <saltbridge:ASP:109>  (63) 
saltbridge:ASP:109    NaN
saltbridge:ASP:109     -1
Name: 61, dtype: object

>  <halogenbond:CYS:110>  (63) 
halogenbond:CYS:110    NaN
halogenbond:CYS:110     -1
Name: 61, dtype: object

>  <hbond:CYS:110>  (63) 
hbond:CYS:110    0.0
hbond:CYS:110      0
Name: 61, dtype: object

>  <hbond:GLY:111>  (63) 
hbond:GLY:111    NaN
hbond:GLY:111     -1
Name: 61, dtype: object

>  <hbond:GLY:112>  (63) 
hbond:GLY:112    NaN
hbond:GLY:112     -1
Name: 61, dtype: object

>  <hbond:ILE:113>  (63) 
hbond:ILE:113    NaN
hbond:ILE:113     -1
Name: 61, dtype: object

>  <hydroph_interaction:LEU:114>  (63) 
hydroph_interaction:LEU:114    NaN
hydroph_interaction:LEU:114     -1
Name: 61, dtype: object

>  <hbond:LEU:114>  (63) 
hbond:LEU:114    NaN
hbond:LEU:114     -1
Name: 61, dtype: object

>  <hydroph_interaction:ILE:123>  (63) 
hydroph_interaction:ILE:123    NaN
hydroph_interaction:ILE:123     -1
Name: 61, dtype: object

>  <hbond:ILE:123>  (63) 
hbond:ILE:123    NaN
hbond:ILE:123     -1
Name: 61, dtype: object

>  <hydroph_interaction:VAL:124>  (63) 
hydroph_interaction:VAL:124    1.0
hydroph_interaction:VAL:124      1
Name: 61, dtype: object

>  <hbond:VAL:124>  (63) 
hbond:VAL:124    0.0
hbond:VAL:124      0
Name: 61, dtype: object

>  <halogenbond:VAL:124>  (63) 
halogenbond:VAL:124    NaN
halogenbond:VAL:124     -1
Name: 61, dtype: object

>  <hbond:SER:125>  (63) 
hbond:SER:125    1
hbond:SER:125    1
Name: 61, dtype: object

>  <halogenbond:SER:125>  (63) 
halogenbond:SER:125    0.0
halogenbond:SER:125      0
Name: 61, dtype: object

>  <hydroph_interaction:THR:126>  (63) 
hydroph_interaction:THR:126    0.0
hydroph_interaction:THR:126      0
Name: 61, dtype: object

>  <hbond:THR:126>  (63) 
hbond:THR:126    0.0
hbond:THR:126      0
Name: 61, dtype: object

>  <halogenbond:THR:126>  (63) 
halogenbond:THR:126    NaN
halogenbond:THR:126     -1
Name: 61, dtype: object

>  <hbond:GLY:127>  (63) 
hbond:GLY:127    1
hbond:GLY:127    1
Name: 61, dtype: object

>  <halogenbond:GLY:127>  (63) 
halogenbond:GLY:127    NaN
halogenbond:GLY:127     -1
Name: 61, dtype: object

>  <hydroph_interaction:GLY:127>  (63) 
hydroph_interaction:GLY:127    NaN
hydroph_interaction:GLY:127     -1
Name: 61, dtype: object

>  <hbond:GLY:128>  (63) 
hbond:GLY:128    NaN
hbond:GLY:128     -1
Name: 61, dtype: object

>  <halogenbond:GLY:128>  (63) 
halogenbond:GLY:128    NaN
halogenbond:GLY:128     -1
Name: 61, dtype: object

>  <hydroph_interaction:GLY:128>  (63) 
hydroph_interaction:GLY:128    NaN
hydroph_interaction:GLY:128     -1
Name: 61, dtype: object

>  <hbond:ASN:129>  (63) 
hbond:ASN:129    NaN
hbond:ASN:129     -1
Name: 61, dtype: object

>  <hydroph_interaction:ASN:129>  (63) 
hydroph_interaction:ASN:129    NaN
hydroph_interaction:ASN:129     -1
Name: 61, dtype: object

>  <halogenbond:ASN:129>  (63) 
halogenbond:ASN:129    NaN
halogenbond:ASN:129     -1
Name: 61, dtype: object

>  <hbond:GLY:130>  (63) 
hbond:GLY:130    NaN
hbond:GLY:130     -1
Name: 61, dtype: object

>  <hbond:LEU:131>  (63) 
hbond:LEU:131    NaN
hbond:LEU:131     -1
Name: 61, dtype: object

>  <hydroph_interaction:LEU:131>  (63) 
hydroph_interaction:LEU:131    NaN
hydroph_interaction:LEU:131     -1
Name: 61, dtype: object

>  <halogenbond:LEU:131>  (63) 
halogenbond:LEU:131    NaN
halogenbond:LEU:131     -1
Name: 61, dtype: object

>  <hydroph_interaction:VAL:132>  (63) 
hydroph_interaction:VAL:132    0.0
hydroph_interaction:VAL:132      0
Name: 61, dtype: object

>  <hbond:VAL:132>  (63) 
hbond:VAL:132    NaN
hbond:VAL:132     -1
Name: 61, dtype: object

>  <hbond:GLY:133>  (63) 
hbond:GLY:133    0.0
hbond:GLY:133      0
Name: 61, dtype: object

>  <halogenbond:GLY:133>  (63) 
halogenbond:GLY:133    NaN
halogenbond:GLY:133     -1
Name: 61, dtype: object

>  <hydroph_interaction:PHE:134>  (63) 
hydroph_interaction:PHE:134    NaN
hydroph_interaction:PHE:134     -1
Name: 61, dtype: object

>  <hbond:PHE:134>  (63) 
hbond:PHE:134    NaN
hbond:PHE:134     -1
Name: 61, dtype: object

>  <pistack:PHE:134>  (63) 
pistack:PHE:134    NaN
pistack:PHE:134     -1
Name: 61, dtype: object

>  <pication:PHE:134>  (63) 
pication:PHE:134    NaN
pication:PHE:134     -1
Name: 61, dtype: object

>  <halogenbond:PHE:134>  (63) 
halogenbond:PHE:134    NaN
halogenbond:PHE:134     -1
Name: 61, dtype: object

>  <hydroph_interaction:ALA:135>  (63) 
hydroph_interaction:ALA:135    NaN
hydroph_interaction:ALA:135     -1
Name: 61, dtype: object

>  <hbond:ALA:135>  (63) 
hbond:ALA:135    NaN
hbond:ALA:135     -1
Name: 61, dtype: object

$$$$
Z1462143294
     RDKit          3D

 13 13  0  0  0  0  0  0  0  0999 V2000
   30.1640   13.8427    4.7270 C   0  0  0  0  0  0  0  0  0  0  0  0
   29.2089   14.0622    5.7790 N   0  0  0  0  0  0  0  0  0  0  0  0
   29.5399   13.6903    7.0797 C   0  0  0  0  0  0  0  0  0  0  0  0
   28.5407   13.9525    8.3823 S   0  0  0  0  0  0  0  0  0  0  0  0
   30.7992   13.0948    7.1265 N   0  0  0  0  0  0  0  0  0  0  0  0
   31.1576   11.7429    7.2572 C   0  0  0  0  0  0  0  0  0  0  0  0
   32.1969   11.3195    6.4437 C   0  0  0  0  0  0  0  0  0  0  0  0
   32.6480    9.9254    6.4752 C   0  0  0  0  0  0  0  0  0  0  0  0
   33.6946    9.5102    5.6529 C   0  0  0  0  0  0  0  0  0  0  0  0
   32.0022    9.0491    7.3438 C   0  0  0  0  0  0  0  0  0  0  0  0
   30.9678    9.4978    8.1625 C   0  0  0  0  0  0  0  0  0  0  0  0
   30.3745    8.6330    8.9959 F   0  0  0  0  0  0  0  0  0  0  0  0
   30.5453   10.8246    8.1257 C   0  0  0  0  0  0  0  0  0  0  0  0
  1  2  1  0
  2  3  1  0
  3  4  2  0
  3  5  1  0
  5  6  1  0
  6  7  2  0
  7  8  1  0
  8  9  1  0
  8 10  2  0
 10 11  1  0
 11 12  1  0
 11 13  2  0
 13  6  1  0
A    1
 C1 
A    2
 N1 
A    3
 C2 
A    4
 S1 
A    5
 N2 
A    6
 C3 
A    7
 C4 
A    8
 C5 
A    9
 C6 
A   10
 C7 
A   11
 C8 
A   12
 F1 
A   13
 C9 
M  END
>  <ref_pdb>  (64) 
Ax0310a

>  <ref_mols>  (64) 
Ax0451a,Ax0739a

>  <original SMILES>  (64) 
CNC(=S)Nc1cc(C)cc(F)c1

>  <rationale>  (64) 
info halogenbond:G127+D39+E85+Q95+E106+E88+T126+P107+H104+Y64+C65+S87+N129+F83+R93+L131+I82+G128+P91+N19+H21+V84+G133+Y90+Y89+H97+L81+F134+L98+R20+G103+S66+S67+S7+G108+R38+V124+M99+S36; hbond:S87+E88+Q95+D39+A86+E85+G108+G103+G128+G130+L131+N129+N19+H104+R68+R93+P91+F83+S67+S7+S66+G112+G133+V132+R20+Y89+S77+A135+Y63+A92+A101+M99+F134+L100+I82+Y64+S36+L98+V84+L81+Y94+S80+R38+S37+V102+G8+I123+G111+I113+L114+C65+L22+S96; hydroph_interaction:H21+P107+L22+E85+E106+N129+D39+N19+L40+I123+A135+Q95+I82+L100+L98+L131+F83+R93+V132+Y63+F134+H104+R20+A86+V74+P91+A101+F76+M99+L114+A92+Y94+R68+Y72+Y64+V18+V102+W28+G127+G128+L81; pication:H21+H104+R93+Y63+F134+Y90+R68+F83+R20; pistack:H21+Y89+Y90+H104+F134+Y63+F83+Y94; saltbridge:D39+R93+H104+E106+D109+E85+E88+R68+R20; 

>  <intxn_cluster>  (64) 
-1

>  <intxn_cluster_rank>  (64) 
-1

>  <N_interactions>  (64) 
5

>  <∆∆G>  (64) 
-7.783468

>  <$/mg>  (64) 
163.0

>  <comRMSD>  (64) 
0.794548

>  <N_rotatable_bonds>  (64) 
3

>  <deep_P1_sidechain>  (64) 
nan

>  <farthest_distance_to_substrate>  (64) 
2.605786

>  <hbond:SER:7>  (64) 
hbond:SER:7    NaN
hbond:SER:7     -1
Name: 62, dtype: object

>  <halogenbond:SER:7>  (64) 
halogenbond:SER:7    NaN
halogenbond:SER:7     -1
Name: 62, dtype: object

>  <hbond:GLY:8>  (64) 
hbond:GLY:8    NaN
hbond:GLY:8     -1
Name: 62, dtype: object

>  <hydroph_interaction:VAL:18>  (64) 
hydroph_interaction:VAL:18    NaN
hydroph_interaction:VAL:18     -1
Name: 62, dtype: object

>  <hbond:ASN:19>  (64) 
hbond:ASN:19    NaN
hbond:ASN:19     -1
Name: 62, dtype: object

>  <hydroph_interaction:ASN:19>  (64) 
hydroph_interaction:ASN:19    NaN
hydroph_interaction:ASN:19     -1
Name: 62, dtype: object

>  <halogenbond:ASN:19>  (64) 
halogenbond:ASN:19    NaN
halogenbond:ASN:19     -1
Name: 62, dtype: object

>  <hbond:ARG:20>  (64) 
hbond:ARG:20    NaN
hbond:ARG:20     -1
Name: 62, dtype: object

>  <hydroph_interaction:ARG:20>  (64) 
hydroph_interaction:ARG:20    NaN
hydroph_interaction:ARG:20     -1
Name: 62, dtype: object

>  <saltbridge:ARG:20>  (64) 
saltbridge:ARG:20    NaN
saltbridge:ARG:20     -1
Name: 62, dtype: object

>  <halogenbond:ARG:20>  (64) 
halogenbond:ARG:20    NaN
halogenbond:ARG:20     -1
Name: 62, dtype: object

>  <pication:ARG:20>  (64) 
pication:ARG:20    NaN
pication:ARG:20     -1
Name: 62, dtype: object

>  <hbond:HIS:21>  (64) 
hbond:HIS:21    0.0
hbond:HIS:21      0
Name: 62, dtype: object

>  <hydroph_interaction:HIS:21>  (64) 
hydroph_interaction:HIS:21    NaN
hydroph_interaction:HIS:21     -1
Name: 62, dtype: object

>  <pistack:HIS:21>  (64) 
pistack:HIS:21    NaN
pistack:HIS:21     -1
Name: 62, dtype: object

>  <pication:HIS:21>  (64) 
pication:HIS:21    NaN
pication:HIS:21     -1
Name: 62, dtype: object

>  <saltbridge:HIS:21>  (64) 
saltbridge:HIS:21    0.0
saltbridge:HIS:21      0
Name: 62, dtype: object

>  <halogenbond:HIS:21>  (64) 
halogenbond:HIS:21    NaN
halogenbond:HIS:21     -1
Name: 62, dtype: object

>  <hydroph_interaction:LEU:22>  (64) 
hydroph_interaction:LEU:22    NaN
hydroph_interaction:LEU:22     -1
Name: 62, dtype: object

>  <hbond:LEU:22>  (64) 
hbond:LEU:22    NaN
hbond:LEU:22     -1
Name: 62, dtype: object

>  <hydroph_interaction:TRP:28>  (64) 
hydroph_interaction:TRP:28    NaN
hydroph_interaction:TRP:28     -1
Name: 62, dtype: object

>  <hbond:SER:36>  (64) 
hbond:SER:36    NaN
hbond:SER:36     -1
Name: 62, dtype: object

>  <halogenbond:SER:36>  (64) 
halogenbond:SER:36    NaN
halogenbond:SER:36     -1
Name: 62, dtype: object

>  <hbond:SER:37>  (64) 
hbond:SER:37    NaN
hbond:SER:37     -1
Name: 62, dtype: object

>  <hbond:ARG:38>  (64) 
hbond:ARG:38    NaN
hbond:ARG:38     -1
Name: 62, dtype: object

>  <halogenbond:ARG:38>  (64) 
halogenbond:ARG:38    NaN
halogenbond:ARG:38     -1
Name: 62, dtype: object

>  <saltbridge:ASP:39>  (64) 
saltbridge:ASP:39    NaN
saltbridge:ASP:39     -1
Name: 62, dtype: object

>  <halogenbond:ASP:39>  (64) 
halogenbond:ASP:39    NaN
halogenbond:ASP:39     -1
Name: 62, dtype: object

>  <hbond:ASP:39>  (64) 
hbond:ASP:39    NaN
hbond:ASP:39     -1
Name: 62, dtype: object

>  <hydroph_interaction:ASP:39>  (64) 
hydroph_interaction:ASP:39    NaN
hydroph_interaction:ASP:39     -1
Name: 62, dtype: object

>  <hydroph_interaction:LEU:40>  (64) 
hydroph_interaction:LEU:40    NaN
hydroph_interaction:LEU:40     -1
Name: 62, dtype: object

>  <hydroph_interaction:TYR:63>  (64) 
hydroph_interaction:TYR:63    NaN
hydroph_interaction:TYR:63     -1
Name: 62, dtype: object

>  <hbond:TYR:63>  (64) 
hbond:TYR:63    NaN
hbond:TYR:63     -1
Name: 62, dtype: object

>  <pistack:TYR:63>  (64) 
pistack:TYR:63    NaN
pistack:TYR:63     -1
Name: 62, dtype: object

>  <pication:TYR:63>  (64) 
pication:TYR:63    NaN
pication:TYR:63     -1
Name: 62, dtype: object

>  <halogenbond:TYR:64>  (64) 
halogenbond:TYR:64    NaN
halogenbond:TYR:64     -1
Name: 62, dtype: object

>  <hbond:TYR:64>  (64) 
hbond:TYR:64    NaN
hbond:TYR:64     -1
Name: 62, dtype: object

>  <hydroph_interaction:TYR:64>  (64) 
hydroph_interaction:TYR:64    NaN
hydroph_interaction:TYR:64     -1
Name: 62, dtype: object

>  <halogenbond:CYS:65>  (64) 
halogenbond:CYS:65    NaN
halogenbond:CYS:65     -1
Name: 62, dtype: object

>  <hbond:CYS:65>  (64) 
hbond:CYS:65    NaN
hbond:CYS:65     -1
Name: 62, dtype: object

>  <hbond:SER:66>  (64) 
hbond:SER:66    NaN
hbond:SER:66     -1
Name: 62, dtype: object

>  <halogenbond:SER:66>  (64) 
halogenbond:SER:66    NaN
halogenbond:SER:66     -1
Name: 62, dtype: object

>  <hbond:SER:67>  (64) 
hbond:SER:67    NaN
hbond:SER:67     -1
Name: 62, dtype: object

>  <halogenbond:SER:67>  (64) 
halogenbond:SER:67    NaN
halogenbond:SER:67     -1
Name: 62, dtype: object

>  <hbond:ARG:68>  (64) 
hbond:ARG:68    NaN
hbond:ARG:68     -1
Name: 62, dtype: object

>  <saltbridge:ARG:68>  (64) 
saltbridge:ARG:68    NaN
saltbridge:ARG:68     -1
Name: 62, dtype: object

>  <hydroph_interaction:ARG:68>  (64) 
hydroph_interaction:ARG:68    NaN
hydroph_interaction:ARG:68     -1
Name: 62, dtype: object

>  <pication:ARG:68>  (64) 
pication:ARG:68    NaN
pication:ARG:68     -1
Name: 62, dtype: object

>  <hydroph_interaction:TYR:72>  (64) 
hydroph_interaction:TYR:72    NaN
hydroph_interaction:TYR:72     -1
Name: 62, dtype: object

>  <hydroph_interaction:VAL:74>  (64) 
hydroph_interaction:VAL:74    NaN
hydroph_interaction:VAL:74     -1
Name: 62, dtype: object

>  <hydroph_interaction:PHE:76>  (64) 
hydroph_interaction:PHE:76    NaN
hydroph_interaction:PHE:76     -1
Name: 62, dtype: object

>  <hbond:SER:77>  (64) 
hbond:SER:77    NaN
hbond:SER:77     -1
Name: 62, dtype: object

>  <hbond:SER:80>  (64) 
hbond:SER:80    NaN
hbond:SER:80     -1
Name: 62, dtype: object

>  <hbond:LEU:81>  (64) 
hbond:LEU:81    NaN
hbond:LEU:81     -1
Name: 62, dtype: object

>  <halogenbond:LEU:81>  (64) 
halogenbond:LEU:81    NaN
halogenbond:LEU:81     -1
Name: 62, dtype: object

>  <hydroph_interaction:LEU:81>  (64) 
hydroph_interaction:LEU:81    NaN
hydroph_interaction:LEU:81     -1
Name: 62, dtype: object

>  <hydroph_interaction:ILE:82>  (64) 
hydroph_interaction:ILE:82    NaN
hydroph_interaction:ILE:82     -1
Name: 62, dtype: object

>  <halogenbond:ILE:82>  (64) 
halogenbond:ILE:82    NaN
halogenbond:ILE:82     -1
Name: 62, dtype: object

>  <hbond:ILE:82>  (64) 
hbond:ILE:82    NaN
hbond:ILE:82     -1
Name: 62, dtype: object

>  <hbond:PHE:83>  (64) 
hbond:PHE:83    NaN
hbond:PHE:83     -1
Name: 62, dtype: object

>  <hydroph_interaction:PHE:83>  (64) 
hydroph_interaction:PHE:83    NaN
hydroph_interaction:PHE:83     -1
Name: 62, dtype: object

>  <halogenbond:PHE:83>  (64) 
halogenbond:PHE:83    NaN
halogenbond:PHE:83     -1
Name: 62, dtype: object

>  <pistack:PHE:83>  (64) 
pistack:PHE:83    NaN
pistack:PHE:83     -1
Name: 62, dtype: object

>  <pication:PHE:83>  (64) 
pication:PHE:83    NaN
pication:PHE:83     -1
Name: 62, dtype: object

>  <hydroph_interaction:VAL:84>  (64) 
hydroph_interaction:VAL:84    0.0
hydroph_interaction:VAL:84      0
Name: 62, dtype: object

>  <halogenbond:VAL:84>  (64) 
halogenbond:VAL:84    NaN
halogenbond:VAL:84     -1
Name: 62, dtype: object

>  <hbond:VAL:84>  (64) 
hbond:VAL:84    NaN
hbond:VAL:84     -1
Name: 62, dtype: object

>  <hydroph_interaction:GLU:85>  (64) 
hydroph_interaction:GLU:85    NaN
hydroph_interaction:GLU:85     -1
Name: 62, dtype: object

>  <hbond:GLU:85>  (64) 
hbond:GLU:85    NaN
hbond:GLU:85     -1
Name: 62, dtype: object

>  <halogenbond:GLU:85>  (64) 
halogenbond:GLU:85    NaN
halogenbond:GLU:85     -1
Name: 62, dtype: object

>  <saltbridge:GLU:85>  (64) 
saltbridge:GLU:85    NaN
saltbridge:GLU:85     -1
Name: 62, dtype: object

>  <halogenbond:ALA:86>  (64) 
halogenbond:ALA:86    0.0
halogenbond:ALA:86      0
Name: 62, dtype: object

>  <hbond:ALA:86>  (64) 
hbond:ALA:86    NaN
hbond:ALA:86     -1
Name: 62, dtype: object

>  <hydroph_interaction:ALA:86>  (64) 
hydroph_interaction:ALA:86    NaN
hydroph_interaction:ALA:86     -1
Name: 62, dtype: object

>  <hbond:SER:87>  (64) 
hbond:SER:87    2
hbond:SER:87    2
Name: 62, dtype: object

>  <halogenbond:SER:87>  (64) 
halogenbond:SER:87    NaN
halogenbond:SER:87     -1
Name: 62, dtype: object

>  <hbond:GLU:88>  (64) 
hbond:GLU:88    2.0
hbond:GLU:88      2
Name: 62, dtype: object

>  <hydroph_interaction:GLU:88>  (64) 
hydroph_interaction:GLU:88    0.0
hydroph_interaction:GLU:88      0
Name: 62, dtype: object

>  <halogenbond:GLU:88>  (64) 
halogenbond:GLU:88    NaN
halogenbond:GLU:88     -1
Name: 62, dtype: object

>  <saltbridge:GLU:88>  (64) 
saltbridge:GLU:88    NaN
saltbridge:GLU:88     -1
Name: 62, dtype: object

>  <hydroph_interaction:TYR:89>  (64) 
hydroph_interaction:TYR:89    0.0
hydroph_interaction:TYR:89      0
Name: 62, dtype: object

>  <pistack:TYR:89>  (64) 
pistack:TYR:89    NaN
pistack:TYR:89     -1
Name: 62, dtype: object

>  <hbond:TYR:89>  (64) 
hbond:TYR:89    NaN
hbond:TYR:89     -1
Name: 62, dtype: object

>  <halogenbond:TYR:89>  (64) 
halogenbond:TYR:89    NaN
halogenbond:TYR:89     -1
Name: 62, dtype: object

>  <hydroph_interaction:TYR:90>  (64) 
hydroph_interaction:TYR:90    0.0
hydroph_interaction:TYR:90      0
Name: 62, dtype: object

>  <hbond:TYR:90>  (64) 
hbond:TYR:90    0.0
hbond:TYR:90      0
Name: 62, dtype: object

>  <pistack:TYR:90>  (64) 
pistack:TYR:90    NaN
pistack:TYR:90     -1
Name: 62, dtype: object

>  <halogenbond:TYR:90>  (64) 
halogenbond:TYR:90    NaN
halogenbond:TYR:90     -1
Name: 62, dtype: object

>  <pication:TYR:90>  (64) 
pication:TYR:90    NaN
pication:TYR:90     -1
Name: 62, dtype: object

>  <hbond:PRO:91>  (64) 
hbond:PRO:91    NaN
hbond:PRO:91     -1
Name: 62, dtype: object

>  <hydroph_interaction:PRO:91>  (64) 
hydroph_interaction:PRO:91    NaN
hydroph_interaction:PRO:91     -1
Name: 62, dtype: object

>  <halogenbond:PRO:91>  (64) 
halogenbond:PRO:91    NaN
halogenbond:PRO:91     -1
Name: 62, dtype: object

>  <hbond:ALA:92>  (64) 
hbond:ALA:92    NaN
hbond:ALA:92     -1
Name: 62, dtype: object

>  <hydroph_interaction:ALA:92>  (64) 
hydroph_interaction:ALA:92    NaN
hydroph_interaction:ALA:92     -1
Name: 62, dtype: object

>  <saltbridge:ARG:93>  (64) 
saltbridge:ARG:93    NaN
saltbridge:ARG:93     -1
Name: 62, dtype: object

>  <hbond:ARG:93>  (64) 
hbond:ARG:93    NaN
hbond:ARG:93     -1
Name: 62, dtype: object

>  <hydroph_interaction:ARG:93>  (64) 
hydroph_interaction:ARG:93    NaN
hydroph_interaction:ARG:93     -1
Name: 62, dtype: object

>  <halogenbond:ARG:93>  (64) 
halogenbond:ARG:93    NaN
halogenbond:ARG:93     -1
Name: 62, dtype: object

>  <pication:ARG:93>  (64) 
pication:ARG:93    NaN
pication:ARG:93     -1
Name: 62, dtype: object

>  <hydroph_interaction:TYR:94>  (64) 
hydroph_interaction:TYR:94    NaN
hydroph_interaction:TYR:94     -1
Name: 62, dtype: object

>  <pistack:TYR:94>  (64) 
pistack:TYR:94    NaN
pistack:TYR:94     -1
Name: 62, dtype: object

>  <hbond:TYR:94>  (64) 
hbond:TYR:94    NaN
hbond:TYR:94     -1
Name: 62, dtype: object

>  <hbond:GLN:95>  (64) 
hbond:GLN:95    NaN
hbond:GLN:95     -1
Name: 62, dtype: object

>  <hydroph_interaction:GLN:95>  (64) 
hydroph_interaction:GLN:95    NaN
hydroph_interaction:GLN:95     -1
Name: 62, dtype: object

>  <halogenbond:GLN:95>  (64) 
halogenbond:GLN:95    NaN
halogenbond:GLN:95     -1
Name: 62, dtype: object

>  <hbond:SER:96>  (64) 
hbond:SER:96    NaN
hbond:SER:96     -1
Name: 62, dtype: object

>  <halogenbond:HIS:97>  (64) 
halogenbond:HIS:97    NaN
halogenbond:HIS:97     -1
Name: 62, dtype: object

>  <hydroph_interaction:LEU:98>  (64) 
hydroph_interaction:LEU:98    NaN
hydroph_interaction:LEU:98     -1
Name: 62, dtype: object

>  <hbond:LEU:98>  (64) 
hbond:LEU:98    NaN
hbond:LEU:98     -1
Name: 62, dtype: object

>  <halogenbond:LEU:98>  (64) 
halogenbond:LEU:98    NaN
halogenbond:LEU:98     -1
Name: 62, dtype: object

>  <hbond:MET:99>  (64) 
hbond:MET:99    NaN
hbond:MET:99     -1
Name: 62, dtype: object

>  <hydroph_interaction:MET:99>  (64) 
hydroph_interaction:MET:99    NaN
hydroph_interaction:MET:99     -1
Name: 62, dtype: object

>  <halogenbond:MET:99>  (64) 
halogenbond:MET:99    NaN
halogenbond:MET:99     -1
Name: 62, dtype: object

>  <hydroph_interaction:LEU:100>  (64) 
hydroph_interaction:LEU:100    NaN
hydroph_interaction:LEU:100     -1
Name: 62, dtype: object

>  <hbond:LEU:100>  (64) 
hbond:LEU:100    NaN
hbond:LEU:100     -1
Name: 62, dtype: object

>  <hbond:ALA:101>  (64) 
hbond:ALA:101    NaN
hbond:ALA:101     -1
Name: 62, dtype: object

>  <hydroph_interaction:ALA:101>  (64) 
hydroph_interaction:ALA:101    NaN
hydroph_interaction:ALA:101     -1
Name: 62, dtype: object

>  <hydroph_interaction:VAL:102>  (64) 
hydroph_interaction:VAL:102    NaN
hydroph_interaction:VAL:102     -1
Name: 62, dtype: object

>  <hbond:VAL:102>  (64) 
hbond:VAL:102    NaN
hbond:VAL:102     -1
Name: 62, dtype: object

>  <hbond:GLY:103>  (64) 
hbond:GLY:103    NaN
hbond:GLY:103     -1
Name: 62, dtype: object

>  <halogenbond:GLY:103>  (64) 
halogenbond:GLY:103    NaN
halogenbond:GLY:103     -1
Name: 62, dtype: object

>  <hbond:HIS:104>  (64) 
hbond:HIS:104    NaN
hbond:HIS:104     -1
Name: 62, dtype: object

>  <saltbridge:HIS:104>  (64) 
saltbridge:HIS:104    NaN
saltbridge:HIS:104     -1
Name: 62, dtype: object

>  <pication:HIS:104>  (64) 
pication:HIS:104    NaN
pication:HIS:104     -1
Name: 62, dtype: object

>  <halogenbond:HIS:104>  (64) 
halogenbond:HIS:104    NaN
halogenbond:HIS:104     -1
Name: 62, dtype: object

>  <hydroph_interaction:HIS:104>  (64) 
hydroph_interaction:HIS:104    NaN
hydroph_interaction:HIS:104     -1
Name: 62, dtype: object

>  <pistack:HIS:104>  (64) 
pistack:HIS:104    NaN
pistack:HIS:104     -1
Name: 62, dtype: object

>  <halogenbond:SER:105>  (64) 
halogenbond:SER:105    0.0
halogenbond:SER:105      0
Name: 62, dtype: object

>  <hbond:SER:105>  (64) 
hbond:SER:105    0.0
hbond:SER:105      0
Name: 62, dtype: object

>  <hbond:GLU:106>  (64) 
hbond:GLU:106    0.0
hbond:GLU:106      0
Name: 62, dtype: object

>  <hydroph_interaction:GLU:106>  (64) 
hydroph_interaction:GLU:106    NaN
hydroph_interaction:GLU:106     -1
Name: 62, dtype: object

>  <saltbridge:GLU:106>  (64) 
saltbridge:GLU:106    NaN
saltbridge:GLU:106     -1
Name: 62, dtype: object

>  <halogenbond:GLU:106>  (64) 
halogenbond:GLU:106    NaN
halogenbond:GLU:106     -1
Name: 62, dtype: object

>  <hydroph_interaction:PRO:107>  (64) 
hydroph_interaction:PRO:107    1
hydroph_interaction:PRO:107    1
Name: 62, dtype: object

>  <hbond:PRO:107>  (64) 
hbond:PRO:107    0.0
hbond:PRO:107      0
Name: 62, dtype: object

>  <halogenbond:PRO:107>  (64) 
halogenbond:PRO:107    NaN
halogenbond:PRO:107     -1
Name: 62, dtype: object

>  <hbond:GLY:108>  (64) 
hbond:GLY:108    NaN
hbond:GLY:108     -1
Name: 62, dtype: object

>  <halogenbond:GLY:108>  (64) 
halogenbond:GLY:108    NaN
halogenbond:GLY:108     -1
Name: 62, dtype: object

>  <hbond:ASP:109>  (64) 
hbond:ASP:109    0.0
hbond:ASP:109      0
Name: 62, dtype: object

>  <hydroph_interaction:ASP:109>  (64) 
hydroph_interaction:ASP:109    0.0
hydroph_interaction:ASP:109      0
Name: 62, dtype: object

>  <saltbridge:ASP:109>  (64) 
saltbridge:ASP:109    NaN
saltbridge:ASP:109     -1
Name: 62, dtype: object

>  <halogenbond:CYS:110>  (64) 
halogenbond:CYS:110    0.0
halogenbond:CYS:110      0
Name: 62, dtype: object

>  <hbond:CYS:110>  (64) 
hbond:CYS:110    0.0
hbond:CYS:110      0
Name: 62, dtype: object

>  <hbond:GLY:111>  (64) 
hbond:GLY:111    NaN
hbond:GLY:111     -1
Name: 62, dtype: object

>  <hbond:GLY:112>  (64) 
hbond:GLY:112    NaN
hbond:GLY:112     -1
Name: 62, dtype: object

>  <hbond:ILE:113>  (64) 
hbond:ILE:113    NaN
hbond:ILE:113     -1
Name: 62, dtype: object

>  <hydroph_interaction:LEU:114>  (64) 
hydroph_interaction:LEU:114    NaN
hydroph_interaction:LEU:114     -1
Name: 62, dtype: object

>  <hbond:LEU:114>  (64) 
hbond:LEU:114    NaN
hbond:LEU:114     -1
Name: 62, dtype: object

>  <hydroph_interaction:ILE:123>  (64) 
hydroph_interaction:ILE:123    NaN
hydroph_interaction:ILE:123     -1
Name: 62, dtype: object

>  <hbond:ILE:123>  (64) 
hbond:ILE:123    NaN
hbond:ILE:123     -1
Name: 62, dtype: object

>  <hydroph_interaction:VAL:124>  (64) 
hydroph_interaction:VAL:124    0.0
hydroph_interaction:VAL:124      0
Name: 62, dtype: object

>  <hbond:VAL:124>  (64) 
hbond:VAL:124    0.0
hbond:VAL:124      0
Name: 62, dtype: object

>  <halogenbond:VAL:124>  (64) 
halogenbond:VAL:124    NaN
halogenbond:VAL:124     -1
Name: 62, dtype: object

>  <hbond:SER:125>  (64) 
hbond:SER:125    0
hbond:SER:125    0
Name: 62, dtype: object

>  <halogenbond:SER:125>  (64) 
halogenbond:SER:125    0.0
halogenbond:SER:125      0
Name: 62, dtype: object

>  <hydroph_interaction:THR:126>  (64) 
hydroph_interaction:THR:126    0.0
hydroph_interaction:THR:126      0
Name: 62, dtype: object

>  <hbond:THR:126>  (64) 
hbond:THR:126    0.0
hbond:THR:126      0
Name: 62, dtype: object

>  <halogenbond:THR:126>  (64) 
halogenbond:THR:126    NaN
halogenbond:THR:126     -1
Name: 62, dtype: object

>  <hbond:GLY:127>  (64) 
hbond:GLY:127    0
hbond:GLY:127    0
Name: 62, dtype: object

>  <halogenbond:GLY:127>  (64) 
halogenbond:GLY:127    NaN
halogenbond:GLY:127     -1
Name: 62, dtype: object

>  <hydroph_interaction:GLY:127>  (64) 
hydroph_interaction:GLY:127    NaN
hydroph_interaction:GLY:127     -1
Name: 62, dtype: object

>  <hbond:GLY:128>  (64) 
hbond:GLY:128    NaN
hbond:GLY:128     -1
Name: 62, dtype: object

>  <halogenbond:GLY:128>  (64) 
halogenbond:GLY:128    NaN
halogenbond:GLY:128     -1
Name: 62, dtype: object

>  <hydroph_interaction:GLY:128>  (64) 
hydroph_interaction:GLY:128    NaN
hydroph_interaction:GLY:128     -1
Name: 62, dtype: object

>  <hbond:ASN:129>  (64) 
hbond:ASN:129    NaN
hbond:ASN:129     -1
Name: 62, dtype: object

>  <hydroph_interaction:ASN:129>  (64) 
hydroph_interaction:ASN:129    NaN
hydroph_interaction:ASN:129     -1
Name: 62, dtype: object

>  <halogenbond:ASN:129>  (64) 
halogenbond:ASN:129    NaN
halogenbond:ASN:129     -1
Name: 62, dtype: object

>  <hbond:GLY:130>  (64) 
hbond:GLY:130    NaN
hbond:GLY:130     -1
Name: 62, dtype: object

>  <hbond:LEU:131>  (64) 
hbond:LEU:131    NaN
hbond:LEU:131     -1
Name: 62, dtype: object

>  <hydroph_interaction:LEU:131>  (64) 
hydroph_interaction:LEU:131    NaN
hydroph_interaction:LEU:131     -1
Name: 62, dtype: object

>  <halogenbond:LEU:131>  (64) 
halogenbond:LEU:131    NaN
halogenbond:LEU:131     -1
Name: 62, dtype: object

>  <hydroph_interaction:VAL:132>  (64) 
hydroph_interaction:VAL:132    NaN
hydroph_interaction:VAL:132     -1
Name: 62, dtype: object

>  <hbond:VAL:132>  (64) 
hbond:VAL:132    NaN
hbond:VAL:132     -1
Name: 62, dtype: object

>  <hbond:GLY:133>  (64) 
hbond:GLY:133    NaN
hbond:GLY:133     -1
Name: 62, dtype: object

>  <halogenbond:GLY:133>  (64) 
halogenbond:GLY:133    NaN
halogenbond:GLY:133     -1
Name: 62, dtype: object

>  <hydroph_interaction:PHE:134>  (64) 
hydroph_interaction:PHE:134    NaN
hydroph_interaction:PHE:134     -1
Name: 62, dtype: object

>  <hbond:PHE:134>  (64) 
hbond:PHE:134    NaN
hbond:PHE:134     -1
Name: 62, dtype: object

>  <pistack:PHE:134>  (64) 
pistack:PHE:134    NaN
pistack:PHE:134     -1
Name: 62, dtype: object

>  <pication:PHE:134>  (64) 
pication:PHE:134    NaN
pication:PHE:134     -1
Name: 62, dtype: object

>  <halogenbond:PHE:134>  (64) 
halogenbond:PHE:134    NaN
halogenbond:PHE:134     -1
Name: 62, dtype: object

>  <hydroph_interaction:ALA:135>  (64) 
hydroph_interaction:ALA:135    NaN
hydroph_interaction:ALA:135     -1
Name: 62, dtype: object

>  <hbond:ALA:135>  (64) 
hbond:ALA:135    NaN
hbond:ALA:135     -1
Name: 62, dtype: object

$$$$
Z2518855390
     RDKit          3D

 17 18  0  0  0  0  0  0  0  0999 V2000
   30.7998    8.2297    8.3261 C   0  0  0  0  0  0  0  0  0  0  0  0
   31.1462    9.5128    7.8417 N   0  0  0  0  0  0  0  0  0  0  0  0
   32.0485    9.8078    6.8600 C   0  0  0  0  0  0  0  0  0  0  0  0
   32.0580   11.1765    6.7273 C   0  0  0  0  0  0  0  0  0  0  0  0
   31.1288   11.6928    7.6708 C   0  0  0  0  0  0  0  0  0  0  0  0
   30.6991   12.9570    8.0449 C   0  0  0  0  0  0  0  0  0  0  0  0
   29.3916   13.3244    7.5457 N   0  0  0  0  0  0  0  0  0  0  0  0
   28.4121   13.6524    8.3054 C   0  0  0  0  0  0  0  0  0  0  0  0
   28.3685   13.7217    9.6648 N   0  0  0  0  0  0  0  0  0  0  0  0
   27.1779   14.0064    7.8758 N   0  0  0  0  0  0  0  0  0  0  0  0
   26.0401   13.1902    7.7524 C   0  0  0  0  0  0  0  0  0  0  0  0
   25.7122   12.6480    6.5021 C   0  0  0  0  0  0  0  0  0  0  0  0
   24.5877   11.8355    6.3372 C   0  0  0  0  0  0  0  0  0  0  0  0
   23.7613   11.5420    7.3977 C   0  0  0  0  0  0  0  0  0  0  0  0
   24.0798   12.0732    8.6370 C   0  0  0  0  0  0  0  0  0  0  0  0
   25.1992   12.8822    8.8139 C   0  0  0  0  0  0  0  0  0  0  0  0
   30.5808   10.6274    8.3325 C   0  0  0  0  0  0  0  0  0  0  0  0
  1  2  1  0
  2  3  1  0
  3  4  2  0
  4  5  1  0
  5  6  1  0
  6  7  1  0
  7  8  2  3
  8  9  1  0
  8 10  1  0
 10 11  1  0
 11 12  2  0
 12 13  1  0
 13 14  2  0
 14 15  1  0
 15 16  2  0
  5 17  2  0
 17  2  1  0
 16 11  1  0
A    1
 C1 
A    2
 N1 
A    3
 C2 
A    4
 C3 
A    5
 C4 
A    6
 C5 
A    7
 N2 
A    8
 C6 
A    9
 N3 
A   10
 N4 
A   11
 C7 
A   12
 C8 
A   13
 C9 
A   14
 C10
A   15
 C11
A   16
 C12
A   17
 C13
M  END
>  <ref_pdb>  (65) 
Ax0310a

>  <ref_mols>  (65) 
Ax0451a,Ax0416a

>  <original SMILES>  (65) 
Cn1ccc(CN=C(N)Nc2ccccc2)c1

>  <rationale>  (65) 
info halogenbond:C110+G127+D39+S125+E85+E106+T126+P107+H104+Y64+C65+S87+N129+F83+R93+L131+I82+G128+P91+N19+H21+V84+G133+Y90+Y89+H97+L81+F134+L98+R20+G103+S66+S67+S7+G108+R38+V124+M99+S36; hbond:S87+E88+Y90+P107+Q95+D39+C110+D109+E85+G108+G103+G128+G130+L131+N129+H104+R68+V124+P91+F83+S67+S7+S66+G112+G133+V132+R20+Y89+S77+A135+Y63+A92+A101+M99+F134+L100+I82+Y64+S36+L98+V84+L81+Y94+S80+R38+S37+V102+G8+I123+G111+I113+L114+C65+L22+S96; hydroph_interaction:Y89+H21+L22+D109+N129+N19+L40+I123+A135+Q95+I82+L100+L98+L131+F83+V132+Y63+F134+H104+V74+P91+A101+F76+M99+L114+A92+Y94+R68+Y72+Y64+V18+V102+W28+G127+G128+L81; pication:H104+R93+Y63+F134+Y90+R68+F83+R20; pistack:H104+F134+Y63+F83+Y94; saltbridge:R93+H104+E106+D109+E85+R68+R20; 

>  <intxn_cluster>  (65) 
-1

>  <intxn_cluster_rank>  (65) 
-1

>  <N_interactions>  (65) 
7

>  <∆∆G>  (65) 
-10.436666

>  <$/mg>  (65) 
163.0

>  <comRMSD>  (65) 
0.865565

>  <N_rotatable_bonds>  (65) 
4

>  <deep_P1_sidechain>  (65) 
nan

>  <farthest_distance_to_substrate>  (65) 
2.695935

>  <hbond:SER:7>  (65) 
hbond:SER:7    NaN
hbond:SER:7     -1
Name: 63, dtype: object

>  <halogenbond:SER:7>  (65) 
halogenbond:SER:7    NaN
halogenbond:SER:7     -1
Name: 63, dtype: object

>  <hbond:GLY:8>  (65) 
hbond:GLY:8    NaN
hbond:GLY:8     -1
Name: 63, dtype: object

>  <hydroph_interaction:VAL:18>  (65) 
hydroph_interaction:VAL:18    NaN
hydroph_interaction:VAL:18     -1
Name: 63, dtype: object

>  <hbond:ASN:19>  (65) 
hbond:ASN:19    0.0
hbond:ASN:19      0
Name: 63, dtype: object

>  <hydroph_interaction:ASN:19>  (65) 
hydroph_interaction:ASN:19    1.0
hydroph_interaction:ASN:19      1
Name: 63, dtype: object

>  <halogenbond:ASN:19>  (65) 
halogenbond:ASN:19    NaN
halogenbond:ASN:19     -1
Name: 63, dtype: object

>  <hbond:ARG:20>  (65) 
hbond:ARG:20    NaN
hbond:ARG:20     -1
Name: 63, dtype: object

>  <hydroph_interaction:ARG:20>  (65) 
hydroph_interaction:ARG:20    0.0
hydroph_interaction:ARG:20      0
Name: 63, dtype: object

>  <saltbridge:ARG:20>  (65) 
saltbridge:ARG:20    NaN
saltbridge:ARG:20     -1
Name: 63, dtype: object

>  <halogenbond:ARG:20>  (65) 
halogenbond:ARG:20    NaN
halogenbond:ARG:20     -1
Name: 63, dtype: object

>  <pication:ARG:20>  (65) 
pication:ARG:20    NaN
pication:ARG:20     -1
Name: 63, dtype: object

>  <hbond:HIS:21>  (65) 
hbond:HIS:21    0.0
hbond:HIS:21      0
Name: 63, dtype: object

>  <hydroph_interaction:HIS:21>  (65) 
hydroph_interaction:HIS:21    1.0
hydroph_interaction:HIS:21      1
Name: 63, dtype: object

>  <pistack:HIS:21>  (65) 
pistack:HIS:21    0.0
pistack:HIS:21      0
Name: 63, dtype: object

>  <pication:HIS:21>  (65) 
pication:HIS:21    0.0
pication:HIS:21      0
Name: 63, dtype: object

>  <saltbridge:HIS:21>  (65) 
saltbridge:HIS:21    0.0
saltbridge:HIS:21      0
Name: 63, dtype: object

>  <halogenbond:HIS:21>  (65) 
halogenbond:HIS:21    NaN
halogenbond:HIS:21     -1
Name: 63, dtype: object

>  <hydroph_interaction:LEU:22>  (65) 
hydroph_interaction:LEU:22    1.0
hydroph_interaction:LEU:22      1
Name: 63, dtype: object

>  <hbond:LEU:22>  (65) 
hbond:LEU:22    NaN
hbond:LEU:22     -1
Name: 63, dtype: object

>  <hydroph_interaction:TRP:28>  (65) 
hydroph_interaction:TRP:28    NaN
hydroph_interaction:TRP:28     -1
Name: 63, dtype: object

>  <hbond:SER:36>  (65) 
hbond:SER:36    NaN
hbond:SER:36     -1
Name: 63, dtype: object

>  <halogenbond:SER:36>  (65) 
halogenbond:SER:36    NaN
halogenbond:SER:36     -1
Name: 63, dtype: object

>  <hbond:SER:37>  (65) 
hbond:SER:37    NaN
hbond:SER:37     -1
Name: 63, dtype: object

>  <hbond:ARG:38>  (65) 
hbond:ARG:38    NaN
hbond:ARG:38     -1
Name: 63, dtype: object

>  <halogenbond:ARG:38>  (65) 
halogenbond:ARG:38    NaN
halogenbond:ARG:38     -1
Name: 63, dtype: object

>  <saltbridge:ASP:39>  (65) 
saltbridge:ASP:39    0.0
saltbridge:ASP:39      0
Name: 63, dtype: object

>  <halogenbond:ASP:39>  (65) 
halogenbond:ASP:39    NaN
halogenbond:ASP:39     -1
Name: 63, dtype: object

>  <hbond:ASP:39>  (65) 
hbond:ASP:39    1.0
hbond:ASP:39      1
Name: 63, dtype: object

>  <hydroph_interaction:ASP:39>  (65) 
hydroph_interaction:ASP:39    0.0
hydroph_interaction:ASP:39      0
Name: 63, dtype: object

>  <hydroph_interaction:LEU:40>  (65) 
hydroph_interaction:LEU:40    NaN
hydroph_interaction:LEU:40     -1
Name: 63, dtype: object

>  <hydroph_interaction:TYR:63>  (65) 
hydroph_interaction:TYR:63    NaN
hydroph_interaction:TYR:63     -1
Name: 63, dtype: object

>  <hbond:TYR:63>  (65) 
hbond:TYR:63    NaN
hbond:TYR:63     -1
Name: 63, dtype: object

>  <pistack:TYR:63>  (65) 
pistack:TYR:63    NaN
pistack:TYR:63     -1
Name: 63, dtype: object

>  <pication:TYR:63>  (65) 
pication:TYR:63    NaN
pication:TYR:63     -1
Name: 63, dtype: object

>  <halogenbond:TYR:64>  (65) 
halogenbond:TYR:64    NaN
halogenbond:TYR:64     -1
Name: 63, dtype: object

>  <hbond:TYR:64>  (65) 
hbond:TYR:64    NaN
hbond:TYR:64     -1
Name: 63, dtype: object

>  <hydroph_interaction:TYR:64>  (65) 
hydroph_interaction:TYR:64    NaN
hydroph_interaction:TYR:64     -1
Name: 63, dtype: object

>  <halogenbond:CYS:65>  (65) 
halogenbond:CYS:65    NaN
halogenbond:CYS:65     -1
Name: 63, dtype: object

>  <hbond:CYS:65>  (65) 
hbond:CYS:65    NaN
hbond:CYS:65     -1
Name: 63, dtype: object

>  <hbond:SER:66>  (65) 
hbond:SER:66    NaN
hbond:SER:66     -1
Name: 63, dtype: object

>  <halogenbond:SER:66>  (65) 
halogenbond:SER:66    NaN
halogenbond:SER:66     -1
Name: 63, dtype: object

>  <hbond:SER:67>  (65) 
hbond:SER:67    NaN
hbond:SER:67     -1
Name: 63, dtype: object

>  <halogenbond:SER:67>  (65) 
halogenbond:SER:67    NaN
halogenbond:SER:67     -1
Name: 63, dtype: object

>  <hbond:ARG:68>  (65) 
hbond:ARG:68    NaN
hbond:ARG:68     -1
Name: 63, dtype: object

>  <saltbridge:ARG:68>  (65) 
saltbridge:ARG:68    NaN
saltbridge:ARG:68     -1
Name: 63, dtype: object

>  <hydroph_interaction:ARG:68>  (65) 
hydroph_interaction:ARG:68    NaN
hydroph_interaction:ARG:68     -1
Name: 63, dtype: object

>  <pication:ARG:68>  (65) 
pication:ARG:68    NaN
pication:ARG:68     -1
Name: 63, dtype: object

>  <hydroph_interaction:TYR:72>  (65) 
hydroph_interaction:TYR:72    NaN
hydroph_interaction:TYR:72     -1
Name: 63, dtype: object

>  <hydroph_interaction:VAL:74>  (65) 
hydroph_interaction:VAL:74    NaN
hydroph_interaction:VAL:74     -1
Name: 63, dtype: object

>  <hydroph_interaction:PHE:76>  (65) 
hydroph_interaction:PHE:76    NaN
hydroph_interaction:PHE:76     -1
Name: 63, dtype: object

>  <hbond:SER:77>  (65) 
hbond:SER:77    NaN
hbond:SER:77     -1
Name: 63, dtype: object

>  <hbond:SER:80>  (65) 
hbond:SER:80    NaN
hbond:SER:80     -1
Name: 63, dtype: object

>  <hbond:LEU:81>  (65) 
hbond:LEU:81    NaN
hbond:LEU:81     -1
Name: 63, dtype: object

>  <halogenbond:LEU:81>  (65) 
halogenbond:LEU:81    NaN
halogenbond:LEU:81     -1
Name: 63, dtype: object

>  <hydroph_interaction:LEU:81>  (65) 
hydroph_interaction:LEU:81    NaN
hydroph_interaction:LEU:81     -1
Name: 63, dtype: object

>  <hydroph_interaction:ILE:82>  (65) 
hydroph_interaction:ILE:82    NaN
hydroph_interaction:ILE:82     -1
Name: 63, dtype: object

>  <halogenbond:ILE:82>  (65) 
halogenbond:ILE:82    NaN
halogenbond:ILE:82     -1
Name: 63, dtype: object

>  <hbond:ILE:82>  (65) 
hbond:ILE:82    NaN
hbond:ILE:82     -1
Name: 63, dtype: object

>  <hbond:PHE:83>  (65) 
hbond:PHE:83    NaN
hbond:PHE:83     -1
Name: 63, dtype: object

>  <hydroph_interaction:PHE:83>  (65) 
hydroph_interaction:PHE:83    NaN
hydroph_interaction:PHE:83     -1
Name: 63, dtype: object

>  <halogenbond:PHE:83>  (65) 
halogenbond:PHE:83    NaN
halogenbond:PHE:83     -1
Name: 63, dtype: object

>  <pistack:PHE:83>  (65) 
pistack:PHE:83    NaN
pistack:PHE:83     -1
Name: 63, dtype: object

>  <pication:PHE:83>  (65) 
pication:PHE:83    NaN
pication:PHE:83     -1
Name: 63, dtype: object

>  <hydroph_interaction:VAL:84>  (65) 
hydroph_interaction:VAL:84    0.0
hydroph_interaction:VAL:84      0
Name: 63, dtype: object

>  <halogenbond:VAL:84>  (65) 
halogenbond:VAL:84    NaN
halogenbond:VAL:84     -1
Name: 63, dtype: object

>  <hbond:VAL:84>  (65) 
hbond:VAL:84    NaN
hbond:VAL:84     -1
Name: 63, dtype: object

>  <hydroph_interaction:GLU:85>  (65) 
hydroph_interaction:GLU:85    0.0
hydroph_interaction:GLU:85      0
Name: 63, dtype: object

>  <hbond:GLU:85>  (65) 
hbond:GLU:85    NaN
hbond:GLU:85     -1
Name: 63, dtype: object

>  <halogenbond:GLU:85>  (65) 
halogenbond:GLU:85    NaN
halogenbond:GLU:85     -1
Name: 63, dtype: object

>  <saltbridge:GLU:85>  (65) 
saltbridge:GLU:85    NaN
saltbridge:GLU:85     -1
Name: 63, dtype: object

>  <halogenbond:ALA:86>  (65) 
halogenbond:ALA:86    0.0
halogenbond:ALA:86      0
Name: 63, dtype: object

>  <hbond:ALA:86>  (65) 
hbond:ALA:86    0.0
hbond:ALA:86      0
Name: 63, dtype: object

>  <hydroph_interaction:ALA:86>  (65) 
hydroph_interaction:ALA:86    0.0
hydroph_interaction:ALA:86      0
Name: 63, dtype: object

>  <hbond:SER:87>  (65) 
hbond:SER:87    1
hbond:SER:87    1
Name: 63, dtype: object

>  <halogenbond:SER:87>  (65) 
halogenbond:SER:87    NaN
halogenbond:SER:87     -1
Name: 63, dtype: object

>  <hbond:GLU:88>  (65) 
hbond:GLU:88    1.0
hbond:GLU:88      1
Name: 63, dtype: object

>  <hydroph_interaction:GLU:88>  (65) 
hydroph_interaction:GLU:88    0.0
hydroph_interaction:GLU:88      0
Name: 63, dtype: object

>  <halogenbond:GLU:88>  (65) 
halogenbond:GLU:88    0.0
halogenbond:GLU:88      0
Name: 63, dtype: object

>  <saltbridge:GLU:88>  (65) 
saltbridge:GLU:88    0.0
saltbridge:GLU:88      0
Name: 63, dtype: object

>  <hydroph_interaction:TYR:89>  (65) 
hydroph_interaction:TYR:89    1.0
hydroph_interaction:TYR:89      1
Name: 63, dtype: object

>  <pistack:TYR:89>  (65) 
pistack:TYR:89    0.0
pistack:TYR:89      0
Name: 63, dtype: object

>  <hbond:TYR:89>  (65) 
hbond:TYR:89    NaN
hbond:TYR:89     -1
Name: 63, dtype: object

>  <halogenbond:TYR:89>  (65) 
halogenbond:TYR:89    NaN
halogenbond:TYR:89     -1
Name: 63, dtype: object

>  <hydroph_interaction:TYR:90>  (65) 
hydroph_interaction:TYR:90    0.0
hydroph_interaction:TYR:90      0
Name: 63, dtype: object

>  <hbond:TYR:90>  (65) 
hbond:TYR:90    NaN
hbond:TYR:90     -1
Name: 63, dtype: object

>  <pistack:TYR:90>  (65) 
pistack:TYR:90    0.0
pistack:TYR:90      0
Name: 63, dtype: object

>  <halogenbond:TYR:90>  (65) 
halogenbond:TYR:90    NaN
halogenbond:TYR:90     -1
Name: 63, dtype: object

>  <pication:TYR:90>  (65) 
pication:TYR:90    NaN
pication:TYR:90     -1
Name: 63, dtype: object

>  <hbond:PRO:91>  (65) 
hbond:PRO:91    NaN
hbond:PRO:91     -1
Name: 63, dtype: object

>  <hydroph_interaction:PRO:91>  (65) 
hydroph_interaction:PRO:91    NaN
hydroph_interaction:PRO:91     -1
Name: 63, dtype: object

>  <halogenbond:PRO:91>  (65) 
halogenbond:PRO:91    NaN
halogenbond:PRO:91     -1
Name: 63, dtype: object

>  <hbond:ALA:92>  (65) 
hbond:ALA:92    NaN
hbond:ALA:92     -1
Name: 63, dtype: object

>  <hydroph_interaction:ALA:92>  (65) 
hydroph_interaction:ALA:92    NaN
hydroph_interaction:ALA:92     -1
Name: 63, dtype: object

>  <saltbridge:ARG:93>  (65) 
saltbridge:ARG:93    NaN
saltbridge:ARG:93     -1
Name: 63, dtype: object

>  <hbond:ARG:93>  (65) 
hbond:ARG:93    0.0
hbond:ARG:93      0
Name: 63, dtype: object

>  <hydroph_interaction:ARG:93>  (65) 
hydroph_interaction:ARG:93    0.0
hydroph_interaction:ARG:93      0
Name: 63, dtype: object

>  <halogenbond:ARG:93>  (65) 
halogenbond:ARG:93    NaN
halogenbond:ARG:93     -1
Name: 63, dtype: object

>  <pication:ARG:93>  (65) 
pication:ARG:93    NaN
pication:ARG:93     -1
Name: 63, dtype: object

>  <hydroph_interaction:TYR:94>  (65) 
hydroph_interaction:TYR:94    NaN
hydroph_interaction:TYR:94     -1
Name: 63, dtype: object

>  <pistack:TYR:94>  (65) 
pistack:TYR:94    NaN
pistack:TYR:94     -1
Name: 63, dtype: object

>  <hbond:TYR:94>  (65) 
hbond:TYR:94    NaN
hbond:TYR:94     -1
Name: 63, dtype: object

>  <hbond:GLN:95>  (65) 
hbond:GLN:95    NaN
hbond:GLN:95     -1
Name: 63, dtype: object

>  <hydroph_interaction:GLN:95>  (65) 
hydroph_interaction:GLN:95    NaN
hydroph_interaction:GLN:95     -1
Name: 63, dtype: object

>  <halogenbond:GLN:95>  (65) 
halogenbond:GLN:95    0.0
halogenbond:GLN:95      0
Name: 63, dtype: object

>  <hbond:SER:96>  (65) 
hbond:SER:96    NaN
hbond:SER:96     -1
Name: 63, dtype: object

>  <halogenbond:HIS:97>  (65) 
halogenbond:HIS:97    NaN
halogenbond:HIS:97     -1
Name: 63, dtype: object

>  <hydroph_interaction:LEU:98>  (65) 
hydroph_interaction:LEU:98    NaN
hydroph_interaction:LEU:98     -1
Name: 63, dtype: object

>  <hbond:LEU:98>  (65) 
hbond:LEU:98    NaN
hbond:LEU:98     -1
Name: 63, dtype: object

>  <halogenbond:LEU:98>  (65) 
halogenbond:LEU:98    NaN
halogenbond:LEU:98     -1
Name: 63, dtype: object

>  <hbond:MET:99>  (65) 
hbond:MET:99    NaN
hbond:MET:99     -1
Name: 63, dtype: object

>  <hydroph_interaction:MET:99>  (65) 
hydroph_interaction:MET:99    NaN
hydroph_interaction:MET:99     -1
Name: 63, dtype: object

>  <halogenbond:MET:99>  (65) 
halogenbond:MET:99    NaN
halogenbond:MET:99     -1
Name: 63, dtype: object

>  <hydroph_interaction:LEU:100>  (65) 
hydroph_interaction:LEU:100    NaN
hydroph_interaction:LEU:100     -1
Name: 63, dtype: object

>  <hbond:LEU:100>  (65) 
hbond:LEU:100    NaN
hbond:LEU:100     -1
Name: 63, dtype: object

>  <hbond:ALA:101>  (65) 
hbond:ALA:101    NaN
hbond:ALA:101     -1
Name: 63, dtype: object

>  <hydroph_interaction:ALA:101>  (65) 
hydroph_interaction:ALA:101    NaN
hydroph_interaction:ALA:101     -1
Name: 63, dtype: object

>  <hydroph_interaction:VAL:102>  (65) 
hydroph_interaction:VAL:102    NaN
hydroph_interaction:VAL:102     -1
Name: 63, dtype: object

>  <hbond:VAL:102>  (65) 
hbond:VAL:102    NaN
hbond:VAL:102     -1
Name: 63, dtype: object

>  <hbond:GLY:103>  (65) 
hbond:GLY:103    NaN
hbond:GLY:103     -1
Name: 63, dtype: object

>  <halogenbond:GLY:103>  (65) 
halogenbond:GLY:103    NaN
halogenbond:GLY:103     -1
Name: 63, dtype: object

>  <hbond:HIS:104>  (65) 
hbond:HIS:104    NaN
hbond:HIS:104     -1
Name: 63, dtype: object

>  <saltbridge:HIS:104>  (65) 
saltbridge:HIS:104    NaN
saltbridge:HIS:104     -1
Name: 63, dtype: object

>  <pication:HIS:104>  (65) 
pication:HIS:104    NaN
pication:HIS:104     -1
Name: 63, dtype: object

>  <halogenbond:HIS:104>  (65) 
halogenbond:HIS:104    NaN
halogenbond:HIS:104     -1
Name: 63, dtype: object

>  <hydroph_interaction:HIS:104>  (65) 
hydroph_interaction:HIS:104    NaN
hydroph_interaction:HIS:104     -1
Name: 63, dtype: object

>  <pistack:HIS:104>  (65) 
pistack:HIS:104    NaN
pistack:HIS:104     -1
Name: 63, dtype: object

>  <halogenbond:SER:105>  (65) 
halogenbond:SER:105    0.0
halogenbond:SER:105      0
Name: 63, dtype: object

>  <hbond:SER:105>  (65) 
hbond:SER:105    0.0
hbond:SER:105      0
Name: 63, dtype: object

>  <hbond:GLU:106>  (65) 
hbond:GLU:106    0.0
hbond:GLU:106      0
Name: 63, dtype: object

>  <hydroph_interaction:GLU:106>  (65) 
hydroph_interaction:GLU:106    0.0
hydroph_interaction:GLU:106      0
Name: 63, dtype: object

>  <saltbridge:GLU:106>  (65) 
saltbridge:GLU:106    NaN
saltbridge:GLU:106     -1
Name: 63, dtype: object

>  <halogenbond:GLU:106>  (65) 
halogenbond:GLU:106    NaN
halogenbond:GLU:106     -1
Name: 63, dtype: object

>  <hydroph_interaction:PRO:107>  (65) 
hydroph_interaction:PRO:107    0
hydroph_interaction:PRO:107    0
Name: 63, dtype: object

>  <hbond:PRO:107>  (65) 
hbond:PRO:107    NaN
hbond:PRO:107     -1
Name: 63, dtype: object

>  <halogenbond:PRO:107>  (65) 
halogenbond:PRO:107    NaN
halogenbond:PRO:107     -1
Name: 63, dtype: object

>  <hbond:GLY:108>  (65) 
hbond:GLY:108    NaN
hbond:GLY:108     -1
Name: 63, dtype: object

>  <halogenbond:GLY:108>  (65) 
halogenbond:GLY:108    NaN
halogenbond:GLY:108     -1
Name: 63, dtype: object

>  <hbond:ASP:109>  (65) 
hbond:ASP:109    NaN
hbond:ASP:109     -1
Name: 63, dtype: object

>  <hydroph_interaction:ASP:109>  (65) 
hydroph_interaction:ASP:109    NaN
hydroph_interaction:ASP:109     -1
Name: 63, dtype: object

>  <saltbridge:ASP:109>  (65) 
saltbridge:ASP:109    NaN
saltbridge:ASP:109     -1
Name: 63, dtype: object

>  <halogenbond:CYS:110>  (65) 
halogenbond:CYS:110    NaN
halogenbond:CYS:110     -1
Name: 63, dtype: object

>  <hbond:CYS:110>  (65) 
hbond:CYS:110    NaN
hbond:CYS:110     -1
Name: 63, dtype: object

>  <hbond:GLY:111>  (65) 
hbond:GLY:111    NaN
hbond:GLY:111     -1
Name: 63, dtype: object

>  <hbond:GLY:112>  (65) 
hbond:GLY:112    NaN
hbond:GLY:112     -1
Name: 63, dtype: object

>  <hbond:ILE:113>  (65) 
hbond:ILE:113    NaN
hbond:ILE:113     -1
Name: 63, dtype: object

>  <hydroph_interaction:LEU:114>  (65) 
hydroph_interaction:LEU:114    NaN
hydroph_interaction:LEU:114     -1
Name: 63, dtype: object

>  <hbond:LEU:114>  (65) 
hbond:LEU:114    NaN
hbond:LEU:114     -1
Name: 63, dtype: object

>  <hydroph_interaction:ILE:123>  (65) 
hydroph_interaction:ILE:123    NaN
hydroph_interaction:ILE:123     -1
Name: 63, dtype: object

>  <hbond:ILE:123>  (65) 
hbond:ILE:123    NaN
hbond:ILE:123     -1
Name: 63, dtype: object

>  <hydroph_interaction:VAL:124>  (65) 
hydroph_interaction:VAL:124    0.0
hydroph_interaction:VAL:124      0
Name: 63, dtype: object

>  <hbond:VAL:124>  (65) 
hbond:VAL:124    NaN
hbond:VAL:124     -1
Name: 63, dtype: object

>  <halogenbond:VAL:124>  (65) 
halogenbond:VAL:124    NaN
halogenbond:VAL:124     -1
Name: 63, dtype: object

>  <hbond:SER:125>  (65) 
hbond:SER:125    0
hbond:SER:125    0
Name: 63, dtype: object

>  <halogenbond:SER:125>  (65) 
halogenbond:SER:125    NaN
halogenbond:SER:125     -1
Name: 63, dtype: object

>  <hydroph_interaction:THR:126>  (65) 
hydroph_interaction:THR:126    0.0
hydroph_interaction:THR:126      0
Name: 63, dtype: object

>  <hbond:THR:126>  (65) 
hbond:THR:126    0.0
hbond:THR:126      0
Name: 63, dtype: object

>  <halogenbond:THR:126>  (65) 
halogenbond:THR:126    NaN
halogenbond:THR:126     -1
Name: 63, dtype: object

>  <hbond:GLY:127>  (65) 
hbond:GLY:127    0
hbond:GLY:127    0
Name: 63, dtype: object

>  <halogenbond:GLY:127>  (65) 
halogenbond:GLY:127    NaN
halogenbond:GLY:127     -1
Name: 63, dtype: object

>  <hydroph_interaction:GLY:127>  (65) 
hydroph_interaction:GLY:127    NaN
hydroph_interaction:GLY:127     -1
Name: 63, dtype: object

>  <hbond:GLY:128>  (65) 
hbond:GLY:128    NaN
hbond:GLY:128     -1
Name: 63, dtype: object

>  <halogenbond:GLY:128>  (65) 
halogenbond:GLY:128    NaN
halogenbond:GLY:128     -1
Name: 63, dtype: object

>  <hydroph_interaction:GLY:128>  (65) 
hydroph_interaction:GLY:128    NaN
hydroph_interaction:GLY:128     -1
Name: 63, dtype: object

>  <hbond:ASN:129>  (65) 
hbond:ASN:129    NaN
hbond:ASN:129     -1
Name: 63, dtype: object

>  <hydroph_interaction:ASN:129>  (65) 
hydroph_interaction:ASN:129    NaN
hydroph_interaction:ASN:129     -1
Name: 63, dtype: object

>  <halogenbond:ASN:129>  (65) 
halogenbond:ASN:129    NaN
halogenbond:ASN:129     -1
Name: 63, dtype: object

>  <hbond:GLY:130>  (65) 
hbond:GLY:130    NaN
hbond:GLY:130     -1
Name: 63, dtype: object

>  <hbond:LEU:131>  (65) 
hbond:LEU:131    NaN
hbond:LEU:131     -1
Name: 63, dtype: object

>  <hydroph_interaction:LEU:131>  (65) 
hydroph_interaction:LEU:131    NaN
hydroph_interaction:LEU:131     -1
Name: 63, dtype: object

>  <halogenbond:LEU:131>  (65) 
halogenbond:LEU:131    NaN
halogenbond:LEU:131     -1
Name: 63, dtype: object

>  <hydroph_interaction:VAL:132>  (65) 
hydroph_interaction:VAL:132    NaN
hydroph_interaction:VAL:132     -1
Name: 63, dtype: object

>  <hbond:VAL:132>  (65) 
hbond:VAL:132    NaN
hbond:VAL:132     -1
Name: 63, dtype: object

>  <hbond:GLY:133>  (65) 
hbond:GLY:133    NaN
hbond:GLY:133     -1
Name: 63, dtype: object

>  <halogenbond:GLY:133>  (65) 
halogenbond:GLY:133    NaN
halogenbond:GLY:133     -1
Name: 63, dtype: object

>  <hydroph_interaction:PHE:134>  (65) 
hydroph_interaction:PHE:134    NaN
hydroph_interaction:PHE:134     -1
Name: 63, dtype: object

>  <hbond:PHE:134>  (65) 
hbond:PHE:134    NaN
hbond:PHE:134     -1
Name: 63, dtype: object

>  <pistack:PHE:134>  (65) 
pistack:PHE:134    NaN
pistack:PHE:134     -1
Name: 63, dtype: object

>  <pication:PHE:134>  (65) 
pication:PHE:134    NaN
pication:PHE:134     -1
Name: 63, dtype: object

>  <halogenbond:PHE:134>  (65) 
halogenbond:PHE:134    NaN
halogenbond:PHE:134     -1
Name: 63, dtype: object

>  <hydroph_interaction:ALA:135>  (65) 
hydroph_interaction:ALA:135    NaN
hydroph_interaction:ALA:135     -1
Name: 63, dtype: object

>  <hbond:ALA:135>  (65) 
hbond:ALA:135    NaN
hbond:ALA:135     -1
Name: 63, dtype: object

$$$$
PV_002243752341
     RDKit          3D

 13 13  0  0  0  0  0  0  0  0999 V2000
   28.5331   14.6479    8.1885 C   0  0  0  0  0  0  0  0  0  0  0  0
   29.4702   13.4451    8.3339 C   0  0  0  0  0  0  0  0  0  0  0  0
   30.1137   13.1490    7.1304 N   0  0  0  0  0  0  0  0  0  0  0  0
   29.5881   13.5927    5.8837 C   0  0  0  0  0  0  0  0  0  0  0  0
   28.0890   13.7771    5.7508 C   0  0  0  0  0  0  0  0  0  0  0  0
   30.2639   13.8496    4.8892 O   0  0  0  0  0  0  0  0  0  0  0  0
   30.7868   11.9412    7.1079 C   0  0  0  0  0  0  0  0  0  0  0  0
   31.8639   11.7600    6.2363 C   0  0  0  0  0  0  0  0  0  0  0  0
   32.5109   10.5211    6.1966 C   0  0  0  0  0  0  0  0  0  0  0  0
   32.0883    9.4768    7.0146 C   0  0  0  0  0  0  0  0  0  0  0  0
   31.0452    9.6560    7.8772 C   0  0  0  0  0  0  0  0  0  0  0  0
   30.5474    8.6682    8.7456 C   0  0  0  0  0  0  0  0  0  0  0  0
   30.4160   10.8884    7.9130 C   0  0  0  0  0  0  0  0  0  0  0  0
  1  2  1  0
  2  3  1  0
  3  4  1  0
  4  5  1  0
  4  6  2  0
  3  7  1  0
  7  8  2  0
  8  9  1  0
  9 10  2  0
 10 11  1  0
 11 12  1  0
 11 13  2  0
 13  7  1  0
A    1
 C1 
A    2
 C2 
A    3
 N1 
A    4
 C3 
A    5
 C4 
A    6
 O1 
A    7
 C5 
A    8
 C6 
A    9
 C7 
A   10
 C8 
A   11
 C9 
A   12
 C10
A   13
 C11
M  END
>  <ref_pdb>  (66) 
Ax0310a

>  <ref_mols>  (66) 
Ax0310a,Ax0528a

>  <original SMILES>  (66) 
CCN(C(C)=O)c1cccc(C)c1

>  <rationale>  (66) 
info halogenbond:G127+D39+S125+E85+Q95+E106+E88+T126+P107+H104+Y64+C65+S87+N129+F83+R93+L131+I82+G128+P91+N19+H21+V84+G133+Y90+Y89+H97+L81+F134+L98+R20+G103+S66+S67+S7+G108+R38+V124+M99+S36; hbond:E88+T126+G108+G103+G128+G130+N129+H104+R68+V124+P91+F83+S67+S7+S66+G112+V132+R20+S77+A135+Y63+A92+A101+M99+F134+L100+I82+Y64+S36+L98+V84+L81+Y94+S80+S37+V102+G8+I123+G111+I113+L114+C65+L22+S96; hydroph_interaction:V124+Y89+P107+N129+N19+L40+I123+I82+L100+L131+F83+R93+Y63+F134+H104+A86+V74+P91+A101+F76+M99+L114+A92+Y94+R68+Y72+Y64+V18+V102+W28+G127+G128+L81; pication:H104+R93+Y63+F134+Y90+R68+F83+R20; pistack:Y89+Y90+H104+F134+Y63+F83+Y94; saltbridge:R93+H104+E106+D109+E85+E88+R68+R20; 

>  <intxn_cluster>  (66) 
-1

>  <intxn_cluster_rank>  (66) 
-1

>  <N_interactions>  (66) 
5

>  <∆∆G>  (66) 
-11.750901

>  <$/mg>  (66) 
163.0

>  <comRMSD>  (66) 
0.788684

>  <N_rotatable_bonds>  (66) 
5

>  <deep_P1_sidechain>  (66) 
nan

>  <farthest_distance_to_substrate>  (66) 
2.599404

>  <hbond:SER:7>  (66) 
hbond:SER:7    NaN
hbond:SER:7     -1
Name: 64, dtype: object

>  <halogenbond:SER:7>  (66) 
halogenbond:SER:7    NaN
halogenbond:SER:7     -1
Name: 64, dtype: object

>  <hbond:GLY:8>  (66) 
hbond:GLY:8    NaN
hbond:GLY:8     -1
Name: 64, dtype: object

>  <hydroph_interaction:VAL:18>  (66) 
hydroph_interaction:VAL:18    NaN
hydroph_interaction:VAL:18     -1
Name: 64, dtype: object

>  <hbond:ASN:19>  (66) 
hbond:ASN:19    0.0
hbond:ASN:19      0
Name: 64, dtype: object

>  <hydroph_interaction:ASN:19>  (66) 
hydroph_interaction:ASN:19    NaN
hydroph_interaction:ASN:19     -1
Name: 64, dtype: object

>  <halogenbond:ASN:19>  (66) 
halogenbond:ASN:19    NaN
halogenbond:ASN:19     -1
Name: 64, dtype: object

>  <hbond:ARG:20>  (66) 
hbond:ARG:20    NaN
hbond:ARG:20     -1
Name: 64, dtype: object

>  <hydroph_interaction:ARG:20>  (66) 
hydroph_interaction:ARG:20    0.0
hydroph_interaction:ARG:20      0
Name: 64, dtype: object

>  <saltbridge:ARG:20>  (66) 
saltbridge:ARG:20    NaN
saltbridge:ARG:20     -1
Name: 64, dtype: object

>  <halogenbond:ARG:20>  (66) 
halogenbond:ARG:20    NaN
halogenbond:ARG:20     -1
Name: 64, dtype: object

>  <pication:ARG:20>  (66) 
pication:ARG:20    NaN
pication:ARG:20     -1
Name: 64, dtype: object

>  <hbond:HIS:21>  (66) 
hbond:HIS:21    0.0
hbond:HIS:21      0
Name: 64, dtype: object

>  <hydroph_interaction:HIS:21>  (66) 
hydroph_interaction:HIS:21    0.0
hydroph_interaction:HIS:21      0
Name: 64, dtype: object

>  <pistack:HIS:21>  (66) 
pistack:HIS:21    0.0
pistack:HIS:21      0
Name: 64, dtype: object

>  <pication:HIS:21>  (66) 
pication:HIS:21    0.0
pication:HIS:21      0
Name: 64, dtype: object

>  <saltbridge:HIS:21>  (66) 
saltbridge:HIS:21    0.0
saltbridge:HIS:21      0
Name: 64, dtype: object

>  <halogenbond:HIS:21>  (66) 
halogenbond:HIS:21    NaN
halogenbond:HIS:21     -1
Name: 64, dtype: object

>  <hydroph_interaction:LEU:22>  (66) 
hydroph_interaction:LEU:22    0.0
hydroph_interaction:LEU:22      0
Name: 64, dtype: object

>  <hbond:LEU:22>  (66) 
hbond:LEU:22    NaN
hbond:LEU:22     -1
Name: 64, dtype: object

>  <hydroph_interaction:TRP:28>  (66) 
hydroph_interaction:TRP:28    NaN
hydroph_interaction:TRP:28     -1
Name: 64, dtype: object

>  <hbond:SER:36>  (66) 
hbond:SER:36    NaN
hbond:SER:36     -1
Name: 64, dtype: object

>  <halogenbond:SER:36>  (66) 
halogenbond:SER:36    NaN
halogenbond:SER:36     -1
Name: 64, dtype: object

>  <hbond:SER:37>  (66) 
hbond:SER:37    NaN
hbond:SER:37     -1
Name: 64, dtype: object

>  <hbond:ARG:38>  (66) 
hbond:ARG:38    0.0
hbond:ARG:38      0
Name: 64, dtype: object

>  <halogenbond:ARG:38>  (66) 
halogenbond:ARG:38    NaN
halogenbond:ARG:38     -1
Name: 64, dtype: object

>  <saltbridge:ASP:39>  (66) 
saltbridge:ASP:39    0.0
saltbridge:ASP:39      0
Name: 64, dtype: object

>  <halogenbond:ASP:39>  (66) 
halogenbond:ASP:39    NaN
halogenbond:ASP:39     -1
Name: 64, dtype: object

>  <hbond:ASP:39>  (66) 
hbond:ASP:39    0.0
hbond:ASP:39      0
Name: 64, dtype: object

>  <hydroph_interaction:ASP:39>  (66) 
hydroph_interaction:ASP:39    0.0
hydroph_interaction:ASP:39      0
Name: 64, dtype: object

>  <hydroph_interaction:LEU:40>  (66) 
hydroph_interaction:LEU:40    NaN
hydroph_interaction:LEU:40     -1
Name: 64, dtype: object

>  <hydroph_interaction:TYR:63>  (66) 
hydroph_interaction:TYR:63    NaN
hydroph_interaction:TYR:63     -1
Name: 64, dtype: object

>  <hbond:TYR:63>  (66) 
hbond:TYR:63    NaN
hbond:TYR:63     -1
Name: 64, dtype: object

>  <pistack:TYR:63>  (66) 
pistack:TYR:63    NaN
pistack:TYR:63     -1
Name: 64, dtype: object

>  <pication:TYR:63>  (66) 
pication:TYR:63    NaN
pication:TYR:63     -1
Name: 64, dtype: object

>  <halogenbond:TYR:64>  (66) 
halogenbond:TYR:64    NaN
halogenbond:TYR:64     -1
Name: 64, dtype: object

>  <hbond:TYR:64>  (66) 
hbond:TYR:64    NaN
hbond:TYR:64     -1
Name: 64, dtype: object

>  <hydroph_interaction:TYR:64>  (66) 
hydroph_interaction:TYR:64    NaN
hydroph_interaction:TYR:64     -1
Name: 64, dtype: object

>  <halogenbond:CYS:65>  (66) 
halogenbond:CYS:65    NaN
halogenbond:CYS:65     -1
Name: 64, dtype: object

>  <hbond:CYS:65>  (66) 
hbond:CYS:65    NaN
hbond:CYS:65     -1
Name: 64, dtype: object

>  <hbond:SER:66>  (66) 
hbond:SER:66    NaN
hbond:SER:66     -1
Name: 64, dtype: object

>  <halogenbond:SER:66>  (66) 
halogenbond:SER:66    NaN
halogenbond:SER:66     -1
Name: 64, dtype: object

>  <hbond:SER:67>  (66) 
hbond:SER:67    NaN
hbond:SER:67     -1
Name: 64, dtype: object

>  <halogenbond:SER:67>  (66) 
halogenbond:SER:67    NaN
halogenbond:SER:67     -1
Name: 64, dtype: object

>  <hbond:ARG:68>  (66) 
hbond:ARG:68    NaN
hbond:ARG:68     -1
Name: 64, dtype: object

>  <saltbridge:ARG:68>  (66) 
saltbridge:ARG:68    NaN
saltbridge:ARG:68     -1
Name: 64, dtype: object

>  <hydroph_interaction:ARG:68>  (66) 
hydroph_interaction:ARG:68    NaN
hydroph_interaction:ARG:68     -1
Name: 64, dtype: object

>  <pication:ARG:68>  (66) 
pication:ARG:68    NaN
pication:ARG:68     -1
Name: 64, dtype: object

>  <hydroph_interaction:TYR:72>  (66) 
hydroph_interaction:TYR:72    NaN
hydroph_interaction:TYR:72     -1
Name: 64, dtype: object

>  <hydroph_interaction:VAL:74>  (66) 
hydroph_interaction:VAL:74    NaN
hydroph_interaction:VAL:74     -1
Name: 64, dtype: object

>  <hydroph_interaction:PHE:76>  (66) 
hydroph_interaction:PHE:76    NaN
hydroph_interaction:PHE:76     -1
Name: 64, dtype: object

>  <hbond:SER:77>  (66) 
hbond:SER:77    NaN
hbond:SER:77     -1
Name: 64, dtype: object

>  <hbond:SER:80>  (66) 
hbond:SER:80    NaN
hbond:SER:80     -1
Name: 64, dtype: object

>  <hbond:LEU:81>  (66) 
hbond:LEU:81    NaN
hbond:LEU:81     -1
Name: 64, dtype: object

>  <halogenbond:LEU:81>  (66) 
halogenbond:LEU:81    NaN
halogenbond:LEU:81     -1
Name: 64, dtype: object

>  <hydroph_interaction:LEU:81>  (66) 
hydroph_interaction:LEU:81    NaN
hydroph_interaction:LEU:81     -1
Name: 64, dtype: object

>  <hydroph_interaction:ILE:82>  (66) 
hydroph_interaction:ILE:82    NaN
hydroph_interaction:ILE:82     -1
Name: 64, dtype: object

>  <halogenbond:ILE:82>  (66) 
halogenbond:ILE:82    NaN
halogenbond:ILE:82     -1
Name: 64, dtype: object

>  <hbond:ILE:82>  (66) 
hbond:ILE:82    NaN
hbond:ILE:82     -1
Name: 64, dtype: object

>  <hbond:PHE:83>  (66) 
hbond:PHE:83    NaN
hbond:PHE:83     -1
Name: 64, dtype: object

>  <hydroph_interaction:PHE:83>  (66) 
hydroph_interaction:PHE:83    NaN
hydroph_interaction:PHE:83     -1
Name: 64, dtype: object

>  <halogenbond:PHE:83>  (66) 
halogenbond:PHE:83    NaN
halogenbond:PHE:83     -1
Name: 64, dtype: object

>  <pistack:PHE:83>  (66) 
pistack:PHE:83    NaN
pistack:PHE:83     -1
Name: 64, dtype: object

>  <pication:PHE:83>  (66) 
pication:PHE:83    NaN
pication:PHE:83     -1
Name: 64, dtype: object

>  <hydroph_interaction:VAL:84>  (66) 
hydroph_interaction:VAL:84    0.0
hydroph_interaction:VAL:84      0
Name: 64, dtype: object

>  <halogenbond:VAL:84>  (66) 
halogenbond:VAL:84    NaN
halogenbond:VAL:84     -1
Name: 64, dtype: object

>  <hbond:VAL:84>  (66) 
hbond:VAL:84    NaN
hbond:VAL:84     -1
Name: 64, dtype: object

>  <hydroph_interaction:GLU:85>  (66) 
hydroph_interaction:GLU:85    0.0
hydroph_interaction:GLU:85      0
Name: 64, dtype: object

>  <hbond:GLU:85>  (66) 
hbond:GLU:85    0.0
hbond:GLU:85      0
Name: 64, dtype: object

>  <halogenbond:GLU:85>  (66) 
halogenbond:GLU:85    NaN
halogenbond:GLU:85     -1
Name: 64, dtype: object

>  <saltbridge:GLU:85>  (66) 
saltbridge:GLU:85    NaN
saltbridge:GLU:85     -1
Name: 64, dtype: object

>  <halogenbond:ALA:86>  (66) 
halogenbond:ALA:86    0.0
halogenbond:ALA:86      0
Name: 64, dtype: object

>  <hbond:ALA:86>  (66) 
hbond:ALA:86    0.0
hbond:ALA:86      0
Name: 64, dtype: object

>  <hydroph_interaction:ALA:86>  (66) 
hydroph_interaction:ALA:86    NaN
hydroph_interaction:ALA:86     -1
Name: 64, dtype: object

>  <hbond:SER:87>  (66) 
hbond:SER:87    0
hbond:SER:87    0
Name: 64, dtype: object

>  <halogenbond:SER:87>  (66) 
halogenbond:SER:87    NaN
halogenbond:SER:87     -1
Name: 64, dtype: object

>  <hbond:GLU:88>  (66) 
hbond:GLU:88    1.0
hbond:GLU:88      1
Name: 64, dtype: object

>  <hydroph_interaction:GLU:88>  (66) 
hydroph_interaction:GLU:88    0.0
hydroph_interaction:GLU:88      0
Name: 64, dtype: object

>  <halogenbond:GLU:88>  (66) 
halogenbond:GLU:88    NaN
halogenbond:GLU:88     -1
Name: 64, dtype: object

>  <saltbridge:GLU:88>  (66) 
saltbridge:GLU:88    NaN
saltbridge:GLU:88     -1
Name: 64, dtype: object

>  <hydroph_interaction:TYR:89>  (66) 
hydroph_interaction:TYR:89    1.0
hydroph_interaction:TYR:89      1
Name: 64, dtype: object

>  <pistack:TYR:89>  (66) 
pistack:TYR:89    NaN
pistack:TYR:89     -1
Name: 64, dtype: object

>  <hbond:TYR:89>  (66) 
hbond:TYR:89    0.0
hbond:TYR:89      0
Name: 64, dtype: object

>  <halogenbond:TYR:89>  (66) 
halogenbond:TYR:89    NaN
halogenbond:TYR:89     -1
Name: 64, dtype: object

>  <hydroph_interaction:TYR:90>  (66) 
hydroph_interaction:TYR:90    0.0
hydroph_interaction:TYR:90      0
Name: 64, dtype: object

>  <hbond:TYR:90>  (66) 
hbond:TYR:90    0.0
hbond:TYR:90      0
Name: 64, dtype: object

>  <pistack:TYR:90>  (66) 
pistack:TYR:90    NaN
pistack:TYR:90     -1
Name: 64, dtype: object

>  <halogenbond:TYR:90>  (66) 
halogenbond:TYR:90    NaN
halogenbond:TYR:90     -1
Name: 64, dtype: object

>  <pication:TYR:90>  (66) 
pication:TYR:90    NaN
pication:TYR:90     -1
Name: 64, dtype: object

>  <hbond:PRO:91>  (66) 
hbond:PRO:91    NaN
hbond:PRO:91     -1
Name: 64, dtype: object

>  <hydroph_interaction:PRO:91>  (66) 
hydroph_interaction:PRO:91    NaN
hydroph_interaction:PRO:91     -1
Name: 64, dtype: object

>  <halogenbond:PRO:91>  (66) 
halogenbond:PRO:91    NaN
halogenbond:PRO:91     -1
Name: 64, dtype: object

>  <hbond:ALA:92>  (66) 
hbond:ALA:92    NaN
hbond:ALA:92     -1
Name: 64, dtype: object

>  <hydroph_interaction:ALA:92>  (66) 
hydroph_interaction:ALA:92    NaN
hydroph_interaction:ALA:92     -1
Name: 64, dtype: object

>  <saltbridge:ARG:93>  (66) 
saltbridge:ARG:93    NaN
saltbridge:ARG:93     -1
Name: 64, dtype: object

>  <hbond:ARG:93>  (66) 
hbond:ARG:93    0.0
hbond:ARG:93      0
Name: 64, dtype: object

>  <hydroph_interaction:ARG:93>  (66) 
hydroph_interaction:ARG:93    NaN
hydroph_interaction:ARG:93     -1
Name: 64, dtype: object

>  <halogenbond:ARG:93>  (66) 
halogenbond:ARG:93    NaN
halogenbond:ARG:93     -1
Name: 64, dtype: object

>  <pication:ARG:93>  (66) 
pication:ARG:93    NaN
pication:ARG:93     -1
Name: 64, dtype: object

>  <hydroph_interaction:TYR:94>  (66) 
hydroph_interaction:TYR:94    NaN
hydroph_interaction:TYR:94     -1
Name: 64, dtype: object

>  <pistack:TYR:94>  (66) 
pistack:TYR:94    NaN
pistack:TYR:94     -1
Name: 64, dtype: object

>  <hbond:TYR:94>  (66) 
hbond:TYR:94    NaN
hbond:TYR:94     -1
Name: 64, dtype: object

>  <hbond:GLN:95>  (66) 
hbond:GLN:95    0.0
hbond:GLN:95      0
Name: 64, dtype: object

>  <hydroph_interaction:GLN:95>  (66) 
hydroph_interaction:GLN:95    0.0
hydroph_interaction:GLN:95      0
Name: 64, dtype: object

>  <halogenbond:GLN:95>  (66) 
halogenbond:GLN:95    NaN
halogenbond:GLN:95     -1
Name: 64, dtype: object

>  <hbond:SER:96>  (66) 
hbond:SER:96    NaN
hbond:SER:96     -1
Name: 64, dtype: object

>  <halogenbond:HIS:97>  (66) 
halogenbond:HIS:97    NaN
halogenbond:HIS:97     -1
Name: 64, dtype: object

>  <hydroph_interaction:LEU:98>  (66) 
hydroph_interaction:LEU:98    0.0
hydroph_interaction:LEU:98      0
Name: 64, dtype: object

>  <hbond:LEU:98>  (66) 
hbond:LEU:98    NaN
hbond:LEU:98     -1
Name: 64, dtype: object

>  <halogenbond:LEU:98>  (66) 
halogenbond:LEU:98    NaN
halogenbond:LEU:98     -1
Name: 64, dtype: object

>  <hbond:MET:99>  (66) 
hbond:MET:99    NaN
hbond:MET:99     -1
Name: 64, dtype: object

>  <hydroph_interaction:MET:99>  (66) 
hydroph_interaction:MET:99    NaN
hydroph_interaction:MET:99     -1
Name: 64, dtype: object

>  <halogenbond:MET:99>  (66) 
halogenbond:MET:99    NaN
halogenbond:MET:99     -1
Name: 64, dtype: object

>  <hydroph_interaction:LEU:100>  (66) 
hydroph_interaction:LEU:100    NaN
hydroph_interaction:LEU:100     -1
Name: 64, dtype: object

>  <hbond:LEU:100>  (66) 
hbond:LEU:100    NaN
hbond:LEU:100     -1
Name: 64, dtype: object

>  <hbond:ALA:101>  (66) 
hbond:ALA:101    NaN
hbond:ALA:101     -1
Name: 64, dtype: object

>  <hydroph_interaction:ALA:101>  (66) 
hydroph_interaction:ALA:101    NaN
hydroph_interaction:ALA:101     -1
Name: 64, dtype: object

>  <hydroph_interaction:VAL:102>  (66) 
hydroph_interaction:VAL:102    NaN
hydroph_interaction:VAL:102     -1
Name: 64, dtype: object

>  <hbond:VAL:102>  (66) 
hbond:VAL:102    NaN
hbond:VAL:102     -1
Name: 64, dtype: object

>  <hbond:GLY:103>  (66) 
hbond:GLY:103    NaN
hbond:GLY:103     -1
Name: 64, dtype: object

>  <halogenbond:GLY:103>  (66) 
halogenbond:GLY:103    NaN
halogenbond:GLY:103     -1
Name: 64, dtype: object

>  <hbond:HIS:104>  (66) 
hbond:HIS:104    NaN
hbond:HIS:104     -1
Name: 64, dtype: object

>  <saltbridge:HIS:104>  (66) 
saltbridge:HIS:104    NaN
saltbridge:HIS:104     -1
Name: 64, dtype: object

>  <pication:HIS:104>  (66) 
pication:HIS:104    NaN
pication:HIS:104     -1
Name: 64, dtype: object

>  <halogenbond:HIS:104>  (66) 
halogenbond:HIS:104    NaN
halogenbond:HIS:104     -1
Name: 64, dtype: object

>  <hydroph_interaction:HIS:104>  (66) 
hydroph_interaction:HIS:104    NaN
hydroph_interaction:HIS:104     -1
Name: 64, dtype: object

>  <pistack:HIS:104>  (66) 
pistack:HIS:104    NaN
pistack:HIS:104     -1
Name: 64, dtype: object

>  <halogenbond:SER:105>  (66) 
halogenbond:SER:105    0.0
halogenbond:SER:105      0
Name: 64, dtype: object

>  <hbond:SER:105>  (66) 
hbond:SER:105    0.0
hbond:SER:105      0
Name: 64, dtype: object

>  <hbond:GLU:106>  (66) 
hbond:GLU:106    0.0
hbond:GLU:106      0
Name: 64, dtype: object

>  <hydroph_interaction:GLU:106>  (66) 
hydroph_interaction:GLU:106    0.0
hydroph_interaction:GLU:106      0
Name: 64, dtype: object

>  <saltbridge:GLU:106>  (66) 
saltbridge:GLU:106    NaN
saltbridge:GLU:106     -1
Name: 64, dtype: object

>  <halogenbond:GLU:106>  (66) 
halogenbond:GLU:106    NaN
halogenbond:GLU:106     -1
Name: 64, dtype: object

>  <hydroph_interaction:PRO:107>  (66) 
hydroph_interaction:PRO:107    2
hydroph_interaction:PRO:107    2
Name: 64, dtype: object

>  <hbond:PRO:107>  (66) 
hbond:PRO:107    0.0
hbond:PRO:107      0
Name: 64, dtype: object

>  <halogenbond:PRO:107>  (66) 
halogenbond:PRO:107    NaN
halogenbond:PRO:107     -1
Name: 64, dtype: object

>  <hbond:GLY:108>  (66) 
hbond:GLY:108    NaN
hbond:GLY:108     -1
Name: 64, dtype: object

>  <halogenbond:GLY:108>  (66) 
halogenbond:GLY:108    NaN
halogenbond:GLY:108     -1
Name: 64, dtype: object

>  <hbond:ASP:109>  (66) 
hbond:ASP:109    0.0
hbond:ASP:109      0
Name: 64, dtype: object

>  <hydroph_interaction:ASP:109>  (66) 
hydroph_interaction:ASP:109    0.0
hydroph_interaction:ASP:109      0
Name: 64, dtype: object

>  <saltbridge:ASP:109>  (66) 
saltbridge:ASP:109    NaN
saltbridge:ASP:109     -1
Name: 64, dtype: object

>  <halogenbond:CYS:110>  (66) 
halogenbond:CYS:110    0.0
halogenbond:CYS:110      0
Name: 64, dtype: object

>  <hbond:CYS:110>  (66) 
hbond:CYS:110    0.0
hbond:CYS:110      0
Name: 64, dtype: object

>  <hbond:GLY:111>  (66) 
hbond:GLY:111    NaN
hbond:GLY:111     -1
Name: 64, dtype: object

>  <hbond:GLY:112>  (66) 
hbond:GLY:112    NaN
hbond:GLY:112     -1
Name: 64, dtype: object

>  <hbond:ILE:113>  (66) 
hbond:ILE:113    NaN
hbond:ILE:113     -1
Name: 64, dtype: object

>  <hydroph_interaction:LEU:114>  (66) 
hydroph_interaction:LEU:114    NaN
hydroph_interaction:LEU:114     -1
Name: 64, dtype: object

>  <hbond:LEU:114>  (66) 
hbond:LEU:114    NaN
hbond:LEU:114     -1
Name: 64, dtype: object

>  <hydroph_interaction:ILE:123>  (66) 
hydroph_interaction:ILE:123    NaN
hydroph_interaction:ILE:123     -1
Name: 64, dtype: object

>  <hbond:ILE:123>  (66) 
hbond:ILE:123    NaN
hbond:ILE:123     -1
Name: 64, dtype: object

>  <hydroph_interaction:VAL:124>  (66) 
hydroph_interaction:VAL:124    1.0
hydroph_interaction:VAL:124      1
Name: 64, dtype: object

>  <hbond:VAL:124>  (66) 
hbond:VAL:124    NaN
hbond:VAL:124     -1
Name: 64, dtype: object

>  <halogenbond:VAL:124>  (66) 
halogenbond:VAL:124    NaN
halogenbond:VAL:124     -1
Name: 64, dtype: object

>  <hbond:SER:125>  (66) 
hbond:SER:125    0
hbond:SER:125    0
Name: 64, dtype: object

>  <halogenbond:SER:125>  (66) 
halogenbond:SER:125    NaN
halogenbond:SER:125     -1
Name: 64, dtype: object

>  <hydroph_interaction:THR:126>  (66) 
hydroph_interaction:THR:126    0.0
hydroph_interaction:THR:126      0
Name: 64, dtype: object

>  <hbond:THR:126>  (66) 
hbond:THR:126    NaN
hbond:THR:126     -1
Name: 64, dtype: object

>  <halogenbond:THR:126>  (66) 
halogenbond:THR:126    NaN
halogenbond:THR:126     -1
Name: 64, dtype: object

>  <hbond:GLY:127>  (66) 
hbond:GLY:127    0
hbond:GLY:127    0
Name: 64, dtype: object

>  <halogenbond:GLY:127>  (66) 
halogenbond:GLY:127    NaN
halogenbond:GLY:127     -1
Name: 64, dtype: object

>  <hydroph_interaction:GLY:127>  (66) 
hydroph_interaction:GLY:127    NaN
hydroph_interaction:GLY:127     -1
Name: 64, dtype: object

>  <hbond:GLY:128>  (66) 
hbond:GLY:128    NaN
hbond:GLY:128     -1
Name: 64, dtype: object

>  <halogenbond:GLY:128>  (66) 
halogenbond:GLY:128    NaN
halogenbond:GLY:128     -1
Name: 64, dtype: object

>  <hydroph_interaction:GLY:128>  (66) 
hydroph_interaction:GLY:128    NaN
hydroph_interaction:GLY:128     -1
Name: 64, dtype: object

>  <hbond:ASN:129>  (66) 
hbond:ASN:129    NaN
hbond:ASN:129     -1
Name: 64, dtype: object

>  <hydroph_interaction:ASN:129>  (66) 
hydroph_interaction:ASN:129    NaN
hydroph_interaction:ASN:129     -1
Name: 64, dtype: object

>  <halogenbond:ASN:129>  (66) 
halogenbond:ASN:129    NaN
halogenbond:ASN:129     -1
Name: 64, dtype: object

>  <hbond:GLY:130>  (66) 
hbond:GLY:130    NaN
hbond:GLY:130     -1
Name: 64, dtype: object

>  <hbond:LEU:131>  (66) 
hbond:LEU:131    0.0
hbond:LEU:131      0
Name: 64, dtype: object

>  <hydroph_interaction:LEU:131>  (66) 
hydroph_interaction:LEU:131    NaN
hydroph_interaction:LEU:131     -1
Name: 64, dtype: object

>  <halogenbond:LEU:131>  (66) 
halogenbond:LEU:131    NaN
halogenbond:LEU:131     -1
Name: 64, dtype: object

>  <hydroph_interaction:VAL:132>  (66) 
hydroph_interaction:VAL:132    0.0
hydroph_interaction:VAL:132      0
Name: 64, dtype: object

>  <hbond:VAL:132>  (66) 
hbond:VAL:132    NaN
hbond:VAL:132     -1
Name: 64, dtype: object

>  <hbond:GLY:133>  (66) 
hbond:GLY:133    0.0
hbond:GLY:133      0
Name: 64, dtype: object

>  <halogenbond:GLY:133>  (66) 
halogenbond:GLY:133    NaN
halogenbond:GLY:133     -1
Name: 64, dtype: object

>  <hydroph_interaction:PHE:134>  (66) 
hydroph_interaction:PHE:134    NaN
hydroph_interaction:PHE:134     -1
Name: 64, dtype: object

>  <hbond:PHE:134>  (66) 
hbond:PHE:134    NaN
hbond:PHE:134     -1
Name: 64, dtype: object

>  <pistack:PHE:134>  (66) 
pistack:PHE:134    NaN
pistack:PHE:134     -1
Name: 64, dtype: object

>  <pication:PHE:134>  (66) 
pication:PHE:134    NaN
pication:PHE:134     -1
Name: 64, dtype: object

>  <halogenbond:PHE:134>  (66) 
halogenbond:PHE:134    NaN
halogenbond:PHE:134     -1
Name: 64, dtype: object

>  <hydroph_interaction:ALA:135>  (66) 
hydroph_interaction:ALA:135    0.0
hydroph_interaction:ALA:135      0
Name: 64, dtype: object

>  <hbond:ALA:135>  (66) 
hbond:ALA:135    NaN
hbond:ALA:135     -1
Name: 64, dtype: object

$$$$
Z3219856995
     RDKit          3D

 12 12  0  0  0  0  0  0  0  0999 V2000
   30.7249    8.6406    8.6176 C   0  0  0  0  0  0  0  0  0  0  0  0
   31.3345    9.6779    7.7360 C   0  0  0  0  0  0  0  0  0  0  0  0
   30.9047   11.1208    7.8680 C   0  0  0  0  0  0  0  0  0  0  0  0
   31.6027   12.0781    6.9027 C   0  0  0  0  0  0  0  0  0  0  0  0
   32.5521   11.6526    5.9840 C   0  0  0  0  0  0  0  0  0  0  0  0
   33.2151   12.4763    5.0636 C   0  0  0  0  0  0  0  0  0  0  0  0
   33.5617   12.0011    3.9833 O   0  0  0  0  0  0  0  0  0  0  0  0
   33.4727   13.8143    5.3750 N   0  0  0  0  0  0  0  0  0  0  0  0
   34.3129   14.5078    4.5720 N   0  0  0  0  0  0  0  0  0  0  0  0
   32.8908   10.3273    5.9353 C   0  0  0  0  0  0  0  0  0  0  0  0
   32.3039    9.4178    6.7704 C   0  0  0  0  0  0  0  0  0  0  0  0
   32.8490    8.1965    6.4801 O   0  0  0  0  0  0  0  0  0  0  0  0
  1  2  1  0
  2  3  2  0
  3  4  1  0
  4  5  2  0
  5  6  1  0
  6  7  2  0
  6  8  1  0
  8  9  1  0
  5 10  1  0
 10 11  2  0
 11 12  1  0
 11  2  1  0
A    1
 C1 
A    2
 C2 
A    3
 C3 
A    4
 C4 
A    5
 C5 
A    6
 C6 
A    7
 O1 
A    8
 N1 
A    9
 N2 
A   10
 C7 
A   11
 C8 
A   12
 O2 
M  END
>  <ref_pdb>  (67) 
Ax0310a

>  <ref_mols>  (67) 
Ax0416a,Ax0416a

>  <original SMILES>  (67) 
Cc1ccc(C(=O)NN)cc1O

>  <rationale>  (67) 
info halogenbond:G127+D39+E85+Q95+E106+E88+T126+P107+H104+Y64+C65+S87+N129+F83+R93+I82+P91+N19+H21+V84+G133+Y90+Y89+H97+L81+F134+L98+R20+G103+S66+S67+S7+G108+R38+V124+M99+S36; hbond:S87+S105+D39+E85+G108+G103+H104+R68+V124+R93+P91+S67+S7+S66+G112+V132+R20+Y89+S77+A135+Y63+A92+A101+M99+F134+L100+I82+Y64+S36+L98+V84+L81+Y94+S80+R38+S37+V102+G8+I123+G111+I113+L114+C65+L22+S96; hydroph_interaction:V124+H21+P107+D39+N19+L40+I123+A135+Q95+F83+R93+F134+H104+R20+A86+V74+P91+A101+F76+M99+L114+A92+Y94+R68+Y72+Y64+V18+V102+W28+G127+G128+L81; pication:H21+H104+R93+Y63+F134+Y90+R68+F83+R20; pistack:H21+Y89+H104+F134+Y63+F83+Y94; saltbridge:D39+R93+H104+E106+D109+R68+R20; 

>  <intxn_cluster>  (67) 
-1

>  <intxn_cluster_rank>  (67) 
-1

>  <N_interactions>  (67) 
6

>  <∆∆G>  (67) 
-8.903758

>  <$/mg>  (67) 
82.1

>  <comRMSD>  (67) 
0.904406

>  <N_rotatable_bonds>  (67) 
4

>  <deep_P1_sidechain>  (67) 
nan

>  <farthest_distance_to_substrate>  (67) 
3.253399

>  <hbond:SER:7>  (67) 
hbond:SER:7    NaN
hbond:SER:7     -1
Name: 65, dtype: object

>  <halogenbond:SER:7>  (67) 
halogenbond:SER:7    NaN
halogenbond:SER:7     -1
Name: 65, dtype: object

>  <hbond:GLY:8>  (67) 
hbond:GLY:8    NaN
hbond:GLY:8     -1
Name: 65, dtype: object

>  <hydroph_interaction:VAL:18>  (67) 
hydroph_interaction:VAL:18    NaN
hydroph_interaction:VAL:18     -1
Name: 65, dtype: object

>  <hbond:ASN:19>  (67) 
hbond:ASN:19    0.0
hbond:ASN:19      0
Name: 65, dtype: object

>  <hydroph_interaction:ASN:19>  (67) 
hydroph_interaction:ASN:19    NaN
hydroph_interaction:ASN:19     -1
Name: 65, dtype: object

>  <halogenbond:ASN:19>  (67) 
halogenbond:ASN:19    NaN
halogenbond:ASN:19     -1
Name: 65, dtype: object

>  <hbond:ARG:20>  (67) 
hbond:ARG:20    NaN
hbond:ARG:20     -1
Name: 65, dtype: object

>  <hydroph_interaction:ARG:20>  (67) 
hydroph_interaction:ARG:20    NaN
hydroph_interaction:ARG:20     -1
Name: 65, dtype: object

>  <saltbridge:ARG:20>  (67) 
saltbridge:ARG:20    NaN
saltbridge:ARG:20     -1
Name: 65, dtype: object

>  <halogenbond:ARG:20>  (67) 
halogenbond:ARG:20    NaN
halogenbond:ARG:20     -1
Name: 65, dtype: object

>  <pication:ARG:20>  (67) 
pication:ARG:20    NaN
pication:ARG:20     -1
Name: 65, dtype: object

>  <hbond:HIS:21>  (67) 
hbond:HIS:21    0.0
hbond:HIS:21      0
Name: 65, dtype: object

>  <hydroph_interaction:HIS:21>  (67) 
hydroph_interaction:HIS:21    NaN
hydroph_interaction:HIS:21     -1
Name: 65, dtype: object

>  <pistack:HIS:21>  (67) 
pistack:HIS:21    NaN
pistack:HIS:21     -1
Name: 65, dtype: object

>  <pication:HIS:21>  (67) 
pication:HIS:21    NaN
pication:HIS:21     -1
Name: 65, dtype: object

>  <saltbridge:HIS:21>  (67) 
saltbridge:HIS:21    0.0
saltbridge:HIS:21      0
Name: 65, dtype: object

>  <halogenbond:HIS:21>  (67) 
halogenbond:HIS:21    NaN
halogenbond:HIS:21     -1
Name: 65, dtype: object

>  <hydroph_interaction:LEU:22>  (67) 
hydroph_interaction:LEU:22    0.0
hydroph_interaction:LEU:22      0
Name: 65, dtype: object

>  <hbond:LEU:22>  (67) 
hbond:LEU:22    NaN
hbond:LEU:22     -1
Name: 65, dtype: object

>  <hydroph_interaction:TRP:28>  (67) 
hydroph_interaction:TRP:28    NaN
hydroph_interaction:TRP:28     -1
Name: 65, dtype: object

>  <hbond:SER:36>  (67) 
hbond:SER:36    NaN
hbond:SER:36     -1
Name: 65, dtype: object

>  <halogenbond:SER:36>  (67) 
halogenbond:SER:36    NaN
halogenbond:SER:36     -1
Name: 65, dtype: object

>  <hbond:SER:37>  (67) 
hbond:SER:37    NaN
hbond:SER:37     -1
Name: 65, dtype: object

>  <hbond:ARG:38>  (67) 
hbond:ARG:38    NaN
hbond:ARG:38     -1
Name: 65, dtype: object

>  <halogenbond:ARG:38>  (67) 
halogenbond:ARG:38    NaN
halogenbond:ARG:38     -1
Name: 65, dtype: object

>  <saltbridge:ASP:39>  (67) 
saltbridge:ASP:39    NaN
saltbridge:ASP:39     -1
Name: 65, dtype: object

>  <halogenbond:ASP:39>  (67) 
halogenbond:ASP:39    NaN
halogenbond:ASP:39     -1
Name: 65, dtype: object

>  <hbond:ASP:39>  (67) 
hbond:ASP:39    NaN
hbond:ASP:39     -1
Name: 65, dtype: object

>  <hydroph_interaction:ASP:39>  (67) 
hydroph_interaction:ASP:39    NaN
hydroph_interaction:ASP:39     -1
Name: 65, dtype: object

>  <hydroph_interaction:LEU:40>  (67) 
hydroph_interaction:LEU:40    NaN
hydroph_interaction:LEU:40     -1
Name: 65, dtype: object

>  <hydroph_interaction:TYR:63>  (67) 
hydroph_interaction:TYR:63    0.0
hydroph_interaction:TYR:63      0
Name: 65, dtype: object

>  <hbond:TYR:63>  (67) 
hbond:TYR:63    NaN
hbond:TYR:63     -1
Name: 65, dtype: object

>  <pistack:TYR:63>  (67) 
pistack:TYR:63    NaN
pistack:TYR:63     -1
Name: 65, dtype: object

>  <pication:TYR:63>  (67) 
pication:TYR:63    NaN
pication:TYR:63     -1
Name: 65, dtype: object

>  <halogenbond:TYR:64>  (67) 
halogenbond:TYR:64    NaN
halogenbond:TYR:64     -1
Name: 65, dtype: object

>  <hbond:TYR:64>  (67) 
hbond:TYR:64    NaN
hbond:TYR:64     -1
Name: 65, dtype: object

>  <hydroph_interaction:TYR:64>  (67) 
hydroph_interaction:TYR:64    NaN
hydroph_interaction:TYR:64     -1
Name: 65, dtype: object

>  <halogenbond:CYS:65>  (67) 
halogenbond:CYS:65    NaN
halogenbond:CYS:65     -1
Name: 65, dtype: object

>  <hbond:CYS:65>  (67) 
hbond:CYS:65    NaN
hbond:CYS:65     -1
Name: 65, dtype: object

>  <hbond:SER:66>  (67) 
hbond:SER:66    NaN
hbond:SER:66     -1
Name: 65, dtype: object

>  <halogenbond:SER:66>  (67) 
halogenbond:SER:66    NaN
halogenbond:SER:66     -1
Name: 65, dtype: object

>  <hbond:SER:67>  (67) 
hbond:SER:67    NaN
hbond:SER:67     -1
Name: 65, dtype: object

>  <halogenbond:SER:67>  (67) 
halogenbond:SER:67    NaN
halogenbond:SER:67     -1
Name: 65, dtype: object

>  <hbond:ARG:68>  (67) 
hbond:ARG:68    NaN
hbond:ARG:68     -1
Name: 65, dtype: object

>  <saltbridge:ARG:68>  (67) 
saltbridge:ARG:68    NaN
saltbridge:ARG:68     -1
Name: 65, dtype: object

>  <hydroph_interaction:ARG:68>  (67) 
hydroph_interaction:ARG:68    NaN
hydroph_interaction:ARG:68     -1
Name: 65, dtype: object

>  <pication:ARG:68>  (67) 
pication:ARG:68    NaN
pication:ARG:68     -1
Name: 65, dtype: object

>  <hydroph_interaction:TYR:72>  (67) 
hydroph_interaction:TYR:72    NaN
hydroph_interaction:TYR:72     -1
Name: 65, dtype: object

>  <hydroph_interaction:VAL:74>  (67) 
hydroph_interaction:VAL:74    NaN
hydroph_interaction:VAL:74     -1
Name: 65, dtype: object

>  <hydroph_interaction:PHE:76>  (67) 
hydroph_interaction:PHE:76    NaN
hydroph_interaction:PHE:76     -1
Name: 65, dtype: object

>  <hbond:SER:77>  (67) 
hbond:SER:77    NaN
hbond:SER:77     -1
Name: 65, dtype: object

>  <hbond:SER:80>  (67) 
hbond:SER:80    NaN
hbond:SER:80     -1
Name: 65, dtype: object

>  <hbond:LEU:81>  (67) 
hbond:LEU:81    NaN
hbond:LEU:81     -1
Name: 65, dtype: object

>  <halogenbond:LEU:81>  (67) 
halogenbond:LEU:81    NaN
halogenbond:LEU:81     -1
Name: 65, dtype: object

>  <hydroph_interaction:LEU:81>  (67) 
hydroph_interaction:LEU:81    NaN
hydroph_interaction:LEU:81     -1
Name: 65, dtype: object

>  <hydroph_interaction:ILE:82>  (67) 
hydroph_interaction:ILE:82    0.0
hydroph_interaction:ILE:82      0
Name: 65, dtype: object

>  <halogenbond:ILE:82>  (67) 
halogenbond:ILE:82    NaN
halogenbond:ILE:82     -1
Name: 65, dtype: object

>  <hbond:ILE:82>  (67) 
hbond:ILE:82    NaN
hbond:ILE:82     -1
Name: 65, dtype: object

>  <hbond:PHE:83>  (67) 
hbond:PHE:83    0.0
hbond:PHE:83      0
Name: 65, dtype: object

>  <hydroph_interaction:PHE:83>  (67) 
hydroph_interaction:PHE:83    NaN
hydroph_interaction:PHE:83     -1
Name: 65, dtype: object

>  <halogenbond:PHE:83>  (67) 
halogenbond:PHE:83    NaN
halogenbond:PHE:83     -1
Name: 65, dtype: object

>  <pistack:PHE:83>  (67) 
pistack:PHE:83    NaN
pistack:PHE:83     -1
Name: 65, dtype: object

>  <pication:PHE:83>  (67) 
pication:PHE:83    NaN
pication:PHE:83     -1
Name: 65, dtype: object

>  <hydroph_interaction:VAL:84>  (67) 
hydroph_interaction:VAL:84    0.0
hydroph_interaction:VAL:84      0
Name: 65, dtype: object

>  <halogenbond:VAL:84>  (67) 
halogenbond:VAL:84    NaN
halogenbond:VAL:84     -1
Name: 65, dtype: object

>  <hbond:VAL:84>  (67) 
hbond:VAL:84    NaN
hbond:VAL:84     -1
Name: 65, dtype: object

>  <hydroph_interaction:GLU:85>  (67) 
hydroph_interaction:GLU:85    0.0
hydroph_interaction:GLU:85      0
Name: 65, dtype: object

>  <hbond:GLU:85>  (67) 
hbond:GLU:85    2.0
hbond:GLU:85      2
Name: 65, dtype: object

>  <halogenbond:GLU:85>  (67) 
halogenbond:GLU:85    NaN
halogenbond:GLU:85     -1
Name: 65, dtype: object

>  <saltbridge:GLU:85>  (67) 
saltbridge:GLU:85    0.0
saltbridge:GLU:85      0
Name: 65, dtype: object

>  <halogenbond:ALA:86>  (67) 
halogenbond:ALA:86    0.0
halogenbond:ALA:86      0
Name: 65, dtype: object

>  <hbond:ALA:86>  (67) 
hbond:ALA:86    0.0
hbond:ALA:86      0
Name: 65, dtype: object

>  <hydroph_interaction:ALA:86>  (67) 
hydroph_interaction:ALA:86    NaN
hydroph_interaction:ALA:86     -1
Name: 65, dtype: object

>  <hbond:SER:87>  (67) 
hbond:SER:87    1
hbond:SER:87    1
Name: 65, dtype: object

>  <halogenbond:SER:87>  (67) 
halogenbond:SER:87    NaN
halogenbond:SER:87     -1
Name: 65, dtype: object

>  <hbond:GLU:88>  (67) 
hbond:GLU:88    0.0
hbond:GLU:88      0
Name: 65, dtype: object

>  <hydroph_interaction:GLU:88>  (67) 
hydroph_interaction:GLU:88    0.0
hydroph_interaction:GLU:88      0
Name: 65, dtype: object

>  <halogenbond:GLU:88>  (67) 
halogenbond:GLU:88    NaN
halogenbond:GLU:88     -1
Name: 65, dtype: object

>  <saltbridge:GLU:88>  (67) 
saltbridge:GLU:88    0.0
saltbridge:GLU:88      0
Name: 65, dtype: object

>  <hydroph_interaction:TYR:89>  (67) 
hydroph_interaction:TYR:89    0.0
hydroph_interaction:TYR:89      0
Name: 65, dtype: object

>  <pistack:TYR:89>  (67) 
pistack:TYR:89    NaN
pistack:TYR:89     -1
Name: 65, dtype: object

>  <hbond:TYR:89>  (67) 
hbond:TYR:89    NaN
hbond:TYR:89     -1
Name: 65, dtype: object

>  <halogenbond:TYR:89>  (67) 
halogenbond:TYR:89    NaN
halogenbond:TYR:89     -1
Name: 65, dtype: object

>  <hydroph_interaction:TYR:90>  (67) 
hydroph_interaction:TYR:90    0.0
hydroph_interaction:TYR:90      0
Name: 65, dtype: object

>  <hbond:TYR:90>  (67) 
hbond:TYR:90    0.0
hbond:TYR:90      0
Name: 65, dtype: object

>  <pistack:TYR:90>  (67) 
pistack:TYR:90    0.0
pistack:TYR:90      0
Name: 65, dtype: object

>  <halogenbond:TYR:90>  (67) 
halogenbond:TYR:90    NaN
halogenbond:TYR:90     -1
Name: 65, dtype: object

>  <pication:TYR:90>  (67) 
pication:TYR:90    NaN
pication:TYR:90     -1
Name: 65, dtype: object

>  <hbond:PRO:91>  (67) 
hbond:PRO:91    NaN
hbond:PRO:91     -1
Name: 65, dtype: object

>  <hydroph_interaction:PRO:91>  (67) 
hydroph_interaction:PRO:91    NaN
hydroph_interaction:PRO:91     -1
Name: 65, dtype: object

>  <halogenbond:PRO:91>  (67) 
halogenbond:PRO:91    NaN
halogenbond:PRO:91     -1
Name: 65, dtype: object

>  <hbond:ALA:92>  (67) 
hbond:ALA:92    NaN
hbond:ALA:92     -1
Name: 65, dtype: object

>  <hydroph_interaction:ALA:92>  (67) 
hydroph_interaction:ALA:92    NaN
hydroph_interaction:ALA:92     -1
Name: 65, dtype: object

>  <saltbridge:ARG:93>  (67) 
saltbridge:ARG:93    NaN
saltbridge:ARG:93     -1
Name: 65, dtype: object

>  <hbond:ARG:93>  (67) 
hbond:ARG:93    NaN
hbond:ARG:93     -1
Name: 65, dtype: object

>  <hydroph_interaction:ARG:93>  (67) 
hydroph_interaction:ARG:93    NaN
hydroph_interaction:ARG:93     -1
Name: 65, dtype: object

>  <halogenbond:ARG:93>  (67) 
halogenbond:ARG:93    NaN
halogenbond:ARG:93     -1
Name: 65, dtype: object

>  <pication:ARG:93>  (67) 
pication:ARG:93    NaN
pication:ARG:93     -1
Name: 65, dtype: object

>  <hydroph_interaction:TYR:94>  (67) 
hydroph_interaction:TYR:94    NaN
hydroph_interaction:TYR:94     -1
Name: 65, dtype: object

>  <pistack:TYR:94>  (67) 
pistack:TYR:94    NaN
pistack:TYR:94     -1
Name: 65, dtype: object

>  <hbond:TYR:94>  (67) 
hbond:TYR:94    NaN
hbond:TYR:94     -1
Name: 65, dtype: object

>  <hbond:GLN:95>  (67) 
hbond:GLN:95    0.0
hbond:GLN:95      0
Name: 65, dtype: object

>  <hydroph_interaction:GLN:95>  (67) 
hydroph_interaction:GLN:95    NaN
hydroph_interaction:GLN:95     -1
Name: 65, dtype: object

>  <halogenbond:GLN:95>  (67) 
halogenbond:GLN:95    NaN
halogenbond:GLN:95     -1
Name: 65, dtype: object

>  <hbond:SER:96>  (67) 
hbond:SER:96    NaN
hbond:SER:96     -1
Name: 65, dtype: object

>  <halogenbond:HIS:97>  (67) 
halogenbond:HIS:97    NaN
halogenbond:HIS:97     -1
Name: 65, dtype: object

>  <hydroph_interaction:LEU:98>  (67) 
hydroph_interaction:LEU:98    0.0
hydroph_interaction:LEU:98      0
Name: 65, dtype: object

>  <hbond:LEU:98>  (67) 
hbond:LEU:98    NaN
hbond:LEU:98     -1
Name: 65, dtype: object

>  <halogenbond:LEU:98>  (67) 
halogenbond:LEU:98    NaN
halogenbond:LEU:98     -1
Name: 65, dtype: object

>  <hbond:MET:99>  (67) 
hbond:MET:99    NaN
hbond:MET:99     -1
Name: 65, dtype: object

>  <hydroph_interaction:MET:99>  (67) 
hydroph_interaction:MET:99    NaN
hydroph_interaction:MET:99     -1
Name: 65, dtype: object

>  <halogenbond:MET:99>  (67) 
halogenbond:MET:99    NaN
halogenbond:MET:99     -1
Name: 65, dtype: object

>  <hydroph_interaction:LEU:100>  (67) 
hydroph_interaction:LEU:100    0.0
hydroph_interaction:LEU:100      0
Name: 65, dtype: object

>  <hbond:LEU:100>  (67) 
hbond:LEU:100    NaN
hbond:LEU:100     -1
Name: 65, dtype: object

>  <hbond:ALA:101>  (67) 
hbond:ALA:101    NaN
hbond:ALA:101     -1
Name: 65, dtype: object

>  <hydroph_interaction:ALA:101>  (67) 
hydroph_interaction:ALA:101    NaN
hydroph_interaction:ALA:101     -1
Name: 65, dtype: object

>  <hydroph_interaction:VAL:102>  (67) 
hydroph_interaction:VAL:102    NaN
hydroph_interaction:VAL:102     -1
Name: 65, dtype: object

>  <hbond:VAL:102>  (67) 
hbond:VAL:102    NaN
hbond:VAL:102     -1
Name: 65, dtype: object

>  <hbond:GLY:103>  (67) 
hbond:GLY:103    NaN
hbond:GLY:103     -1
Name: 65, dtype: object

>  <halogenbond:GLY:103>  (67) 
halogenbond:GLY:103    NaN
halogenbond:GLY:103     -1
Name: 65, dtype: object

>  <hbond:HIS:104>  (67) 
hbond:HIS:104    NaN
hbond:HIS:104     -1
Name: 65, dtype: object

>  <saltbridge:HIS:104>  (67) 
saltbridge:HIS:104    NaN
saltbridge:HIS:104     -1
Name: 65, dtype: object

>  <pication:HIS:104>  (67) 
pication:HIS:104    NaN
pication:HIS:104     -1
Name: 65, dtype: object

>  <halogenbond:HIS:104>  (67) 
halogenbond:HIS:104    NaN
halogenbond:HIS:104     -1
Name: 65, dtype: object

>  <hydroph_interaction:HIS:104>  (67) 
hydroph_interaction:HIS:104    NaN
hydroph_interaction:HIS:104     -1
Name: 65, dtype: object

>  <pistack:HIS:104>  (67) 
pistack:HIS:104    NaN
pistack:HIS:104     -1
Name: 65, dtype: object

>  <halogenbond:SER:105>  (67) 
halogenbond:SER:105    0.0
halogenbond:SER:105      0
Name: 65, dtype: object

>  <hbond:SER:105>  (67) 
hbond:SER:105    1.0
hbond:SER:105      1
Name: 65, dtype: object

>  <hbond:GLU:106>  (67) 
hbond:GLU:106    0.0
hbond:GLU:106      0
Name: 65, dtype: object

>  <hydroph_interaction:GLU:106>  (67) 
hydroph_interaction:GLU:106    0.0
hydroph_interaction:GLU:106      0
Name: 65, dtype: object

>  <saltbridge:GLU:106>  (67) 
saltbridge:GLU:106    NaN
saltbridge:GLU:106     -1
Name: 65, dtype: object

>  <halogenbond:GLU:106>  (67) 
halogenbond:GLU:106    NaN
halogenbond:GLU:106     -1
Name: 65, dtype: object

>  <hydroph_interaction:PRO:107>  (67) 
hydroph_interaction:PRO:107    1
hydroph_interaction:PRO:107    1
Name: 65, dtype: object

>  <hbond:PRO:107>  (67) 
hbond:PRO:107    0.0
hbond:PRO:107      0
Name: 65, dtype: object

>  <halogenbond:PRO:107>  (67) 
halogenbond:PRO:107    NaN
halogenbond:PRO:107     -1
Name: 65, dtype: object

>  <hbond:GLY:108>  (67) 
hbond:GLY:108    NaN
hbond:GLY:108     -1
Name: 65, dtype: object

>  <halogenbond:GLY:108>  (67) 
halogenbond:GLY:108    NaN
halogenbond:GLY:108     -1
Name: 65, dtype: object

>  <hbond:ASP:109>  (67) 
hbond:ASP:109    0.0
hbond:ASP:109      0
Name: 65, dtype: object

>  <hydroph_interaction:ASP:109>  (67) 
hydroph_interaction:ASP:109    0.0
hydroph_interaction:ASP:109      0
Name: 65, dtype: object

>  <saltbridge:ASP:109>  (67) 
saltbridge:ASP:109    NaN
saltbridge:ASP:109     -1
Name: 65, dtype: object

>  <halogenbond:CYS:110>  (67) 
halogenbond:CYS:110    0.0
halogenbond:CYS:110      0
Name: 65, dtype: object

>  <hbond:CYS:110>  (67) 
hbond:CYS:110    0.0
hbond:CYS:110      0
Name: 65, dtype: object

>  <hbond:GLY:111>  (67) 
hbond:GLY:111    NaN
hbond:GLY:111     -1
Name: 65, dtype: object

>  <hbond:GLY:112>  (67) 
hbond:GLY:112    NaN
hbond:GLY:112     -1
Name: 65, dtype: object

>  <hbond:ILE:113>  (67) 
hbond:ILE:113    NaN
hbond:ILE:113     -1
Name: 65, dtype: object

>  <hydroph_interaction:LEU:114>  (67) 
hydroph_interaction:LEU:114    NaN
hydroph_interaction:LEU:114     -1
Name: 65, dtype: object

>  <hbond:LEU:114>  (67) 
hbond:LEU:114    NaN
hbond:LEU:114     -1
Name: 65, dtype: object

>  <hydroph_interaction:ILE:123>  (67) 
hydroph_interaction:ILE:123    NaN
hydroph_interaction:ILE:123     -1
Name: 65, dtype: object

>  <hbond:ILE:123>  (67) 
hbond:ILE:123    NaN
hbond:ILE:123     -1
Name: 65, dtype: object

>  <hydroph_interaction:VAL:124>  (67) 
hydroph_interaction:VAL:124    1.0
hydroph_interaction:VAL:124      1
Name: 65, dtype: object

>  <hbond:VAL:124>  (67) 
hbond:VAL:124    NaN
hbond:VAL:124     -1
Name: 65, dtype: object

>  <halogenbond:VAL:124>  (67) 
halogenbond:VAL:124    NaN
halogenbond:VAL:124     -1
Name: 65, dtype: object

>  <hbond:SER:125>  (67) 
hbond:SER:125    0
hbond:SER:125    0
Name: 65, dtype: object

>  <halogenbond:SER:125>  (67) 
halogenbond:SER:125    0.0
halogenbond:SER:125      0
Name: 65, dtype: object

>  <hydroph_interaction:THR:126>  (67) 
hydroph_interaction:THR:126    0.0
hydroph_interaction:THR:126      0
Name: 65, dtype: object

>  <hbond:THR:126>  (67) 
hbond:THR:126    0.0
hbond:THR:126      0
Name: 65, dtype: object

>  <halogenbond:THR:126>  (67) 
halogenbond:THR:126    NaN
halogenbond:THR:126     -1
Name: 65, dtype: object

>  <hbond:GLY:127>  (67) 
hbond:GLY:127    0
hbond:GLY:127    0
Name: 65, dtype: object

>  <halogenbond:GLY:127>  (67) 
halogenbond:GLY:127    NaN
halogenbond:GLY:127     -1
Name: 65, dtype: object

>  <hydroph_interaction:GLY:127>  (67) 
hydroph_interaction:GLY:127    NaN
hydroph_interaction:GLY:127     -1
Name: 65, dtype: object

>  <hbond:GLY:128>  (67) 
hbond:GLY:128    0.0
hbond:GLY:128      0
Name: 65, dtype: object

>  <halogenbond:GLY:128>  (67) 
halogenbond:GLY:128    0.0
halogenbond:GLY:128      0
Name: 65, dtype: object

>  <hydroph_interaction:GLY:128>  (67) 
hydroph_interaction:GLY:128    NaN
hydroph_interaction:GLY:128     -1
Name: 65, dtype: object

>  <hbond:ASN:129>  (67) 
hbond:ASN:129    0.0
hbond:ASN:129      0
Name: 65, dtype: object

>  <hydroph_interaction:ASN:129>  (67) 
hydroph_interaction:ASN:129    0.0
hydroph_interaction:ASN:129      0
Name: 65, dtype: object

>  <halogenbond:ASN:129>  (67) 
halogenbond:ASN:129    NaN
halogenbond:ASN:129     -1
Name: 65, dtype: object

>  <hbond:GLY:130>  (67) 
hbond:GLY:130    0.0
hbond:GLY:130      0
Name: 65, dtype: object

>  <hbond:LEU:131>  (67) 
hbond:LEU:131    0.0
hbond:LEU:131      0
Name: 65, dtype: object

>  <hydroph_interaction:LEU:131>  (67) 
hydroph_interaction:LEU:131    0.0
hydroph_interaction:LEU:131      0
Name: 65, dtype: object

>  <halogenbond:LEU:131>  (67) 
halogenbond:LEU:131    0.0
halogenbond:LEU:131      0
Name: 65, dtype: object

>  <hydroph_interaction:VAL:132>  (67) 
hydroph_interaction:VAL:132    0.0
hydroph_interaction:VAL:132      0
Name: 65, dtype: object

>  <hbond:VAL:132>  (67) 
hbond:VAL:132    NaN
hbond:VAL:132     -1
Name: 65, dtype: object

>  <hbond:GLY:133>  (67) 
hbond:GLY:133    0.0
hbond:GLY:133      0
Name: 65, dtype: object

>  <halogenbond:GLY:133>  (67) 
halogenbond:GLY:133    NaN
halogenbond:GLY:133     -1
Name: 65, dtype: object

>  <hydroph_interaction:PHE:134>  (67) 
hydroph_interaction:PHE:134    NaN
hydroph_interaction:PHE:134     -1
Name: 65, dtype: object

>  <hbond:PHE:134>  (67) 
hbond:PHE:134    NaN
hbond:PHE:134     -1
Name: 65, dtype: object

>  <pistack:PHE:134>  (67) 
pistack:PHE:134    NaN
pistack:PHE:134     -1
Name: 65, dtype: object

>  <pication:PHE:134>  (67) 
pication:PHE:134    NaN
pication:PHE:134     -1
Name: 65, dtype: object

>  <halogenbond:PHE:134>  (67) 
halogenbond:PHE:134    NaN
halogenbond:PHE:134     -1
Name: 65, dtype: object

>  <hydroph_interaction:ALA:135>  (67) 
hydroph_interaction:ALA:135    NaN
hydroph_interaction:ALA:135     -1
Name: 65, dtype: object

>  <hbond:ALA:135>  (67) 
hbond:ALA:135    NaN
hbond:ALA:135     -1
Name: 65, dtype: object

$$$$
Z3465836346
     RDKit          3D

 17 19  0  0  0  0  0  0  0  0999 V2000
   27.5775   16.0124    9.5502 C   0  0  0  0  0  0  0  0  0  0  0  0
   28.5464   14.9624    9.1151 C   0  0  0  0  0  0  0  0  0  0  0  0
   30.0073   15.1246    9.4991 C   0  0  0  0  0  0  0  0  0  0  0  0
   30.8787   14.0046    9.0273 C   0  0  0  0  0  0  0  0  0  0  0  0
   30.3149   12.9452    8.3079 C   0  0  0  0  0  0  0  0  0  0  0  0
   30.9526   11.8401    7.8424 C   0  0  0  0  0  0  0  0  0  0  0  0
   30.5691   10.5557    8.3650 C   0  0  0  0  0  0  0  0  0  0  0  0
   31.2477    9.5815    7.8420 N   0  0  0  0  0  0  0  0  0  0  0  0
   31.0344    8.2367    8.2186 C   0  0  0  0  0  0  0  0  0  0  0  0
   32.1345   10.0867    6.9250 C   0  0  0  0  0  0  0  0  0  0  0  0
   33.0449    9.4212    6.1373 C   0  0  0  0  0  0  0  0  0  0  0  0
   33.9016   10.2028    5.2150 C   0  0  0  0  0  0  0  0  0  0  0  0
   33.7721   11.5809    5.1616 C   0  0  0  0  0  0  0  0  0  0  0  0
   32.8228   12.2253    5.9903 C   0  0  0  0  0  0  0  0  0  0  0  0
   31.9893   11.5011    6.8870 C   0  0  0  0  0  0  0  0  0  0  0  0
   28.9656   12.9169    8.0132 C   0  0  0  0  0  0  0  0  0  0  0  0
   28.0953   13.8931    8.3972 C   0  0  0  0  0  0  0  0  0  0  0  0
  1  2  1  0
  2  3  2  0
  3  4  1  0
  4  5  2  0
  5  6  1  0
  6  7  2  0
  7  8  1  0
  8  9  1  0
  8 10  1  0
 10 11  2  0
 11 12  1  0
 12 13  2  0
 13 14  1  0
 14 15  2  0
  5 16  1  0
 16 17  2  0
 17  2  1  0
 15  6  1  0
 15 10  1  0
A    1
 C1 
A    2
 C2 
A    3
 C3 
A    4
 C4 
A    5
 C5 
A    6
 C6 
A    7
 C7 
A    8
 N1 
A    9
 C8 
A   10
 C9 
A   11
 C10
A   12
 C11
A   13
 C12
A   14
 C13
A   15
 C14
A   16
 C15
A   17
 C16
M  END
>  <ref_pdb>  (68) 
Ax0310a

>  <ref_mols>  (68) 
Ax0451a,Ax0812a

>  <original SMILES>  (68) 
Cc1ccc(-c2cn(C)c3ccccc23)cc1

>  <rationale>  (68) 
info halogenbond:C110+G127+A86+E85+E106+T126+P107+H104+Y64+C65+S87+N129+F83+L131+I82+G128+P91+N19+H21+V84+G133+Y90+Y89+H97+L81+F134+L98+R20+G103+S66+S67+S7+G108+R38+V124+M99+S36; hbond:T126+C110+G108+G103+G128+G130+L131+N129+N19+H104+R68+V124+R93+P91+F83+S67+S7+S66+G112+G133+V132+R20+Y89+S77+A135+Y63+A92+A101+M99+F134+L100+I82+Y64+S36+L98+V84+L81+Y94+S80+R38+S37+V102+G8+I123+G111+I113+L114+C65+L22+S96; hydroph_interaction:Y90+Y89+H21+E106+N129+L40+I123+A135+Q95+I82+L100+L98+L131+F83+Y63+F134+H104+R20+A86+V74+P91+A101+F76+M99+L114+A92+Y94+R68+Y72+Y64+V18+V102+W28+G127+G128+L81; pication:H104+R93+Y63+F134+Y90+R68+F83+R20; pistack:Y89+Y90+H104+F134+Y63+F83+Y94; saltbridge:R93+H104+E106+D109+E85+E88+R68+R20; 

>  <intxn_cluster>  (68) 
-1

>  <intxn_cluster_rank>  (68) 
-1

>  <N_interactions>  (68) 
3

>  <∆∆G>  (68) 
-11.787186

>  <$/mg>  (68) 
163.0

>  <comRMSD>  (68) 
0.932055

>  <N_rotatable_bonds>  (68) 
3

>  <deep_P1_sidechain>  (68) 
nan

>  <farthest_distance_to_substrate>  (68) 
2.531963

>  <hbond:SER:7>  (68) 
hbond:SER:7    NaN
hbond:SER:7     -1
Name: 66, dtype: object

>  <halogenbond:SER:7>  (68) 
halogenbond:SER:7    NaN
halogenbond:SER:7     -1
Name: 66, dtype: object

>  <hbond:GLY:8>  (68) 
hbond:GLY:8    NaN
hbond:GLY:8     -1
Name: 66, dtype: object

>  <hydroph_interaction:VAL:18>  (68) 
hydroph_interaction:VAL:18    NaN
hydroph_interaction:VAL:18     -1
Name: 66, dtype: object

>  <hbond:ASN:19>  (68) 
hbond:ASN:19    NaN
hbond:ASN:19     -1
Name: 66, dtype: object

>  <hydroph_interaction:ASN:19>  (68) 
hydroph_interaction:ASN:19    0.0
hydroph_interaction:ASN:19      0
Name: 66, dtype: object

>  <halogenbond:ASN:19>  (68) 
halogenbond:ASN:19    NaN
halogenbond:ASN:19     -1
Name: 66, dtype: object

>  <hbond:ARG:20>  (68) 
hbond:ARG:20    NaN
hbond:ARG:20     -1
Name: 66, dtype: object

>  <hydroph_interaction:ARG:20>  (68) 
hydroph_interaction:ARG:20    NaN
hydroph_interaction:ARG:20     -1
Name: 66, dtype: object

>  <saltbridge:ARG:20>  (68) 
saltbridge:ARG:20    NaN
saltbridge:ARG:20     -1
Name: 66, dtype: object

>  <halogenbond:ARG:20>  (68) 
halogenbond:ARG:20    NaN
halogenbond:ARG:20     -1
Name: 66, dtype: object

>  <pication:ARG:20>  (68) 
pication:ARG:20    NaN
pication:ARG:20     -1
Name: 66, dtype: object

>  <hbond:HIS:21>  (68) 
hbond:HIS:21    0.0
hbond:HIS:21      0
Name: 66, dtype: object

>  <hydroph_interaction:HIS:21>  (68) 
hydroph_interaction:HIS:21    1.0
hydroph_interaction:HIS:21      1
Name: 66, dtype: object

>  <pistack:HIS:21>  (68) 
pistack:HIS:21    0.0
pistack:HIS:21      0
Name: 66, dtype: object

>  <pication:HIS:21>  (68) 
pication:HIS:21    0.0
pication:HIS:21      0
Name: 66, dtype: object

>  <saltbridge:HIS:21>  (68) 
saltbridge:HIS:21    0.0
saltbridge:HIS:21      0
Name: 66, dtype: object

>  <halogenbond:HIS:21>  (68) 
halogenbond:HIS:21    NaN
halogenbond:HIS:21     -1
Name: 66, dtype: object

>  <hydroph_interaction:LEU:22>  (68) 
hydroph_interaction:LEU:22    0.0
hydroph_interaction:LEU:22      0
Name: 66, dtype: object

>  <hbond:LEU:22>  (68) 
hbond:LEU:22    NaN
hbond:LEU:22     -1
Name: 66, dtype: object

>  <hydroph_interaction:TRP:28>  (68) 
hydroph_interaction:TRP:28    NaN
hydroph_interaction:TRP:28     -1
Name: 66, dtype: object

>  <hbond:SER:36>  (68) 
hbond:SER:36    NaN
hbond:SER:36     -1
Name: 66, dtype: object

>  <halogenbond:SER:36>  (68) 
halogenbond:SER:36    NaN
halogenbond:SER:36     -1
Name: 66, dtype: object

>  <hbond:SER:37>  (68) 
hbond:SER:37    NaN
hbond:SER:37     -1
Name: 66, dtype: object

>  <hbond:ARG:38>  (68) 
hbond:ARG:38    NaN
hbond:ARG:38     -1
Name: 66, dtype: object

>  <halogenbond:ARG:38>  (68) 
halogenbond:ARG:38    NaN
halogenbond:ARG:38     -1
Name: 66, dtype: object

>  <saltbridge:ASP:39>  (68) 
saltbridge:ASP:39    0.0
saltbridge:ASP:39      0
Name: 66, dtype: object

>  <halogenbond:ASP:39>  (68) 
halogenbond:ASP:39    0.0
halogenbond:ASP:39      0
Name: 66, dtype: object

>  <hbond:ASP:39>  (68) 
hbond:ASP:39    0.0
hbond:ASP:39      0
Name: 66, dtype: object

>  <hydroph_interaction:ASP:39>  (68) 
hydroph_interaction:ASP:39    0.0
hydroph_interaction:ASP:39      0
Name: 66, dtype: object

>  <hydroph_interaction:LEU:40>  (68) 
hydroph_interaction:LEU:40    NaN
hydroph_interaction:LEU:40     -1
Name: 66, dtype: object

>  <hydroph_interaction:TYR:63>  (68) 
hydroph_interaction:TYR:63    NaN
hydroph_interaction:TYR:63     -1
Name: 66, dtype: object

>  <hbond:TYR:63>  (68) 
hbond:TYR:63    NaN
hbond:TYR:63     -1
Name: 66, dtype: object

>  <pistack:TYR:63>  (68) 
pistack:TYR:63    NaN
pistack:TYR:63     -1
Name: 66, dtype: object

>  <pication:TYR:63>  (68) 
pication:TYR:63    NaN
pication:TYR:63     -1
Name: 66, dtype: object

>  <halogenbond:TYR:64>  (68) 
halogenbond:TYR:64    NaN
halogenbond:TYR:64     -1
Name: 66, dtype: object

>  <hbond:TYR:64>  (68) 
hbond:TYR:64    NaN
hbond:TYR:64     -1
Name: 66, dtype: object

>  <hydroph_interaction:TYR:64>  (68) 
hydroph_interaction:TYR:64    NaN
hydroph_interaction:TYR:64     -1
Name: 66, dtype: object

>  <halogenbond:CYS:65>  (68) 
halogenbond:CYS:65    NaN
halogenbond:CYS:65     -1
Name: 66, dtype: object

>  <hbond:CYS:65>  (68) 
hbond:CYS:65    NaN
hbond:CYS:65     -1
Name: 66, dtype: object

>  <hbond:SER:66>  (68) 
hbond:SER:66    NaN
hbond:SER:66     -1
Name: 66, dtype: object

>  <halogenbond:SER:66>  (68) 
halogenbond:SER:66    NaN
halogenbond:SER:66     -1
Name: 66, dtype: object

>  <hbond:SER:67>  (68) 
hbond:SER:67    NaN
hbond:SER:67     -1
Name: 66, dtype: object

>  <halogenbond:SER:67>  (68) 
halogenbond:SER:67    NaN
halogenbond:SER:67     -1
Name: 66, dtype: object

>  <hbond:ARG:68>  (68) 
hbond:ARG:68    NaN
hbond:ARG:68     -1
Name: 66, dtype: object

>  <saltbridge:ARG:68>  (68) 
saltbridge:ARG:68    NaN
saltbridge:ARG:68     -1
Name: 66, dtype: object

>  <hydroph_interaction:ARG:68>  (68) 
hydroph_interaction:ARG:68    NaN
hydroph_interaction:ARG:68     -1
Name: 66, dtype: object

>  <pication:ARG:68>  (68) 
pication:ARG:68    NaN
pication:ARG:68     -1
Name: 66, dtype: object

>  <hydroph_interaction:TYR:72>  (68) 
hydroph_interaction:TYR:72    NaN
hydroph_interaction:TYR:72     -1
Name: 66, dtype: object

>  <hydroph_interaction:VAL:74>  (68) 
hydroph_interaction:VAL:74    NaN
hydroph_interaction:VAL:74     -1
Name: 66, dtype: object

>  <hydroph_interaction:PHE:76>  (68) 
hydroph_interaction:PHE:76    NaN
hydroph_interaction:PHE:76     -1
Name: 66, dtype: object

>  <hbond:SER:77>  (68) 
hbond:SER:77    NaN
hbond:SER:77     -1
Name: 66, dtype: object

>  <hbond:SER:80>  (68) 
hbond:SER:80    NaN
hbond:SER:80     -1
Name: 66, dtype: object

>  <hbond:LEU:81>  (68) 
hbond:LEU:81    NaN
hbond:LEU:81     -1
Name: 66, dtype: object

>  <halogenbond:LEU:81>  (68) 
halogenbond:LEU:81    NaN
halogenbond:LEU:81     -1
Name: 66, dtype: object

>  <hydroph_interaction:LEU:81>  (68) 
hydroph_interaction:LEU:81    NaN
hydroph_interaction:LEU:81     -1
Name: 66, dtype: object

>  <hydroph_interaction:ILE:82>  (68) 
hydroph_interaction:ILE:82    NaN
hydroph_interaction:ILE:82     -1
Name: 66, dtype: object

>  <halogenbond:ILE:82>  (68) 
halogenbond:ILE:82    NaN
halogenbond:ILE:82     -1
Name: 66, dtype: object

>  <hbond:ILE:82>  (68) 
hbond:ILE:82    NaN
hbond:ILE:82     -1
Name: 66, dtype: object

>  <hbond:PHE:83>  (68) 
hbond:PHE:83    NaN
hbond:PHE:83     -1
Name: 66, dtype: object

>  <hydroph_interaction:PHE:83>  (68) 
hydroph_interaction:PHE:83    NaN
hydroph_interaction:PHE:83     -1
Name: 66, dtype: object

>  <halogenbond:PHE:83>  (68) 
halogenbond:PHE:83    NaN
halogenbond:PHE:83     -1
Name: 66, dtype: object

>  <pistack:PHE:83>  (68) 
pistack:PHE:83    NaN
pistack:PHE:83     -1
Name: 66, dtype: object

>  <pication:PHE:83>  (68) 
pication:PHE:83    NaN
pication:PHE:83     -1
Name: 66, dtype: object

>  <hydroph_interaction:VAL:84>  (68) 
hydroph_interaction:VAL:84    0.0
hydroph_interaction:VAL:84      0
Name: 66, dtype: object

>  <halogenbond:VAL:84>  (68) 
halogenbond:VAL:84    NaN
halogenbond:VAL:84     -1
Name: 66, dtype: object

>  <hbond:VAL:84>  (68) 
hbond:VAL:84    NaN
hbond:VAL:84     -1
Name: 66, dtype: object

>  <hydroph_interaction:GLU:85>  (68) 
hydroph_interaction:GLU:85    0.0
hydroph_interaction:GLU:85      0
Name: 66, dtype: object

>  <hbond:GLU:85>  (68) 
hbond:GLU:85    0.0
hbond:GLU:85      0
Name: 66, dtype: object

>  <halogenbond:GLU:85>  (68) 
halogenbond:GLU:85    NaN
halogenbond:GLU:85     -1
Name: 66, dtype: object

>  <saltbridge:GLU:85>  (68) 
saltbridge:GLU:85    NaN
saltbridge:GLU:85     -1
Name: 66, dtype: object

>  <halogenbond:ALA:86>  (68) 
halogenbond:ALA:86    NaN
halogenbond:ALA:86     -1
Name: 66, dtype: object

>  <hbond:ALA:86>  (68) 
hbond:ALA:86    0.0
hbond:ALA:86      0
Name: 66, dtype: object

>  <hydroph_interaction:ALA:86>  (68) 
hydroph_interaction:ALA:86    NaN
hydroph_interaction:ALA:86     -1
Name: 66, dtype: object

>  <hbond:SER:87>  (68) 
hbond:SER:87    0
hbond:SER:87    0
Name: 66, dtype: object

>  <halogenbond:SER:87>  (68) 
halogenbond:SER:87    NaN
halogenbond:SER:87     -1
Name: 66, dtype: object

>  <hbond:GLU:88>  (68) 
hbond:GLU:88    0.0
hbond:GLU:88      0
Name: 66, dtype: object

>  <hydroph_interaction:GLU:88>  (68) 
hydroph_interaction:GLU:88    0.0
hydroph_interaction:GLU:88      0
Name: 66, dtype: object

>  <halogenbond:GLU:88>  (68) 
halogenbond:GLU:88    0.0
halogenbond:GLU:88      0
Name: 66, dtype: object

>  <saltbridge:GLU:88>  (68) 
saltbridge:GLU:88    NaN
saltbridge:GLU:88     -1
Name: 66, dtype: object

>  <hydroph_interaction:TYR:89>  (68) 
hydroph_interaction:TYR:89    1.0
hydroph_interaction:TYR:89      1
Name: 66, dtype: object

>  <pistack:TYR:89>  (68) 
pistack:TYR:89    NaN
pistack:TYR:89     -1
Name: 66, dtype: object

>  <hbond:TYR:89>  (68) 
hbond:TYR:89    NaN
hbond:TYR:89     -1
Name: 66, dtype: object

>  <halogenbond:TYR:89>  (68) 
halogenbond:TYR:89    NaN
halogenbond:TYR:89     -1
Name: 66, dtype: object

>  <hydroph_interaction:TYR:90>  (68) 
hydroph_interaction:TYR:90    1.0
hydroph_interaction:TYR:90      1
Name: 66, dtype: object

>  <hbond:TYR:90>  (68) 
hbond:TYR:90    0.0
hbond:TYR:90      0
Name: 66, dtype: object

>  <pistack:TYR:90>  (68) 
pistack:TYR:90    NaN
pistack:TYR:90     -1
Name: 66, dtype: object

>  <halogenbond:TYR:90>  (68) 
halogenbond:TYR:90    NaN
halogenbond:TYR:90     -1
Name: 66, dtype: object

>  <pication:TYR:90>  (68) 
pication:TYR:90    NaN
pication:TYR:90     -1
Name: 66, dtype: object

>  <hbond:PRO:91>  (68) 
hbond:PRO:91    NaN
hbond:PRO:91     -1
Name: 66, dtype: object

>  <hydroph_interaction:PRO:91>  (68) 
hydroph_interaction:PRO:91    NaN
hydroph_interaction:PRO:91     -1
Name: 66, dtype: object

>  <halogenbond:PRO:91>  (68) 
halogenbond:PRO:91    NaN
halogenbond:PRO:91     -1
Name: 66, dtype: object

>  <hbond:ALA:92>  (68) 
hbond:ALA:92    NaN
hbond:ALA:92     -1
Name: 66, dtype: object

>  <hydroph_interaction:ALA:92>  (68) 
hydroph_interaction:ALA:92    NaN
hydroph_interaction:ALA:92     -1
Name: 66, dtype: object

>  <saltbridge:ARG:93>  (68) 
saltbridge:ARG:93    NaN
saltbridge:ARG:93     -1
Name: 66, dtype: object

>  <hbond:ARG:93>  (68) 
hbond:ARG:93    NaN
hbond:ARG:93     -1
Name: 66, dtype: object

>  <hydroph_interaction:ARG:93>  (68) 
hydroph_interaction:ARG:93    0.0
hydroph_interaction:ARG:93      0
Name: 66, dtype: object

>  <halogenbond:ARG:93>  (68) 
halogenbond:ARG:93    0.0
halogenbond:ARG:93      0
Name: 66, dtype: object

>  <pication:ARG:93>  (68) 
pication:ARG:93    NaN
pication:ARG:93     -1
Name: 66, dtype: object

>  <hydroph_interaction:TYR:94>  (68) 
hydroph_interaction:TYR:94    NaN
hydroph_interaction:TYR:94     -1
Name: 66, dtype: object

>  <pistack:TYR:94>  (68) 
pistack:TYR:94    NaN
pistack:TYR:94     -1
Name: 66, dtype: object

>  <hbond:TYR:94>  (68) 
hbond:TYR:94    NaN
hbond:TYR:94     -1
Name: 66, dtype: object

>  <hbond:GLN:95>  (68) 
hbond:GLN:95    0.0
hbond:GLN:95      0
Name: 66, dtype: object

>  <hydroph_interaction:GLN:95>  (68) 
hydroph_interaction:GLN:95    NaN
hydroph_interaction:GLN:95     -1
Name: 66, dtype: object

>  <halogenbond:GLN:95>  (68) 
halogenbond:GLN:95    0.0
halogenbond:GLN:95      0
Name: 66, dtype: object

>  <hbond:SER:96>  (68) 
hbond:SER:96    NaN
hbond:SER:96     -1
Name: 66, dtype: object

>  <halogenbond:HIS:97>  (68) 
halogenbond:HIS:97    NaN
halogenbond:HIS:97     -1
Name: 66, dtype: object

>  <hydroph_interaction:LEU:98>  (68) 
hydroph_interaction:LEU:98    NaN
hydroph_interaction:LEU:98     -1
Name: 66, dtype: object

>  <hbond:LEU:98>  (68) 
hbond:LEU:98    NaN
hbond:LEU:98     -1
Name: 66, dtype: object

>  <halogenbond:LEU:98>  (68) 
halogenbond:LEU:98    NaN
halogenbond:LEU:98     -1
Name: 66, dtype: object

>  <hbond:MET:99>  (68) 
hbond:MET:99    NaN
hbond:MET:99     -1
Name: 66, dtype: object

>  <hydroph_interaction:MET:99>  (68) 
hydroph_interaction:MET:99    NaN
hydroph_interaction:MET:99     -1
Name: 66, dtype: object

>  <halogenbond:MET:99>  (68) 
halogenbond:MET:99    NaN
halogenbond:MET:99     -1
Name: 66, dtype: object

>  <hydroph_interaction:LEU:100>  (68) 
hydroph_interaction:LEU:100    NaN
hydroph_interaction:LEU:100     -1
Name: 66, dtype: object

>  <hbond:LEU:100>  (68) 
hbond:LEU:100    NaN
hbond:LEU:100     -1
Name: 66, dtype: object

>  <hbond:ALA:101>  (68) 
hbond:ALA:101    NaN
hbond:ALA:101     -1
Name: 66, dtype: object

>  <hydroph_interaction:ALA:101>  (68) 
hydroph_interaction:ALA:101    NaN
hydroph_interaction:ALA:101     -1
Name: 66, dtype: object

>  <hydroph_interaction:VAL:102>  (68) 
hydroph_interaction:VAL:102    NaN
hydroph_interaction:VAL:102     -1
Name: 66, dtype: object

>  <hbond:VAL:102>  (68) 
hbond:VAL:102    NaN
hbond:VAL:102     -1
Name: 66, dtype: object

>  <hbond:GLY:103>  (68) 
hbond:GLY:103    NaN
hbond:GLY:103     -1
Name: 66, dtype: object

>  <halogenbond:GLY:103>  (68) 
halogenbond:GLY:103    NaN
halogenbond:GLY:103     -1
Name: 66, dtype: object

>  <hbond:HIS:104>  (68) 
hbond:HIS:104    NaN
hbond:HIS:104     -1
Name: 66, dtype: object

>  <saltbridge:HIS:104>  (68) 
saltbridge:HIS:104    NaN
saltbridge:HIS:104     -1
Name: 66, dtype: object

>  <pication:HIS:104>  (68) 
pication:HIS:104    NaN
pication:HIS:104     -1
Name: 66, dtype: object

>  <halogenbond:HIS:104>  (68) 
halogenbond:HIS:104    NaN
halogenbond:HIS:104     -1
Name: 66, dtype: object

>  <hydroph_interaction:HIS:104>  (68) 
hydroph_interaction:HIS:104    NaN
hydroph_interaction:HIS:104     -1
Name: 66, dtype: object

>  <pistack:HIS:104>  (68) 
pistack:HIS:104    NaN
pistack:HIS:104     -1
Name: 66, dtype: object

>  <halogenbond:SER:105>  (68) 
halogenbond:SER:105    0.0
halogenbond:SER:105      0
Name: 66, dtype: object

>  <hbond:SER:105>  (68) 
hbond:SER:105    0.0
hbond:SER:105      0
Name: 66, dtype: object

>  <hbond:GLU:106>  (68) 
hbond:GLU:106    0.0
hbond:GLU:106      0
Name: 66, dtype: object

>  <hydroph_interaction:GLU:106>  (68) 
hydroph_interaction:GLU:106    NaN
hydroph_interaction:GLU:106     -1
Name: 66, dtype: object

>  <saltbridge:GLU:106>  (68) 
saltbridge:GLU:106    NaN
saltbridge:GLU:106     -1
Name: 66, dtype: object

>  <halogenbond:GLU:106>  (68) 
halogenbond:GLU:106    NaN
halogenbond:GLU:106     -1
Name: 66, dtype: object

>  <hydroph_interaction:PRO:107>  (68) 
hydroph_interaction:PRO:107    0
hydroph_interaction:PRO:107    0
Name: 66, dtype: object

>  <hbond:PRO:107>  (68) 
hbond:PRO:107    0.0
hbond:PRO:107      0
Name: 66, dtype: object

>  <halogenbond:PRO:107>  (68) 
halogenbond:PRO:107    NaN
halogenbond:PRO:107     -1
Name: 66, dtype: object

>  <hbond:GLY:108>  (68) 
hbond:GLY:108    NaN
hbond:GLY:108     -1
Name: 66, dtype: object

>  <halogenbond:GLY:108>  (68) 
halogenbond:GLY:108    NaN
halogenbond:GLY:108     -1
Name: 66, dtype: object

>  <hbond:ASP:109>  (68) 
hbond:ASP:109    0.0
hbond:ASP:109      0
Name: 66, dtype: object

>  <hydroph_interaction:ASP:109>  (68) 
hydroph_interaction:ASP:109    0.0
hydroph_interaction:ASP:109      0
Name: 66, dtype: object

>  <saltbridge:ASP:109>  (68) 
saltbridge:ASP:109    NaN
saltbridge:ASP:109     -1
Name: 66, dtype: object

>  <halogenbond:CYS:110>  (68) 
halogenbond:CYS:110    NaN
halogenbond:CYS:110     -1
Name: 66, dtype: object

>  <hbond:CYS:110>  (68) 
hbond:CYS:110    NaN
hbond:CYS:110     -1
Name: 66, dtype: object

>  <hbond:GLY:111>  (68) 
hbond:GLY:111    NaN
hbond:GLY:111     -1
Name: 66, dtype: object

>  <hbond:GLY:112>  (68) 
hbond:GLY:112    NaN
hbond:GLY:112     -1
Name: 66, dtype: object

>  <hbond:ILE:113>  (68) 
hbond:ILE:113    NaN
hbond:ILE:113     -1
Name: 66, dtype: object

>  <hydroph_interaction:LEU:114>  (68) 
hydroph_interaction:LEU:114    NaN
hydroph_interaction:LEU:114     -1
Name: 66, dtype: object

>  <hbond:LEU:114>  (68) 
hbond:LEU:114    NaN
hbond:LEU:114     -1
Name: 66, dtype: object

>  <hydroph_interaction:ILE:123>  (68) 
hydroph_interaction:ILE:123    NaN
hydroph_interaction:ILE:123     -1
Name: 66, dtype: object

>  <hbond:ILE:123>  (68) 
hbond:ILE:123    NaN
hbond:ILE:123     -1
Name: 66, dtype: object

>  <hydroph_interaction:VAL:124>  (68) 
hydroph_interaction:VAL:124    0.0
hydroph_interaction:VAL:124      0
Name: 66, dtype: object

>  <hbond:VAL:124>  (68) 
hbond:VAL:124    NaN
hbond:VAL:124     -1
Name: 66, dtype: object

>  <halogenbond:VAL:124>  (68) 
halogenbond:VAL:124    NaN
halogenbond:VAL:124     -1
Name: 66, dtype: object

>  <hbond:SER:125>  (68) 
hbond:SER:125    0
hbond:SER:125    0
Name: 66, dtype: object

>  <halogenbond:SER:125>  (68) 
halogenbond:SER:125    0.0
halogenbond:SER:125      0
Name: 66, dtype: object

>  <hydroph_interaction:THR:126>  (68) 
hydroph_interaction:THR:126    0.0
hydroph_interaction:THR:126      0
Name: 66, dtype: object

>  <hbond:THR:126>  (68) 
hbond:THR:126    NaN
hbond:THR:126     -1
Name: 66, dtype: object

>  <halogenbond:THR:126>  (68) 
halogenbond:THR:126    NaN
halogenbond:THR:126     -1
Name: 66, dtype: object

>  <hbond:GLY:127>  (68) 
hbond:GLY:127    0
hbond:GLY:127    0
Name: 66, dtype: object

>  <halogenbond:GLY:127>  (68) 
halogenbond:GLY:127    NaN
halogenbond:GLY:127     -1
Name: 66, dtype: object

>  <hydroph_interaction:GLY:127>  (68) 
hydroph_interaction:GLY:127    NaN
hydroph_interaction:GLY:127     -1
Name: 66, dtype: object

>  <hbond:GLY:128>  (68) 
hbond:GLY:128    NaN
hbond:GLY:128     -1
Name: 66, dtype: object

>  <halogenbond:GLY:128>  (68) 
halogenbond:GLY:128    NaN
halogenbond:GLY:128     -1
Name: 66, dtype: object

>  <hydroph_interaction:GLY:128>  (68) 
hydroph_interaction:GLY:128    NaN
hydroph_interaction:GLY:128     -1
Name: 66, dtype: object

>  <hbond:ASN:129>  (68) 
hbond:ASN:129    NaN
hbond:ASN:129     -1
Name: 66, dtype: object

>  <hydroph_interaction:ASN:129>  (68) 
hydroph_interaction:ASN:129    NaN
hydroph_interaction:ASN:129     -1
Name: 66, dtype: object

>  <halogenbond:ASN:129>  (68) 
halogenbond:ASN:129    NaN
halogenbond:ASN:129     -1
Name: 66, dtype: object

>  <hbond:GLY:130>  (68) 
hbond:GLY:130    NaN
hbond:GLY:130     -1
Name: 66, dtype: object

>  <hbond:LEU:131>  (68) 
hbond:LEU:131    NaN
hbond:LEU:131     -1
Name: 66, dtype: object

>  <hydroph_interaction:LEU:131>  (68) 
hydroph_interaction:LEU:131    NaN
hydroph_interaction:LEU:131     -1
Name: 66, dtype: object

>  <halogenbond:LEU:131>  (68) 
halogenbond:LEU:131    NaN
halogenbond:LEU:131     -1
Name: 66, dtype: object

>  <hydroph_interaction:VAL:132>  (68) 
hydroph_interaction:VAL:132    0.0
hydroph_interaction:VAL:132      0
Name: 66, dtype: object

>  <hbond:VAL:132>  (68) 
hbond:VAL:132    NaN
hbond:VAL:132     -1
Name: 66, dtype: object

>  <hbond:GLY:133>  (68) 
hbond:GLY:133    NaN
hbond:GLY:133     -1
Name: 66, dtype: object

>  <halogenbond:GLY:133>  (68) 
halogenbond:GLY:133    NaN
halogenbond:GLY:133     -1
Name: 66, dtype: object

>  <hydroph_interaction:PHE:134>  (68) 
hydroph_interaction:PHE:134    NaN
hydroph_interaction:PHE:134     -1
Name: 66, dtype: object

>  <hbond:PHE:134>  (68) 
hbond:PHE:134    NaN
hbond:PHE:134     -1
Name: 66, dtype: object

>  <pistack:PHE:134>  (68) 
pistack:PHE:134    NaN
pistack:PHE:134     -1
Name: 66, dtype: object

>  <pication:PHE:134>  (68) 
pication:PHE:134    NaN
pication:PHE:134     -1
Name: 66, dtype: object

>  <halogenbond:PHE:134>  (68) 
halogenbond:PHE:134    NaN
halogenbond:PHE:134     -1
Name: 66, dtype: object

>  <hydroph_interaction:ALA:135>  (68) 
hydroph_interaction:ALA:135    NaN
hydroph_interaction:ALA:135     -1
Name: 66, dtype: object

>  <hbond:ALA:135>  (68) 
hbond:ALA:135    NaN
hbond:ALA:135     -1
Name: 66, dtype: object

$$$$
Z1332892882
     RDKit          3D

 17 18  0  0  0  0  0  0  0  0999 V2000
   30.7109    8.4001    8.7659 C   0  0  0  0  0  0  0  0  0  0  0  0
   31.0933    9.5546    8.0029 N   0  0  0  0  0  0  0  0  0  0  0  0
   32.0250    9.6341    7.0044 C   0  0  0  0  0  0  0  0  0  0  0  0
   32.0522   10.9487    6.5795 C   0  0  0  0  0  0  0  0  0  0  0  0
   31.1036   11.6659    7.3531 C   0  0  0  0  0  0  0  0  0  0  0  0
   30.6582   12.9776    7.4325 C   0  0  0  0  0  0  0  0  0  0  0  0
   29.7179   13.2662    8.3720 N   0  0  0  0  0  0  0  0  0  0  0  0
   28.5395   13.8361    7.9568 C   0  0  0  0  0  0  0  0  0  0  0  0
   28.3221   15.4182    8.4466 S   0  0  0  0  0  0  0  0  0  0  0  0
   27.7024   13.0468    7.1550 N   0  0  0  0  0  0  0  0  0  0  0  0
   26.3800   13.0850    6.6851 C   0  0  0  0  0  0  0  0  0  0  0  0
   25.6978   11.9518    6.2631 C   0  0  0  0  0  0  0  0  0  0  0  0
   24.3880   11.9819    5.7957 C   0  0  0  0  0  0  0  0  0  0  0  0
   23.7150   13.1855    5.7395 C   0  0  0  0  0  0  0  0  0  0  0  0
   24.3587   14.3326    6.1528 C   0  0  0  0  0  0  0  0  0  0  0  0
   25.6798   14.2861    6.6214 C   0  0  0  0  0  0  0  0  0  0  0  0
   30.5312   10.7718    8.2126 C   0  0  0  0  0  0  0  0  0  0  0  0
  1  2  1  0
  2  3  1  0
  3  4  2  0
  4  5  1  0
  5  6  1  0
  6  7  1  0
  7  8  1  0
  8  9  2  0
  8 10  1  0
 10 11  1  0
 11 12  2  0
 12 13  1  0
 13 14  2  0
 14 15  1  0
 15 16  2  0
  5 17  2  0
 17  2  1  0
 16 11  1  0
A    1
 C1 
A    2
 N1 
A    3
 C2 
A    4
 C3 
A    5
 C4 
A    6
 C5 
A    7
 N2 
A    8
 C6 
A    9
 S1 
A   10
 N3 
A   11
 C7 
A   12
 C8 
A   13
 C9 
A   14
 C10
A   15
 C11
A   16
 C12
A   17
 C13
M  END
>  <ref_pdb>  (69) 
Ax0310a

>  <ref_mols>  (69) 
Ax0451a,Ax0416a

>  <original SMILES>  (69) 
Cn1ccc(CNC(=S)Nc2ccccc2)c1

>  <rationale>  (69) 
info halogenbond:C110+G127+D39+S125+E85+E106+T126+P107+H104+Y64+C65+S87+N129+F83+R93+L131+I82+G128+P91+N19+H21+V84+G133+Y90+Y89+H97+L81+F134+L98+R20+G103+S66+S67+S7+G108+R38+V124+M99+S36; hbond:S125+Y90+P107+Q95+C110+D109+E85+G108+G103+G128+G130+L131+N129+H104+R68+V124+P91+F83+S67+S7+S66+G112+G133+V132+R20+Y89+S77+A135+Y63+A92+A101+M99+F134+L100+I82+Y64+S36+L98+V84+L81+Y94+S80+R38+S37+V102+G8+I123+G111+I113+L114+C65+L22+S96; hydroph_interaction:Y89+H21+P107+L22+D109+N129+L40+I123+A135+Q95+I82+L100+L98+L131+F83+V132+Y63+F134+H104+V74+P91+A101+F76+M99+L114+A92+Y94+R68+Y72+Y64+V18+V102+W28+G127+G128+L81; pication:H104+R93+Y63+F134+Y90+R68+F83+R20; pistack:H21+H104+F134+Y63+F83+Y94; saltbridge:R93+H104+E106+D109+E85+R68+R20; 

>  <intxn_cluster>  (69) 
-1

>  <intxn_cluster_rank>  (69) 
-1

>  <N_interactions>  (69) 
7

>  <∆∆G>  (69) 
-12.294432

>  <$/mg>  (69) 
163.0

>  <comRMSD>  (69) 
0.675825

>  <N_rotatable_bonds>  (69) 
4

>  <deep_P1_sidechain>  (69) 
nan

>  <farthest_distance_to_substrate>  (69) 
2.269807

>  <hbond:SER:7>  (69) 
hbond:SER:7    NaN
hbond:SER:7     -1
Name: 67, dtype: object

>  <halogenbond:SER:7>  (69) 
halogenbond:SER:7    NaN
halogenbond:SER:7     -1
Name: 67, dtype: object

>  <hbond:GLY:8>  (69) 
hbond:GLY:8    NaN
hbond:GLY:8     -1
Name: 67, dtype: object

>  <hydroph_interaction:VAL:18>  (69) 
hydroph_interaction:VAL:18    NaN
hydroph_interaction:VAL:18     -1
Name: 67, dtype: object

>  <hbond:ASN:19>  (69) 
hbond:ASN:19    0.0
hbond:ASN:19      0
Name: 67, dtype: object

>  <hydroph_interaction:ASN:19>  (69) 
hydroph_interaction:ASN:19    0.0
hydroph_interaction:ASN:19      0
Name: 67, dtype: object

>  <halogenbond:ASN:19>  (69) 
halogenbond:ASN:19    NaN
halogenbond:ASN:19     -1
Name: 67, dtype: object

>  <hbond:ARG:20>  (69) 
hbond:ARG:20    NaN
hbond:ARG:20     -1
Name: 67, dtype: object

>  <hydroph_interaction:ARG:20>  (69) 
hydroph_interaction:ARG:20    0.0
hydroph_interaction:ARG:20      0
Name: 67, dtype: object

>  <saltbridge:ARG:20>  (69) 
saltbridge:ARG:20    NaN
saltbridge:ARG:20     -1
Name: 67, dtype: object

>  <halogenbond:ARG:20>  (69) 
halogenbond:ARG:20    NaN
halogenbond:ARG:20     -1
Name: 67, dtype: object

>  <pication:ARG:20>  (69) 
pication:ARG:20    NaN
pication:ARG:20     -1
Name: 67, dtype: object

>  <hbond:HIS:21>  (69) 
hbond:HIS:21    0.0
hbond:HIS:21      0
Name: 67, dtype: object

>  <hydroph_interaction:HIS:21>  (69) 
hydroph_interaction:HIS:21    1.0
hydroph_interaction:HIS:21      1
Name: 67, dtype: object

>  <pistack:HIS:21>  (69) 
pistack:HIS:21    1.0
pistack:HIS:21      1
Name: 67, dtype: object

>  <pication:HIS:21>  (69) 
pication:HIS:21    0.0
pication:HIS:21      0
Name: 67, dtype: object

>  <saltbridge:HIS:21>  (69) 
saltbridge:HIS:21    0.0
saltbridge:HIS:21      0
Name: 67, dtype: object

>  <halogenbond:HIS:21>  (69) 
halogenbond:HIS:21    NaN
halogenbond:HIS:21     -1
Name: 67, dtype: object

>  <hydroph_interaction:LEU:22>  (69) 
hydroph_interaction:LEU:22    1.0
hydroph_interaction:LEU:22      1
Name: 67, dtype: object

>  <hbond:LEU:22>  (69) 
hbond:LEU:22    NaN
hbond:LEU:22     -1
Name: 67, dtype: object

>  <hydroph_interaction:TRP:28>  (69) 
hydroph_interaction:TRP:28    NaN
hydroph_interaction:TRP:28     -1
Name: 67, dtype: object

>  <hbond:SER:36>  (69) 
hbond:SER:36    NaN
hbond:SER:36     -1
Name: 67, dtype: object

>  <halogenbond:SER:36>  (69) 
halogenbond:SER:36    NaN
halogenbond:SER:36     -1
Name: 67, dtype: object

>  <hbond:SER:37>  (69) 
hbond:SER:37    NaN
hbond:SER:37     -1
Name: 67, dtype: object

>  <hbond:ARG:38>  (69) 
hbond:ARG:38    NaN
hbond:ARG:38     -1
Name: 67, dtype: object

>  <halogenbond:ARG:38>  (69) 
halogenbond:ARG:38    NaN
halogenbond:ARG:38     -1
Name: 67, dtype: object

>  <saltbridge:ASP:39>  (69) 
saltbridge:ASP:39    0.0
saltbridge:ASP:39      0
Name: 67, dtype: object

>  <halogenbond:ASP:39>  (69) 
halogenbond:ASP:39    NaN
halogenbond:ASP:39     -1
Name: 67, dtype: object

>  <hbond:ASP:39>  (69) 
hbond:ASP:39    0.0
hbond:ASP:39      0
Name: 67, dtype: object

>  <hydroph_interaction:ASP:39>  (69) 
hydroph_interaction:ASP:39    0.0
hydroph_interaction:ASP:39      0
Name: 67, dtype: object

>  <hydroph_interaction:LEU:40>  (69) 
hydroph_interaction:LEU:40    NaN
hydroph_interaction:LEU:40     -1
Name: 67, dtype: object

>  <hydroph_interaction:TYR:63>  (69) 
hydroph_interaction:TYR:63    NaN
hydroph_interaction:TYR:63     -1
Name: 67, dtype: object

>  <hbond:TYR:63>  (69) 
hbond:TYR:63    NaN
hbond:TYR:63     -1
Name: 67, dtype: object

>  <pistack:TYR:63>  (69) 
pistack:TYR:63    NaN
pistack:TYR:63     -1
Name: 67, dtype: object

>  <pication:TYR:63>  (69) 
pication:TYR:63    NaN
pication:TYR:63     -1
Name: 67, dtype: object

>  <halogenbond:TYR:64>  (69) 
halogenbond:TYR:64    NaN
halogenbond:TYR:64     -1
Name: 67, dtype: object

>  <hbond:TYR:64>  (69) 
hbond:TYR:64    NaN
hbond:TYR:64     -1
Name: 67, dtype: object

>  <hydroph_interaction:TYR:64>  (69) 
hydroph_interaction:TYR:64    NaN
hydroph_interaction:TYR:64     -1
Name: 67, dtype: object

>  <halogenbond:CYS:65>  (69) 
halogenbond:CYS:65    NaN
halogenbond:CYS:65     -1
Name: 67, dtype: object

>  <hbond:CYS:65>  (69) 
hbond:CYS:65    NaN
hbond:CYS:65     -1
Name: 67, dtype: object

>  <hbond:SER:66>  (69) 
hbond:SER:66    NaN
hbond:SER:66     -1
Name: 67, dtype: object

>  <halogenbond:SER:66>  (69) 
halogenbond:SER:66    NaN
halogenbond:SER:66     -1
Name: 67, dtype: object

>  <hbond:SER:67>  (69) 
hbond:SER:67    NaN
hbond:SER:67     -1
Name: 67, dtype: object

>  <halogenbond:SER:67>  (69) 
halogenbond:SER:67    NaN
halogenbond:SER:67     -1
Name: 67, dtype: object

>  <hbond:ARG:68>  (69) 
hbond:ARG:68    NaN
hbond:ARG:68     -1
Name: 67, dtype: object

>  <saltbridge:ARG:68>  (69) 
saltbridge:ARG:68    NaN
saltbridge:ARG:68     -1
Name: 67, dtype: object

>  <hydroph_interaction:ARG:68>  (69) 
hydroph_interaction:ARG:68    NaN
hydroph_interaction:ARG:68     -1
Name: 67, dtype: object

>  <pication:ARG:68>  (69) 
pication:ARG:68    NaN
pication:ARG:68     -1
Name: 67, dtype: object

>  <hydroph_interaction:TYR:72>  (69) 
hydroph_interaction:TYR:72    NaN
hydroph_interaction:TYR:72     -1
Name: 67, dtype: object

>  <hydroph_interaction:VAL:74>  (69) 
hydroph_interaction:VAL:74    NaN
hydroph_interaction:VAL:74     -1
Name: 67, dtype: object

>  <hydroph_interaction:PHE:76>  (69) 
hydroph_interaction:PHE:76    NaN
hydroph_interaction:PHE:76     -1
Name: 67, dtype: object

>  <hbond:SER:77>  (69) 
hbond:SER:77    NaN
hbond:SER:77     -1
Name: 67, dtype: object

>  <hbond:SER:80>  (69) 
hbond:SER:80    NaN
hbond:SER:80     -1
Name: 67, dtype: object

>  <hbond:LEU:81>  (69) 
hbond:LEU:81    NaN
hbond:LEU:81     -1
Name: 67, dtype: object

>  <halogenbond:LEU:81>  (69) 
halogenbond:LEU:81    NaN
halogenbond:LEU:81     -1
Name: 67, dtype: object

>  <hydroph_interaction:LEU:81>  (69) 
hydroph_interaction:LEU:81    NaN
hydroph_interaction:LEU:81     -1
Name: 67, dtype: object

>  <hydroph_interaction:ILE:82>  (69) 
hydroph_interaction:ILE:82    NaN
hydroph_interaction:ILE:82     -1
Name: 67, dtype: object

>  <halogenbond:ILE:82>  (69) 
halogenbond:ILE:82    NaN
halogenbond:ILE:82     -1
Name: 67, dtype: object

>  <hbond:ILE:82>  (69) 
hbond:ILE:82    NaN
hbond:ILE:82     -1
Name: 67, dtype: object

>  <hbond:PHE:83>  (69) 
hbond:PHE:83    NaN
hbond:PHE:83     -1
Name: 67, dtype: object

>  <hydroph_interaction:PHE:83>  (69) 
hydroph_interaction:PHE:83    NaN
hydroph_interaction:PHE:83     -1
Name: 67, dtype: object

>  <halogenbond:PHE:83>  (69) 
halogenbond:PHE:83    NaN
halogenbond:PHE:83     -1
Name: 67, dtype: object

>  <pistack:PHE:83>  (69) 
pistack:PHE:83    NaN
pistack:PHE:83     -1
Name: 67, dtype: object

>  <pication:PHE:83>  (69) 
pication:PHE:83    NaN
pication:PHE:83     -1
Name: 67, dtype: object

>  <hydroph_interaction:VAL:84>  (69) 
hydroph_interaction:VAL:84    0.0
hydroph_interaction:VAL:84      0
Name: 67, dtype: object

>  <halogenbond:VAL:84>  (69) 
halogenbond:VAL:84    NaN
halogenbond:VAL:84     -1
Name: 67, dtype: object

>  <hbond:VAL:84>  (69) 
hbond:VAL:84    NaN
hbond:VAL:84     -1
Name: 67, dtype: object

>  <hydroph_interaction:GLU:85>  (69) 
hydroph_interaction:GLU:85    0.0
hydroph_interaction:GLU:85      0
Name: 67, dtype: object

>  <hbond:GLU:85>  (69) 
hbond:GLU:85    NaN
hbond:GLU:85     -1
Name: 67, dtype: object

>  <halogenbond:GLU:85>  (69) 
halogenbond:GLU:85    NaN
halogenbond:GLU:85     -1
Name: 67, dtype: object

>  <saltbridge:GLU:85>  (69) 
saltbridge:GLU:85    NaN
saltbridge:GLU:85     -1
Name: 67, dtype: object

>  <halogenbond:ALA:86>  (69) 
halogenbond:ALA:86    0.0
halogenbond:ALA:86      0
Name: 67, dtype: object

>  <hbond:ALA:86>  (69) 
hbond:ALA:86    0.0
hbond:ALA:86      0
Name: 67, dtype: object

>  <hydroph_interaction:ALA:86>  (69) 
hydroph_interaction:ALA:86    0.0
hydroph_interaction:ALA:86      0
Name: 67, dtype: object

>  <hbond:SER:87>  (69) 
hbond:SER:87    0
hbond:SER:87    0
Name: 67, dtype: object

>  <halogenbond:SER:87>  (69) 
halogenbond:SER:87    NaN
halogenbond:SER:87     -1
Name: 67, dtype: object

>  <hbond:GLU:88>  (69) 
hbond:GLU:88    0.0
hbond:GLU:88      0
Name: 67, dtype: object

>  <hydroph_interaction:GLU:88>  (69) 
hydroph_interaction:GLU:88    0.0
hydroph_interaction:GLU:88      0
Name: 67, dtype: object

>  <halogenbond:GLU:88>  (69) 
halogenbond:GLU:88    0.0
halogenbond:GLU:88      0
Name: 67, dtype: object

>  <saltbridge:GLU:88>  (69) 
saltbridge:GLU:88    0.0
saltbridge:GLU:88      0
Name: 67, dtype: object

>  <hydroph_interaction:TYR:89>  (69) 
hydroph_interaction:TYR:89    2.0
hydroph_interaction:TYR:89      2
Name: 67, dtype: object

>  <pistack:TYR:89>  (69) 
pistack:TYR:89    0.0
pistack:TYR:89      0
Name: 67, dtype: object

>  <hbond:TYR:89>  (69) 
hbond:TYR:89    NaN
hbond:TYR:89     -1
Name: 67, dtype: object

>  <halogenbond:TYR:89>  (69) 
halogenbond:TYR:89    NaN
halogenbond:TYR:89     -1
Name: 67, dtype: object

>  <hydroph_interaction:TYR:90>  (69) 
hydroph_interaction:TYR:90    0.0
hydroph_interaction:TYR:90      0
Name: 67, dtype: object

>  <hbond:TYR:90>  (69) 
hbond:TYR:90    NaN
hbond:TYR:90     -1
Name: 67, dtype: object

>  <pistack:TYR:90>  (69) 
pistack:TYR:90    0.0
pistack:TYR:90      0
Name: 67, dtype: object

>  <halogenbond:TYR:90>  (69) 
halogenbond:TYR:90    NaN
halogenbond:TYR:90     -1
Name: 67, dtype: object

>  <pication:TYR:90>  (69) 
pication:TYR:90    NaN
pication:TYR:90     -1
Name: 67, dtype: object

>  <hbond:PRO:91>  (69) 
hbond:PRO:91    NaN
hbond:PRO:91     -1
Name: 67, dtype: object

>  <hydroph_interaction:PRO:91>  (69) 
hydroph_interaction:PRO:91    NaN
hydroph_interaction:PRO:91     -1
Name: 67, dtype: object

>  <halogenbond:PRO:91>  (69) 
halogenbond:PRO:91    NaN
halogenbond:PRO:91     -1
Name: 67, dtype: object

>  <hbond:ALA:92>  (69) 
hbond:ALA:92    NaN
hbond:ALA:92     -1
Name: 67, dtype: object

>  <hydroph_interaction:ALA:92>  (69) 
hydroph_interaction:ALA:92    NaN
hydroph_interaction:ALA:92     -1
Name: 67, dtype: object

>  <saltbridge:ARG:93>  (69) 
saltbridge:ARG:93    NaN
saltbridge:ARG:93     -1
Name: 67, dtype: object

>  <hbond:ARG:93>  (69) 
hbond:ARG:93    0.0
hbond:ARG:93      0
Name: 67, dtype: object

>  <hydroph_interaction:ARG:93>  (69) 
hydroph_interaction:ARG:93    0.0
hydroph_interaction:ARG:93      0
Name: 67, dtype: object

>  <halogenbond:ARG:93>  (69) 
halogenbond:ARG:93    NaN
halogenbond:ARG:93     -1
Name: 67, dtype: object

>  <pication:ARG:93>  (69) 
pication:ARG:93    NaN
pication:ARG:93     -1
Name: 67, dtype: object

>  <hydroph_interaction:TYR:94>  (69) 
hydroph_interaction:TYR:94    NaN
hydroph_interaction:TYR:94     -1
Name: 67, dtype: object

>  <pistack:TYR:94>  (69) 
pistack:TYR:94    NaN
pistack:TYR:94     -1
Name: 67, dtype: object

>  <hbond:TYR:94>  (69) 
hbond:TYR:94    NaN
hbond:TYR:94     -1
Name: 67, dtype: object

>  <hbond:GLN:95>  (69) 
hbond:GLN:95    NaN
hbond:GLN:95     -1
Name: 67, dtype: object

>  <hydroph_interaction:GLN:95>  (69) 
hydroph_interaction:GLN:95    NaN
hydroph_interaction:GLN:95     -1
Name: 67, dtype: object

>  <halogenbond:GLN:95>  (69) 
halogenbond:GLN:95    0.0
halogenbond:GLN:95      0
Name: 67, dtype: object

>  <hbond:SER:96>  (69) 
hbond:SER:96    NaN
hbond:SER:96     -1
Name: 67, dtype: object

>  <halogenbond:HIS:97>  (69) 
halogenbond:HIS:97    NaN
halogenbond:HIS:97     -1
Name: 67, dtype: object

>  <hydroph_interaction:LEU:98>  (69) 
hydroph_interaction:LEU:98    NaN
hydroph_interaction:LEU:98     -1
Name: 67, dtype: object

>  <hbond:LEU:98>  (69) 
hbond:LEU:98    NaN
hbond:LEU:98     -1
Name: 67, dtype: object

>  <halogenbond:LEU:98>  (69) 
halogenbond:LEU:98    NaN
halogenbond:LEU:98     -1
Name: 67, dtype: object

>  <hbond:MET:99>  (69) 
hbond:MET:99    NaN
hbond:MET:99     -1
Name: 67, dtype: object

>  <hydroph_interaction:MET:99>  (69) 
hydroph_interaction:MET:99    NaN
hydroph_interaction:MET:99     -1
Name: 67, dtype: object

>  <halogenbond:MET:99>  (69) 
halogenbond:MET:99    NaN
halogenbond:MET:99     -1
Name: 67, dtype: object

>  <hydroph_interaction:LEU:100>  (69) 
hydroph_interaction:LEU:100    NaN
hydroph_interaction:LEU:100     -1
Name: 67, dtype: object

>  <hbond:LEU:100>  (69) 
hbond:LEU:100    NaN
hbond:LEU:100     -1
Name: 67, dtype: object

>  <hbond:ALA:101>  (69) 
hbond:ALA:101    NaN
hbond:ALA:101     -1
Name: 67, dtype: object

>  <hydroph_interaction:ALA:101>  (69) 
hydroph_interaction:ALA:101    NaN
hydroph_interaction:ALA:101     -1
Name: 67, dtype: object

>  <hydroph_interaction:VAL:102>  (69) 
hydroph_interaction:VAL:102    NaN
hydroph_interaction:VAL:102     -1
Name: 67, dtype: object

>  <hbond:VAL:102>  (69) 
hbond:VAL:102    NaN
hbond:VAL:102     -1
Name: 67, dtype: object

>  <hbond:GLY:103>  (69) 
hbond:GLY:103    NaN
hbond:GLY:103     -1
Name: 67, dtype: object

>  <halogenbond:GLY:103>  (69) 
halogenbond:GLY:103    NaN
halogenbond:GLY:103     -1
Name: 67, dtype: object

>  <hbond:HIS:104>  (69) 
hbond:HIS:104    NaN
hbond:HIS:104     -1
Name: 67, dtype: object

>  <saltbridge:HIS:104>  (69) 
saltbridge:HIS:104    NaN
saltbridge:HIS:104     -1
Name: 67, dtype: object

>  <pication:HIS:104>  (69) 
pication:HIS:104    NaN
pication:HIS:104     -1
Name: 67, dtype: object

>  <halogenbond:HIS:104>  (69) 
halogenbond:HIS:104    NaN
halogenbond:HIS:104     -1
Name: 67, dtype: object

>  <hydroph_interaction:HIS:104>  (69) 
hydroph_interaction:HIS:104    NaN
hydroph_interaction:HIS:104     -1
Name: 67, dtype: object

>  <pistack:HIS:104>  (69) 
pistack:HIS:104    NaN
pistack:HIS:104     -1
Name: 67, dtype: object

>  <halogenbond:SER:105>  (69) 
halogenbond:SER:105    0.0
halogenbond:SER:105      0
Name: 67, dtype: object

>  <hbond:SER:105>  (69) 
hbond:SER:105    0.0
hbond:SER:105      0
Name: 67, dtype: object

>  <hbond:GLU:106>  (69) 
hbond:GLU:106    0.0
hbond:GLU:106      0
Name: 67, dtype: object

>  <hydroph_interaction:GLU:106>  (69) 
hydroph_interaction:GLU:106    0.0
hydroph_interaction:GLU:106      0
Name: 67, dtype: object

>  <saltbridge:GLU:106>  (69) 
saltbridge:GLU:106    NaN
saltbridge:GLU:106     -1
Name: 67, dtype: object

>  <halogenbond:GLU:106>  (69) 
halogenbond:GLU:106    NaN
halogenbond:GLU:106     -1
Name: 67, dtype: object

>  <hydroph_interaction:PRO:107>  (69) 
hydroph_interaction:PRO:107    1
hydroph_interaction:PRO:107    1
Name: 67, dtype: object

>  <hbond:PRO:107>  (69) 
hbond:PRO:107    NaN
hbond:PRO:107     -1
Name: 67, dtype: object

>  <halogenbond:PRO:107>  (69) 
halogenbond:PRO:107    NaN
halogenbond:PRO:107     -1
Name: 67, dtype: object

>  <hbond:GLY:108>  (69) 
hbond:GLY:108    NaN
hbond:GLY:108     -1
Name: 67, dtype: object

>  <halogenbond:GLY:108>  (69) 
halogenbond:GLY:108    NaN
halogenbond:GLY:108     -1
Name: 67, dtype: object

>  <hbond:ASP:109>  (69) 
hbond:ASP:109    NaN
hbond:ASP:109     -1
Name: 67, dtype: object

>  <hydroph_interaction:ASP:109>  (69) 
hydroph_interaction:ASP:109    NaN
hydroph_interaction:ASP:109     -1
Name: 67, dtype: object

>  <saltbridge:ASP:109>  (69) 
saltbridge:ASP:109    NaN
saltbridge:ASP:109     -1
Name: 67, dtype: object

>  <halogenbond:CYS:110>  (69) 
halogenbond:CYS:110    NaN
halogenbond:CYS:110     -1
Name: 67, dtype: object

>  <hbond:CYS:110>  (69) 
hbond:CYS:110    NaN
hbond:CYS:110     -1
Name: 67, dtype: object

>  <hbond:GLY:111>  (69) 
hbond:GLY:111    NaN
hbond:GLY:111     -1
Name: 67, dtype: object

>  <hbond:GLY:112>  (69) 
hbond:GLY:112    NaN
hbond:GLY:112     -1
Name: 67, dtype: object

>  <hbond:ILE:113>  (69) 
hbond:ILE:113    NaN
hbond:ILE:113     -1
Name: 67, dtype: object

>  <hydroph_interaction:LEU:114>  (69) 
hydroph_interaction:LEU:114    NaN
hydroph_interaction:LEU:114     -1
Name: 67, dtype: object

>  <hbond:LEU:114>  (69) 
hbond:LEU:114    NaN
hbond:LEU:114     -1
Name: 67, dtype: object

>  <hydroph_interaction:ILE:123>  (69) 
hydroph_interaction:ILE:123    NaN
hydroph_interaction:ILE:123     -1
Name: 67, dtype: object

>  <hbond:ILE:123>  (69) 
hbond:ILE:123    NaN
hbond:ILE:123     -1
Name: 67, dtype: object

>  <hydroph_interaction:VAL:124>  (69) 
hydroph_interaction:VAL:124    0.0
hydroph_interaction:VAL:124      0
Name: 67, dtype: object

>  <hbond:VAL:124>  (69) 
hbond:VAL:124    NaN
hbond:VAL:124     -1
Name: 67, dtype: object

>  <halogenbond:VAL:124>  (69) 
halogenbond:VAL:124    NaN
halogenbond:VAL:124     -1
Name: 67, dtype: object

>  <hbond:SER:125>  (69) 
hbond:SER:125    1
hbond:SER:125    1
Name: 67, dtype: object

>  <halogenbond:SER:125>  (69) 
halogenbond:SER:125    NaN
halogenbond:SER:125     -1
Name: 67, dtype: object

>  <hydroph_interaction:THR:126>  (69) 
hydroph_interaction:THR:126    0.0
hydroph_interaction:THR:126      0
Name: 67, dtype: object

>  <hbond:THR:126>  (69) 
hbond:THR:126    0.0
hbond:THR:126      0
Name: 67, dtype: object

>  <halogenbond:THR:126>  (69) 
halogenbond:THR:126    NaN
halogenbond:THR:126     -1
Name: 67, dtype: object

>  <hbond:GLY:127>  (69) 
hbond:GLY:127    0
hbond:GLY:127    0
Name: 67, dtype: object

>  <halogenbond:GLY:127>  (69) 
halogenbond:GLY:127    NaN
halogenbond:GLY:127     -1
Name: 67, dtype: object

>  <hydroph_interaction:GLY:127>  (69) 
hydroph_interaction:GLY:127    NaN
hydroph_interaction:GLY:127     -1
Name: 67, dtype: object

>  <hbond:GLY:128>  (69) 
hbond:GLY:128    NaN
hbond:GLY:128     -1
Name: 67, dtype: object

>  <halogenbond:GLY:128>  (69) 
halogenbond:GLY:128    NaN
halogenbond:GLY:128     -1
Name: 67, dtype: object

>  <hydroph_interaction:GLY:128>  (69) 
hydroph_interaction:GLY:128    NaN
hydroph_interaction:GLY:128     -1
Name: 67, dtype: object

>  <hbond:ASN:129>  (69) 
hbond:ASN:129    NaN
hbond:ASN:129     -1
Name: 67, dtype: object

>  <hydroph_interaction:ASN:129>  (69) 
hydroph_interaction:ASN:129    NaN
hydroph_interaction:ASN:129     -1
Name: 67, dtype: object

>  <halogenbond:ASN:129>  (69) 
halogenbond:ASN:129    NaN
halogenbond:ASN:129     -1
Name: 67, dtype: object

>  <hbond:GLY:130>  (69) 
hbond:GLY:130    NaN
hbond:GLY:130     -1
Name: 67, dtype: object

>  <hbond:LEU:131>  (69) 
hbond:LEU:131    NaN
hbond:LEU:131     -1
Name: 67, dtype: object

>  <hydroph_interaction:LEU:131>  (69) 
hydroph_interaction:LEU:131    NaN
hydroph_interaction:LEU:131     -1
Name: 67, dtype: object

>  <halogenbond:LEU:131>  (69) 
halogenbond:LEU:131    NaN
halogenbond:LEU:131     -1
Name: 67, dtype: object

>  <hydroph_interaction:VAL:132>  (69) 
hydroph_interaction:VAL:132    NaN
hydroph_interaction:VAL:132     -1
Name: 67, dtype: object

>  <hbond:VAL:132>  (69) 
hbond:VAL:132    NaN
hbond:VAL:132     -1
Name: 67, dtype: object

>  <hbond:GLY:133>  (69) 
hbond:GLY:133    NaN
hbond:GLY:133     -1
Name: 67, dtype: object

>  <halogenbond:GLY:133>  (69) 
halogenbond:GLY:133    NaN
halogenbond:GLY:133     -1
Name: 67, dtype: object

>  <hydroph_interaction:PHE:134>  (69) 
hydroph_interaction:PHE:134    NaN
hydroph_interaction:PHE:134     -1
Name: 67, dtype: object

>  <hbond:PHE:134>  (69) 
hbond:PHE:134    NaN
hbond:PHE:134     -1
Name: 67, dtype: object

>  <pistack:PHE:134>  (69) 
pistack:PHE:134    NaN
pistack:PHE:134     -1
Name: 67, dtype: object

>  <pication:PHE:134>  (69) 
pication:PHE:134    NaN
pication:PHE:134     -1
Name: 67, dtype: object

>  <halogenbond:PHE:134>  (69) 
halogenbond:PHE:134    NaN
halogenbond:PHE:134     -1
Name: 67, dtype: object

>  <hydroph_interaction:ALA:135>  (69) 
hydroph_interaction:ALA:135    NaN
hydroph_interaction:ALA:135     -1
Name: 67, dtype: object

>  <hbond:ALA:135>  (69) 
hbond:ALA:135    NaN
hbond:ALA:135     -1
Name: 67, dtype: object

$$$$
Z1580273842
     RDKit          3D

 19 19  0  0  0  0  0  0  0  0999 V2000
   30.2953    8.5860    8.7528 C   0  0  0  0  0  0  0  0  0  0  0  0
   31.1572    9.3738    7.8425 C   0  0  0  0  0  0  0  0  0  0  0  0
   32.0921    8.7531    7.1264 N   0  0  0  0  0  0  0  0  0  0  0  0
   32.6862    9.7326    6.4355 N   0  0  0  0  0  0  0  0  0  0  0  0
   33.7850    9.4023    5.5514 C   0  0  0  0  0  0  0  0  0  0  0  0
   32.1638   10.9697    6.6706 C   0  0  0  0  0  0  0  0  0  0  0  0
   32.6910   12.1765    5.9975 C   0  0  0  0  0  0  0  0  0  0  0  0
   31.1520   10.7740    7.5925 C   0  0  0  0  0  0  0  0  0  0  0  0
   30.2989   11.6848    8.1758 N   0  0  0  0  0  0  0  0  0  0  0  0
   29.4542   12.5592    7.5400 C   0  0  0  0  0  0  0  0  0  0  0  0
   29.5245   12.9392    6.3754 O   0  0  0  0  0  0  0  0  0  0  0  0
   28.3251   13.0541    8.4673 C   0  0  0  0  0  0  0  0  0  0  0  0
   28.5147   14.4288    8.8697 N   0  0  0  0  0  0  0  0  0  0  0  0
   28.1416   15.1649    7.6963 C   0  0  0  0  0  0  0  0  0  0  0  0
   27.8278   14.8034   10.1793 C   0  0  2  0  0  0  0  0  0  0  0  0
   26.8925   15.9756   10.1173 C   0  0  0  0  0  0  0  0  0  0  0  0
   28.6879   15.2266   11.3944 C   0  0  0  0  0  0  0  0  0  0  0  0
   29.6301   14.4087   11.8534 N   0  0  0  0  0  0  0  0  0  0  0  0
   28.5331   16.3016   11.9725 O   0  0  0  0  0  0  0  0  0  0  0  0
  1  2  1  0
  2  3  2  0
  3  4  1  0
  4  5  1  0
  4  6  1  0
  6  7  1  0
  6  8  2  0
  8  9  1  0
  9 10  1  0
 10 11  2  0
 10 12  1  0
 12 13  1  0
 13 14  1  0
 13 15  1  0
 15 16  1  6
 15 17  1  0
 17 18  1  0
 17 19  2  0
  8  2  1  0
A    1
 C1 
A    2
 C2 
A    3
 N1 
A    4
 N2 
A    5
 C3 
A    6
 C4 
A    7
 C5 
A    8
 C6 
A    9
 N3 
A   10
 C7 
A   11
 O1 
A   12
 C8 
A   13
 N4 
A   14
 C9 
A   15
 C10
A   16
 C11
A   17
 C12
A   18
 N5 
A   19
 O2 
M  END
>  <ref_pdb>  (70) 
Ax0310a

>  <ref_mols>  (70) 
Ax0310a,Ax0451a,Ax0365a

>  <original SMILES>  (70) 
Cc1nn(C)c(C)c1NC(=O)CN(C)C(C)C(N)=O

>  <rationale>  (70) 
info halogenbond:S105+A86+E85+E106+T126+P107+H104+Y64+C65+S87+N129+F83+R93+L131+I82+G128+P91+H21+V84+G133+Y90+Y89+H97+L81+F134+L98+R20+G103+S66+S67+S7+G108+R38+V124+M99+S36; hbond:S87+S125+Q95+T126+D39+A86+C110+D109+E85+G108+G103+G128+G130+L131+N129+H104+R68+V124+R93+P91+F83+S67+S7+S66+G112+G133+V132+R20+Y89+S77+A135+Y63+A92+A101+M99+F134+L100+I82+Y64+S36+L98+V84+L81+Y94+S80+R38+S37+V102+G8+I123+G111+I113+L114+C65+L22+S96; hydroph_interaction:V84+V124+Y90+Y89+H21+E85+D109+N129+L40+I123+A135+Q95+I82+L100+L98+L131+F83+R93+V132+Y63+F134+H104+R20+A86+V74+P91+A101+F76+M99+L114+A92+Y94+R68+Y72+Y64+V18+V102+W28+G127+G128+L81; pication:H21+H104+R93+Y63+F134+Y90+R68+F83+R20; pistack:Y89+H104+F134+Y63+F83+Y94; saltbridge:D39+R93+H104+E106+D109+E85+E88+R68+R20; 

>  <intxn_cluster>  (70) 
-1

>  <intxn_cluster_rank>  (70) 
-1

>  <N_interactions>  (70) 
12

>  <∆∆G>  (70) 
-9.943536

>  <$/mg>  (70) 
163.0

>  <comRMSD>  (70) 
0.816231

>  <N_rotatable_bonds>  (70) 
10

>  <deep_P1_sidechain>  (70) 
nan

>  <farthest_distance_to_substrate>  (70) 
2.71671

>  <hbond:SER:7>  (70) 
hbond:SER:7    NaN
hbond:SER:7     -1
Name: 68, dtype: object

>  <halogenbond:SER:7>  (70) 
halogenbond:SER:7    NaN
halogenbond:SER:7     -1
Name: 68, dtype: object

>  <hbond:GLY:8>  (70) 
hbond:GLY:8    NaN
hbond:GLY:8     -1
Name: 68, dtype: object

>  <hydroph_interaction:VAL:18>  (70) 
hydroph_interaction:VAL:18    NaN
hydroph_interaction:VAL:18     -1
Name: 68, dtype: object

>  <hbond:ASN:19>  (70) 
hbond:ASN:19    0.0
hbond:ASN:19      0
Name: 68, dtype: object

>  <hydroph_interaction:ASN:19>  (70) 
hydroph_interaction:ASN:19    0.0
hydroph_interaction:ASN:19      0
Name: 68, dtype: object

>  <halogenbond:ASN:19>  (70) 
halogenbond:ASN:19    0.0
halogenbond:ASN:19      0
Name: 68, dtype: object

>  <hbond:ARG:20>  (70) 
hbond:ARG:20    NaN
hbond:ARG:20     -1
Name: 68, dtype: object

>  <hydroph_interaction:ARG:20>  (70) 
hydroph_interaction:ARG:20    NaN
hydroph_interaction:ARG:20     -1
Name: 68, dtype: object

>  <saltbridge:ARG:20>  (70) 
saltbridge:ARG:20    NaN
saltbridge:ARG:20     -1
Name: 68, dtype: object

>  <halogenbond:ARG:20>  (70) 
halogenbond:ARG:20    NaN
halogenbond:ARG:20     -1
Name: 68, dtype: object

>  <pication:ARG:20>  (70) 
pication:ARG:20    NaN
pication:ARG:20     -1
Name: 68, dtype: object

>  <hbond:HIS:21>  (70) 
hbond:HIS:21    0.0
hbond:HIS:21      0
Name: 68, dtype: object

>  <hydroph_interaction:HIS:21>  (70) 
hydroph_interaction:HIS:21    1.0
hydroph_interaction:HIS:21      1
Name: 68, dtype: object

>  <pistack:HIS:21>  (70) 
pistack:HIS:21    0.0
pistack:HIS:21      0
Name: 68, dtype: object

>  <pication:HIS:21>  (70) 
pication:HIS:21    1.0
pication:HIS:21      1
Name: 68, dtype: object

>  <saltbridge:HIS:21>  (70) 
saltbridge:HIS:21    0.0
saltbridge:HIS:21      0
Name: 68, dtype: object

>  <halogenbond:HIS:21>  (70) 
halogenbond:HIS:21    NaN
halogenbond:HIS:21     -1
Name: 68, dtype: object

>  <hydroph_interaction:LEU:22>  (70) 
hydroph_interaction:LEU:22    0.0
hydroph_interaction:LEU:22      0
Name: 68, dtype: object

>  <hbond:LEU:22>  (70) 
hbond:LEU:22    NaN
hbond:LEU:22     -1
Name: 68, dtype: object

>  <hydroph_interaction:TRP:28>  (70) 
hydroph_interaction:TRP:28    NaN
hydroph_interaction:TRP:28     -1
Name: 68, dtype: object

>  <hbond:SER:36>  (70) 
hbond:SER:36    NaN
hbond:SER:36     -1
Name: 68, dtype: object

>  <halogenbond:SER:36>  (70) 
halogenbond:SER:36    NaN
halogenbond:SER:36     -1
Name: 68, dtype: object

>  <hbond:SER:37>  (70) 
hbond:SER:37    NaN
hbond:SER:37     -1
Name: 68, dtype: object

>  <hbond:ARG:38>  (70) 
hbond:ARG:38    NaN
hbond:ARG:38     -1
Name: 68, dtype: object

>  <halogenbond:ARG:38>  (70) 
halogenbond:ARG:38    NaN
halogenbond:ARG:38     -1
Name: 68, dtype: object

>  <saltbridge:ASP:39>  (70) 
saltbridge:ASP:39    1.0
saltbridge:ASP:39      1
Name: 68, dtype: object

>  <halogenbond:ASP:39>  (70) 
halogenbond:ASP:39    0.0
halogenbond:ASP:39      0
Name: 68, dtype: object

>  <hbond:ASP:39>  (70) 
hbond:ASP:39    1.0
hbond:ASP:39      1
Name: 68, dtype: object

>  <hydroph_interaction:ASP:39>  (70) 
hydroph_interaction:ASP:39    0.0
hydroph_interaction:ASP:39      0
Name: 68, dtype: object

>  <hydroph_interaction:LEU:40>  (70) 
hydroph_interaction:LEU:40    NaN
hydroph_interaction:LEU:40     -1
Name: 68, dtype: object

>  <hydroph_interaction:TYR:63>  (70) 
hydroph_interaction:TYR:63    NaN
hydroph_interaction:TYR:63     -1
Name: 68, dtype: object

>  <hbond:TYR:63>  (70) 
hbond:TYR:63    NaN
hbond:TYR:63     -1
Name: 68, dtype: object

>  <pistack:TYR:63>  (70) 
pistack:TYR:63    NaN
pistack:TYR:63     -1
Name: 68, dtype: object

>  <pication:TYR:63>  (70) 
pication:TYR:63    NaN
pication:TYR:63     -1
Name: 68, dtype: object

>  <halogenbond:TYR:64>  (70) 
halogenbond:TYR:64    NaN
halogenbond:TYR:64     -1
Name: 68, dtype: object

>  <hbond:TYR:64>  (70) 
hbond:TYR:64    NaN
hbond:TYR:64     -1
Name: 68, dtype: object

>  <hydroph_interaction:TYR:64>  (70) 
hydroph_interaction:TYR:64    NaN
hydroph_interaction:TYR:64     -1
Name: 68, dtype: object

>  <halogenbond:CYS:65>  (70) 
halogenbond:CYS:65    NaN
halogenbond:CYS:65     -1
Name: 68, dtype: object

>  <hbond:CYS:65>  (70) 
hbond:CYS:65    NaN
hbond:CYS:65     -1
Name: 68, dtype: object

>  <hbond:SER:66>  (70) 
hbond:SER:66    NaN
hbond:SER:66     -1
Name: 68, dtype: object

>  <halogenbond:SER:66>  (70) 
halogenbond:SER:66    NaN
halogenbond:SER:66     -1
Name: 68, dtype: object

>  <hbond:SER:67>  (70) 
hbond:SER:67    NaN
hbond:SER:67     -1
Name: 68, dtype: object

>  <halogenbond:SER:67>  (70) 
halogenbond:SER:67    NaN
halogenbond:SER:67     -1
Name: 68, dtype: object

>  <hbond:ARG:68>  (70) 
hbond:ARG:68    NaN
hbond:ARG:68     -1
Name: 68, dtype: object

>  <saltbridge:ARG:68>  (70) 
saltbridge:ARG:68    NaN
saltbridge:ARG:68     -1
Name: 68, dtype: object

>  <hydroph_interaction:ARG:68>  (70) 
hydroph_interaction:ARG:68    NaN
hydroph_interaction:ARG:68     -1
Name: 68, dtype: object

>  <pication:ARG:68>  (70) 
pication:ARG:68    NaN
pication:ARG:68     -1
Name: 68, dtype: object

>  <hydroph_interaction:TYR:72>  (70) 
hydroph_interaction:TYR:72    NaN
hydroph_interaction:TYR:72     -1
Name: 68, dtype: object

>  <hydroph_interaction:VAL:74>  (70) 
hydroph_interaction:VAL:74    NaN
hydroph_interaction:VAL:74     -1
Name: 68, dtype: object

>  <hydroph_interaction:PHE:76>  (70) 
hydroph_interaction:PHE:76    NaN
hydroph_interaction:PHE:76     -1
Name: 68, dtype: object

>  <hbond:SER:77>  (70) 
hbond:SER:77    NaN
hbond:SER:77     -1
Name: 68, dtype: object

>  <hbond:SER:80>  (70) 
hbond:SER:80    NaN
hbond:SER:80     -1
Name: 68, dtype: object

>  <hbond:LEU:81>  (70) 
hbond:LEU:81    NaN
hbond:LEU:81     -1
Name: 68, dtype: object

>  <halogenbond:LEU:81>  (70) 
halogenbond:LEU:81    NaN
halogenbond:LEU:81     -1
Name: 68, dtype: object

>  <hydroph_interaction:LEU:81>  (70) 
hydroph_interaction:LEU:81    NaN
hydroph_interaction:LEU:81     -1
Name: 68, dtype: object

>  <hydroph_interaction:ILE:82>  (70) 
hydroph_interaction:ILE:82    NaN
hydroph_interaction:ILE:82     -1
Name: 68, dtype: object

>  <halogenbond:ILE:82>  (70) 
halogenbond:ILE:82    NaN
halogenbond:ILE:82     -1
Name: 68, dtype: object

>  <hbond:ILE:82>  (70) 
hbond:ILE:82    NaN
hbond:ILE:82     -1
Name: 68, dtype: object

>  <hbond:PHE:83>  (70) 
hbond:PHE:83    NaN
hbond:PHE:83     -1
Name: 68, dtype: object

>  <hydroph_interaction:PHE:83>  (70) 
hydroph_interaction:PHE:83    NaN
hydroph_interaction:PHE:83     -1
Name: 68, dtype: object

>  <halogenbond:PHE:83>  (70) 
halogenbond:PHE:83    NaN
halogenbond:PHE:83     -1
Name: 68, dtype: object

>  <pistack:PHE:83>  (70) 
pistack:PHE:83    NaN
pistack:PHE:83     -1
Name: 68, dtype: object

>  <pication:PHE:83>  (70) 
pication:PHE:83    NaN
pication:PHE:83     -1
Name: 68, dtype: object

>  <hydroph_interaction:VAL:84>  (70) 
hydroph_interaction:VAL:84    NaN
hydroph_interaction:VAL:84     -1
Name: 68, dtype: object

>  <halogenbond:VAL:84>  (70) 
halogenbond:VAL:84    NaN
halogenbond:VAL:84     -1
Name: 68, dtype: object

>  <hbond:VAL:84>  (70) 
hbond:VAL:84    NaN
hbond:VAL:84     -1
Name: 68, dtype: object

>  <hydroph_interaction:GLU:85>  (70) 
hydroph_interaction:GLU:85    NaN
hydroph_interaction:GLU:85     -1
Name: 68, dtype: object

>  <hbond:GLU:85>  (70) 
hbond:GLU:85    NaN
hbond:GLU:85     -1
Name: 68, dtype: object

>  <halogenbond:GLU:85>  (70) 
halogenbond:GLU:85    NaN
halogenbond:GLU:85     -1
Name: 68, dtype: object

>  <saltbridge:GLU:85>  (70) 
saltbridge:GLU:85    NaN
saltbridge:GLU:85     -1
Name: 68, dtype: object

>  <halogenbond:ALA:86>  (70) 
halogenbond:ALA:86    NaN
halogenbond:ALA:86     -1
Name: 68, dtype: object

>  <hbond:ALA:86>  (70) 
hbond:ALA:86    NaN
hbond:ALA:86     -1
Name: 68, dtype: object

>  <hydroph_interaction:ALA:86>  (70) 
hydroph_interaction:ALA:86    NaN
hydroph_interaction:ALA:86     -1
Name: 68, dtype: object

>  <hbond:SER:87>  (70) 
hbond:SER:87    1
hbond:SER:87    1
Name: 68, dtype: object

>  <halogenbond:SER:87>  (70) 
halogenbond:SER:87    NaN
halogenbond:SER:87     -1
Name: 68, dtype: object

>  <hbond:GLU:88>  (70) 
hbond:GLU:88    0.0
hbond:GLU:88      0
Name: 68, dtype: object

>  <hydroph_interaction:GLU:88>  (70) 
hydroph_interaction:GLU:88    0.0
hydroph_interaction:GLU:88      0
Name: 68, dtype: object

>  <halogenbond:GLU:88>  (70) 
halogenbond:GLU:88    0.0
halogenbond:GLU:88      0
Name: 68, dtype: object

>  <saltbridge:GLU:88>  (70) 
saltbridge:GLU:88    NaN
saltbridge:GLU:88     -1
Name: 68, dtype: object

>  <hydroph_interaction:TYR:89>  (70) 
hydroph_interaction:TYR:89    1.0
hydroph_interaction:TYR:89      1
Name: 68, dtype: object

>  <pistack:TYR:89>  (70) 
pistack:TYR:89    NaN
pistack:TYR:89     -1
Name: 68, dtype: object

>  <hbond:TYR:89>  (70) 
hbond:TYR:89    NaN
hbond:TYR:89     -1
Name: 68, dtype: object

>  <halogenbond:TYR:89>  (70) 
halogenbond:TYR:89    NaN
halogenbond:TYR:89     -1
Name: 68, dtype: object

>  <hydroph_interaction:TYR:90>  (70) 
hydroph_interaction:TYR:90    1.0
hydroph_interaction:TYR:90      1
Name: 68, dtype: object

>  <hbond:TYR:90>  (70) 
hbond:TYR:90    0.0
hbond:TYR:90      0
Name: 68, dtype: object

>  <pistack:TYR:90>  (70) 
pistack:TYR:90    0.0
pistack:TYR:90      0
Name: 68, dtype: object

>  <halogenbond:TYR:90>  (70) 
halogenbond:TYR:90    NaN
halogenbond:TYR:90     -1
Name: 68, dtype: object

>  <pication:TYR:90>  (70) 
pication:TYR:90    NaN
pication:TYR:90     -1
Name: 68, dtype: object

>  <hbond:PRO:91>  (70) 
hbond:PRO:91    NaN
hbond:PRO:91     -1
Name: 68, dtype: object

>  <hydroph_interaction:PRO:91>  (70) 
hydroph_interaction:PRO:91    NaN
hydroph_interaction:PRO:91     -1
Name: 68, dtype: object

>  <halogenbond:PRO:91>  (70) 
halogenbond:PRO:91    NaN
halogenbond:PRO:91     -1
Name: 68, dtype: object

>  <hbond:ALA:92>  (70) 
hbond:ALA:92    NaN
hbond:ALA:92     -1
Name: 68, dtype: object

>  <hydroph_interaction:ALA:92>  (70) 
hydroph_interaction:ALA:92    NaN
hydroph_interaction:ALA:92     -1
Name: 68, dtype: object

>  <saltbridge:ARG:93>  (70) 
saltbridge:ARG:93    NaN
saltbridge:ARG:93     -1
Name: 68, dtype: object

>  <hbond:ARG:93>  (70) 
hbond:ARG:93    1.0
hbond:ARG:93      1
Name: 68, dtype: object

>  <hydroph_interaction:ARG:93>  (70) 
hydroph_interaction:ARG:93    NaN
hydroph_interaction:ARG:93     -1
Name: 68, dtype: object

>  <halogenbond:ARG:93>  (70) 
halogenbond:ARG:93    NaN
halogenbond:ARG:93     -1
Name: 68, dtype: object

>  <pication:ARG:93>  (70) 
pication:ARG:93    NaN
pication:ARG:93     -1
Name: 68, dtype: object

>  <hydroph_interaction:TYR:94>  (70) 
hydroph_interaction:TYR:94    NaN
hydroph_interaction:TYR:94     -1
Name: 68, dtype: object

>  <pistack:TYR:94>  (70) 
pistack:TYR:94    NaN
pistack:TYR:94     -1
Name: 68, dtype: object

>  <hbond:TYR:94>  (70) 
hbond:TYR:94    NaN
hbond:TYR:94     -1
Name: 68, dtype: object

>  <hbond:GLN:95>  (70) 
hbond:GLN:95    1.0
hbond:GLN:95      1
Name: 68, dtype: object

>  <hydroph_interaction:GLN:95>  (70) 
hydroph_interaction:GLN:95    NaN
hydroph_interaction:GLN:95     -1
Name: 68, dtype: object

>  <halogenbond:GLN:95>  (70) 
halogenbond:GLN:95    0.0
halogenbond:GLN:95      0
Name: 68, dtype: object

>  <hbond:SER:96>  (70) 
hbond:SER:96    NaN
hbond:SER:96     -1
Name: 68, dtype: object

>  <halogenbond:HIS:97>  (70) 
halogenbond:HIS:97    NaN
halogenbond:HIS:97     -1
Name: 68, dtype: object

>  <hydroph_interaction:LEU:98>  (70) 
hydroph_interaction:LEU:98    NaN
hydroph_interaction:LEU:98     -1
Name: 68, dtype: object

>  <hbond:LEU:98>  (70) 
hbond:LEU:98    NaN
hbond:LEU:98     -1
Name: 68, dtype: object

>  <halogenbond:LEU:98>  (70) 
halogenbond:LEU:98    NaN
halogenbond:LEU:98     -1
Name: 68, dtype: object

>  <hbond:MET:99>  (70) 
hbond:MET:99    NaN
hbond:MET:99     -1
Name: 68, dtype: object

>  <hydroph_interaction:MET:99>  (70) 
hydroph_interaction:MET:99    NaN
hydroph_interaction:MET:99     -1
Name: 68, dtype: object

>  <halogenbond:MET:99>  (70) 
halogenbond:MET:99    NaN
halogenbond:MET:99     -1
Name: 68, dtype: object

>  <hydroph_interaction:LEU:100>  (70) 
hydroph_interaction:LEU:100    NaN
hydroph_interaction:LEU:100     -1
Name: 68, dtype: object

>  <hbond:LEU:100>  (70) 
hbond:LEU:100    NaN
hbond:LEU:100     -1
Name: 68, dtype: object

>  <hbond:ALA:101>  (70) 
hbond:ALA:101    NaN
hbond:ALA:101     -1
Name: 68, dtype: object

>  <hydroph_interaction:ALA:101>  (70) 
hydroph_interaction:ALA:101    NaN
hydroph_interaction:ALA:101     -1
Name: 68, dtype: object

>  <hydroph_interaction:VAL:102>  (70) 
hydroph_interaction:VAL:102    NaN
hydroph_interaction:VAL:102     -1
Name: 68, dtype: object

>  <hbond:VAL:102>  (70) 
hbond:VAL:102    NaN
hbond:VAL:102     -1
Name: 68, dtype: object

>  <hbond:GLY:103>  (70) 
hbond:GLY:103    NaN
hbond:GLY:103     -1
Name: 68, dtype: object

>  <halogenbond:GLY:103>  (70) 
halogenbond:GLY:103    NaN
halogenbond:GLY:103     -1
Name: 68, dtype: object

>  <hbond:HIS:104>  (70) 
hbond:HIS:104    NaN
hbond:HIS:104     -1
Name: 68, dtype: object

>  <saltbridge:HIS:104>  (70) 
saltbridge:HIS:104    NaN
saltbridge:HIS:104     -1
Name: 68, dtype: object

>  <pication:HIS:104>  (70) 
pication:HIS:104    NaN
pication:HIS:104     -1
Name: 68, dtype: object

>  <halogenbond:HIS:104>  (70) 
halogenbond:HIS:104    NaN
halogenbond:HIS:104     -1
Name: 68, dtype: object

>  <hydroph_interaction:HIS:104>  (70) 
hydroph_interaction:HIS:104    NaN
hydroph_interaction:HIS:104     -1
Name: 68, dtype: object

>  <pistack:HIS:104>  (70) 
pistack:HIS:104    NaN
pistack:HIS:104     -1
Name: 68, dtype: object

>  <halogenbond:SER:105>  (70) 
halogenbond:SER:105    NaN
halogenbond:SER:105     -1
Name: 68, dtype: object

>  <hbond:SER:105>  (70) 
hbond:SER:105    0.0
hbond:SER:105      0
Name: 68, dtype: object

>  <hbond:GLU:106>  (70) 
hbond:GLU:106    0.0
hbond:GLU:106      0
Name: 68, dtype: object

>  <hydroph_interaction:GLU:106>  (70) 
hydroph_interaction:GLU:106    0.0
hydroph_interaction:GLU:106      0
Name: 68, dtype: object

>  <saltbridge:GLU:106>  (70) 
saltbridge:GLU:106    NaN
saltbridge:GLU:106     -1
Name: 68, dtype: object

>  <halogenbond:GLU:106>  (70) 
halogenbond:GLU:106    NaN
halogenbond:GLU:106     -1
Name: 68, dtype: object

>  <hydroph_interaction:PRO:107>  (70) 
hydroph_interaction:PRO:107    0
hydroph_interaction:PRO:107    0
Name: 68, dtype: object

>  <hbond:PRO:107>  (70) 
hbond:PRO:107    0.0
hbond:PRO:107      0
Name: 68, dtype: object

>  <halogenbond:PRO:107>  (70) 
halogenbond:PRO:107    NaN
halogenbond:PRO:107     -1
Name: 68, dtype: object

>  <hbond:GLY:108>  (70) 
hbond:GLY:108    NaN
hbond:GLY:108     -1
Name: 68, dtype: object

>  <halogenbond:GLY:108>  (70) 
halogenbond:GLY:108    NaN
halogenbond:GLY:108     -1
Name: 68, dtype: object

>  <hbond:ASP:109>  (70) 
hbond:ASP:109    NaN
hbond:ASP:109     -1
Name: 68, dtype: object

>  <hydroph_interaction:ASP:109>  (70) 
hydroph_interaction:ASP:109    NaN
hydroph_interaction:ASP:109     -1
Name: 68, dtype: object

>  <saltbridge:ASP:109>  (70) 
saltbridge:ASP:109    NaN
saltbridge:ASP:109     -1
Name: 68, dtype: object

>  <halogenbond:CYS:110>  (70) 
halogenbond:CYS:110    0.0
halogenbond:CYS:110      0
Name: 68, dtype: object

>  <hbond:CYS:110>  (70) 
hbond:CYS:110    NaN
hbond:CYS:110     -1
Name: 68, dtype: object

>  <hbond:GLY:111>  (70) 
hbond:GLY:111    NaN
hbond:GLY:111     -1
Name: 68, dtype: object

>  <hbond:GLY:112>  (70) 
hbond:GLY:112    NaN
hbond:GLY:112     -1
Name: 68, dtype: object

>  <hbond:ILE:113>  (70) 
hbond:ILE:113    NaN
hbond:ILE:113     -1
Name: 68, dtype: object

>  <hydroph_interaction:LEU:114>  (70) 
hydroph_interaction:LEU:114    NaN
hydroph_interaction:LEU:114     -1
Name: 68, dtype: object

>  <hbond:LEU:114>  (70) 
hbond:LEU:114    NaN
hbond:LEU:114     -1
Name: 68, dtype: object

>  <hydroph_interaction:ILE:123>  (70) 
hydroph_interaction:ILE:123    NaN
hydroph_interaction:ILE:123     -1
Name: 68, dtype: object

>  <hbond:ILE:123>  (70) 
hbond:ILE:123    NaN
hbond:ILE:123     -1
Name: 68, dtype: object

>  <hydroph_interaction:VAL:124>  (70) 
hydroph_interaction:VAL:124    1.0
hydroph_interaction:VAL:124      1
Name: 68, dtype: object

>  <hbond:VAL:124>  (70) 
hbond:VAL:124    NaN
hbond:VAL:124     -1
Name: 68, dtype: object

>  <halogenbond:VAL:124>  (70) 
halogenbond:VAL:124    NaN
halogenbond:VAL:124     -1
Name: 68, dtype: object

>  <hbond:SER:125>  (70) 
hbond:SER:125    2
hbond:SER:125    2
Name: 68, dtype: object

>  <halogenbond:SER:125>  (70) 
halogenbond:SER:125    0.0
halogenbond:SER:125      0
Name: 68, dtype: object

>  <hydroph_interaction:THR:126>  (70) 
hydroph_interaction:THR:126    0.0
hydroph_interaction:THR:126      0
Name: 68, dtype: object

>  <hbond:THR:126>  (70) 
hbond:THR:126    NaN
hbond:THR:126     -1
Name: 68, dtype: object

>  <halogenbond:THR:126>  (70) 
halogenbond:THR:126    NaN
halogenbond:THR:126     -1
Name: 68, dtype: object

>  <hbond:GLY:127>  (70) 
hbond:GLY:127    0
hbond:GLY:127    0
Name: 68, dtype: object

>  <halogenbond:GLY:127>  (70) 
halogenbond:GLY:127    0.0
halogenbond:GLY:127      0
Name: 68, dtype: object

>  <hydroph_interaction:GLY:127>  (70) 
hydroph_interaction:GLY:127    NaN
hydroph_interaction:GLY:127     -1
Name: 68, dtype: object

>  <hbond:GLY:128>  (70) 
hbond:GLY:128    NaN
hbond:GLY:128     -1
Name: 68, dtype: object

>  <halogenbond:GLY:128>  (70) 
halogenbond:GLY:128    NaN
halogenbond:GLY:128     -1
Name: 68, dtype: object

>  <hydroph_interaction:GLY:128>  (70) 
hydroph_interaction:GLY:128    NaN
hydroph_interaction:GLY:128     -1
Name: 68, dtype: object

>  <hbond:ASN:129>  (70) 
hbond:ASN:129    NaN
hbond:ASN:129     -1
Name: 68, dtype: object

>  <hydroph_interaction:ASN:129>  (70) 
hydroph_interaction:ASN:129    NaN
hydroph_interaction:ASN:129     -1
Name: 68, dtype: object

>  <halogenbond:ASN:129>  (70) 
halogenbond:ASN:129    NaN
halogenbond:ASN:129     -1
Name: 68, dtype: object

>  <hbond:GLY:130>  (70) 
hbond:GLY:130    NaN
hbond:GLY:130     -1
Name: 68, dtype: object

>  <hbond:LEU:131>  (70) 
hbond:LEU:131    NaN
hbond:LEU:131     -1
Name: 68, dtype: object

>  <hydroph_interaction:LEU:131>  (70) 
hydroph_interaction:LEU:131    NaN
hydroph_interaction:LEU:131     -1
Name: 68, dtype: object

>  <halogenbond:LEU:131>  (70) 
halogenbond:LEU:131    NaN
halogenbond:LEU:131     -1
Name: 68, dtype: object

>  <hydroph_interaction:VAL:132>  (70) 
hydroph_interaction:VAL:132    NaN
hydroph_interaction:VAL:132     -1
Name: 68, dtype: object

>  <hbond:VAL:132>  (70) 
hbond:VAL:132    NaN
hbond:VAL:132     -1
Name: 68, dtype: object

>  <hbond:GLY:133>  (70) 
hbond:GLY:133    NaN
hbond:GLY:133     -1
Name: 68, dtype: object

>  <halogenbond:GLY:133>  (70) 
halogenbond:GLY:133    NaN
halogenbond:GLY:133     -1
Name: 68, dtype: object

>  <hydroph_interaction:PHE:134>  (70) 
hydroph_interaction:PHE:134    NaN
hydroph_interaction:PHE:134     -1
Name: 68, dtype: object

>  <hbond:PHE:134>  (70) 
hbond:PHE:134    NaN
hbond:PHE:134     -1
Name: 68, dtype: object

>  <pistack:PHE:134>  (70) 
pistack:PHE:134    NaN
pistack:PHE:134     -1
Name: 68, dtype: object

>  <pication:PHE:134>  (70) 
pication:PHE:134    NaN
pication:PHE:134     -1
Name: 68, dtype: object

>  <halogenbond:PHE:134>  (70) 
halogenbond:PHE:134    NaN
halogenbond:PHE:134     -1
Name: 68, dtype: object

>  <hydroph_interaction:ALA:135>  (70) 
hydroph_interaction:ALA:135    NaN
hydroph_interaction:ALA:135     -1
Name: 68, dtype: object

>  <hbond:ALA:135>  (70) 
hbond:ALA:135    NaN
hbond:ALA:135     -1
Name: 68, dtype: object

$$$$
PV_003585554678
     RDKit          3D

 17 19  0  0  0  0  0  0  0  0999 V2000
   27.5079   16.0254    9.5776 C   0  0  0  0  0  0  0  0  0  0  0  0
   28.5482   15.0464    9.2107 C   0  0  0  0  0  0  0  0  0  0  0  0
   30.0215   15.2178    9.5816 C   0  0  0  0  0  0  0  0  0  0  0  0
   30.9459   14.0988    9.1297 C   0  0  0  0  0  0  0  0  0  0  0  0
   30.3471   12.9838    8.3959 C   0  0  0  0  0  0  0  0  0  0  0  0
   31.0066   11.8137    7.8993 C   0  0  0  0  0  0  0  0  0  0  0  0
   30.5847   10.6322    8.4304 C   0  0  0  0  0  0  0  0  0  0  0  0
   31.2576    9.6360    7.8974 N   0  0  0  0  0  0  0  0  0  0  0  0
   31.0122    8.2889    8.2829 C   0  0  0  0  0  0  0  0  0  0  0  0
   32.1581   10.1079    6.9747 C   0  0  0  0  0  0  0  0  0  0  0  0
   33.0765    9.4373    6.1574 C   0  0  0  0  0  0  0  0  0  0  0  0
   33.8744   10.1207    5.3057 N   0  0  0  0  0  0  0  0  0  0  0  0
   33.7557   11.4634    5.2714 C   0  0  0  0  0  0  0  0  0  0  0  0
   32.8516   12.1946    6.0676 C   0  0  0  0  0  0  0  0  0  0  0  0
   32.0252   11.5017    6.9488 C   0  0  0  0  0  0  0  0  0  0  0  0
   28.9968   12.9567    8.1225 C   0  0  0  0  0  0  0  0  0  0  0  0
   28.1192   13.9521    8.5098 C   0  0  0  0  0  0  0  0  0  0  0  0
  1  2  1  0
  2  3  2  0
  3  4  1  0
  4  5  2  0
  5  6  1  0
  6  7  2  0
  7  8  1  0
  8  9  1  0
  8 10  1  0
 10 11  2  0
 11 12  1  0
 12 13  2  0
 13 14  1  0
 14 15  2  0
  5 16  1  0
 16 17  2  0
 17  2  1  0
 15  6  1  0
 15 10  1  0
A    1
 C1 
A    2
 C2 
A    3
 C3 
A    4
 C4 
A    5
 C5 
A    6
 C6 
A    7
 C7 
A    8
 N1 
A    9
 C8 
A   10
 C9 
A   11
 C10
A   12
 N2 
A   13
 C11
A   14
 C12
A   15
 C13
A   16
 C14
A   17
 C15
M  END
>  <ref_pdb>  (71) 
Ax0310a

>  <ref_mols>  (71) 
Ax0451a,Ax0812a

>  <original SMILES>  (71) 
Cc1ccc(-c2cn(C)c3cnccc23)cc1

>  <rationale>  (71) 
info halogenbond:D39+A86+E85+Q95+E106+E88+T126+H104+Y64+C65+N129+F83+L131+I82+G128+P91+N19+H21+V84+G133+Y90+Y89+H97+L81+F134+L98+R20+G103+S66+S67+S7+G108+R38+V124+M99+S36; hbond:A86+G108+G103+G128+G130+L131+H104+R68+P91+F83+S67+S7+S66+G112+G133+V132+R20+Y89+S77+A135+Y63+A92+A101+M99+F134+L100+I82+Y64+S36+L98+V84+L81+Y94+S80+R38+S37+V102+G8+I123+G111+I113+L114+C65+L22+S96; hydroph_interaction:Y90+Y89+H21+N129+L40+I123+A135+Q95+I82+L100+L98+L131+F83+R93+V132+Y63+F134+H104+R20+A86+V74+P91+A101+F76+M99+L114+A92+Y94+R68+Y72+Y64+V18+V102+W28+G127+G128+L81; pication:H104+R93+Y63+F134+Y90+R68+F83+R20; pistack:Y89+Y90+H104+F134+Y63+F83+Y94; saltbridge:R93+H104+E106+D109+E85+E88+R68+R20; 

>  <intxn_cluster>  (71) 
-1

>  <intxn_cluster_rank>  (71) 
-1

>  <N_interactions>  (71) 
3

>  <∆∆G>  (71) 
-10.97634

>  <$/mg>  (71) 
163.0

>  <comRMSD>  (71) 
0.849253

>  <N_rotatable_bonds>  (71) 
3

>  <deep_P1_sidechain>  (71) 
nan

>  <farthest_distance_to_substrate>  (71) 
2.510167

>  <hbond:SER:7>  (71) 
hbond:SER:7    NaN
hbond:SER:7     -1
Name: 69, dtype: object

>  <halogenbond:SER:7>  (71) 
halogenbond:SER:7    NaN
halogenbond:SER:7     -1
Name: 69, dtype: object

>  <hbond:GLY:8>  (71) 
hbond:GLY:8    NaN
hbond:GLY:8     -1
Name: 69, dtype: object

>  <hydroph_interaction:VAL:18>  (71) 
hydroph_interaction:VAL:18    NaN
hydroph_interaction:VAL:18     -1
Name: 69, dtype: object

>  <hbond:ASN:19>  (71) 
hbond:ASN:19    0.0
hbond:ASN:19      0
Name: 69, dtype: object

>  <hydroph_interaction:ASN:19>  (71) 
hydroph_interaction:ASN:19    0.0
hydroph_interaction:ASN:19      0
Name: 69, dtype: object

>  <halogenbond:ASN:19>  (71) 
halogenbond:ASN:19    NaN
halogenbond:ASN:19     -1
Name: 69, dtype: object

>  <hbond:ARG:20>  (71) 
hbond:ARG:20    NaN
hbond:ARG:20     -1
Name: 69, dtype: object

>  <hydroph_interaction:ARG:20>  (71) 
hydroph_interaction:ARG:20    NaN
hydroph_interaction:ARG:20     -1
Name: 69, dtype: object

>  <saltbridge:ARG:20>  (71) 
saltbridge:ARG:20    NaN
saltbridge:ARG:20     -1
Name: 69, dtype: object

>  <halogenbond:ARG:20>  (71) 
halogenbond:ARG:20    NaN
halogenbond:ARG:20     -1
Name: 69, dtype: object

>  <pication:ARG:20>  (71) 
pication:ARG:20    NaN
pication:ARG:20     -1
Name: 69, dtype: object

>  <hbond:HIS:21>  (71) 
hbond:HIS:21    0.0
hbond:HIS:21      0
Name: 69, dtype: object

>  <hydroph_interaction:HIS:21>  (71) 
hydroph_interaction:HIS:21    1.0
hydroph_interaction:HIS:21      1
Name: 69, dtype: object

>  <pistack:HIS:21>  (71) 
pistack:HIS:21    0.0
pistack:HIS:21      0
Name: 69, dtype: object

>  <pication:HIS:21>  (71) 
pication:HIS:21    0.0
pication:HIS:21      0
Name: 69, dtype: object

>  <saltbridge:HIS:21>  (71) 
saltbridge:HIS:21    0.0
saltbridge:HIS:21      0
Name: 69, dtype: object

>  <halogenbond:HIS:21>  (71) 
halogenbond:HIS:21    NaN
halogenbond:HIS:21     -1
Name: 69, dtype: object

>  <hydroph_interaction:LEU:22>  (71) 
hydroph_interaction:LEU:22    0.0
hydroph_interaction:LEU:22      0
Name: 69, dtype: object

>  <hbond:LEU:22>  (71) 
hbond:LEU:22    NaN
hbond:LEU:22     -1
Name: 69, dtype: object

>  <hydroph_interaction:TRP:28>  (71) 
hydroph_interaction:TRP:28    NaN
hydroph_interaction:TRP:28     -1
Name: 69, dtype: object

>  <hbond:SER:36>  (71) 
hbond:SER:36    NaN
hbond:SER:36     -1
Name: 69, dtype: object

>  <halogenbond:SER:36>  (71) 
halogenbond:SER:36    NaN
halogenbond:SER:36     -1
Name: 69, dtype: object

>  <hbond:SER:37>  (71) 
hbond:SER:37    NaN
hbond:SER:37     -1
Name: 69, dtype: object

>  <hbond:ARG:38>  (71) 
hbond:ARG:38    NaN
hbond:ARG:38     -1
Name: 69, dtype: object

>  <halogenbond:ARG:38>  (71) 
halogenbond:ARG:38    NaN
halogenbond:ARG:38     -1
Name: 69, dtype: object

>  <saltbridge:ASP:39>  (71) 
saltbridge:ASP:39    0.0
saltbridge:ASP:39      0
Name: 69, dtype: object

>  <halogenbond:ASP:39>  (71) 
halogenbond:ASP:39    NaN
halogenbond:ASP:39     -1
Name: 69, dtype: object

>  <hbond:ASP:39>  (71) 
hbond:ASP:39    0.0
hbond:ASP:39      0
Name: 69, dtype: object

>  <hydroph_interaction:ASP:39>  (71) 
hydroph_interaction:ASP:39    0.0
hydroph_interaction:ASP:39      0
Name: 69, dtype: object

>  <hydroph_interaction:LEU:40>  (71) 
hydroph_interaction:LEU:40    NaN
hydroph_interaction:LEU:40     -1
Name: 69, dtype: object

>  <hydroph_interaction:TYR:63>  (71) 
hydroph_interaction:TYR:63    NaN
hydroph_interaction:TYR:63     -1
Name: 69, dtype: object

>  <hbond:TYR:63>  (71) 
hbond:TYR:63    NaN
hbond:TYR:63     -1
Name: 69, dtype: object

>  <pistack:TYR:63>  (71) 
pistack:TYR:63    NaN
pistack:TYR:63     -1
Name: 69, dtype: object

>  <pication:TYR:63>  (71) 
pication:TYR:63    NaN
pication:TYR:63     -1
Name: 69, dtype: object

>  <halogenbond:TYR:64>  (71) 
halogenbond:TYR:64    NaN
halogenbond:TYR:64     -1
Name: 69, dtype: object

>  <hbond:TYR:64>  (71) 
hbond:TYR:64    NaN
hbond:TYR:64     -1
Name: 69, dtype: object

>  <hydroph_interaction:TYR:64>  (71) 
hydroph_interaction:TYR:64    NaN
hydroph_interaction:TYR:64     -1
Name: 69, dtype: object

>  <halogenbond:CYS:65>  (71) 
halogenbond:CYS:65    NaN
halogenbond:CYS:65     -1
Name: 69, dtype: object

>  <hbond:CYS:65>  (71) 
hbond:CYS:65    NaN
hbond:CYS:65     -1
Name: 69, dtype: object

>  <hbond:SER:66>  (71) 
hbond:SER:66    NaN
hbond:SER:66     -1
Name: 69, dtype: object

>  <halogenbond:SER:66>  (71) 
halogenbond:SER:66    NaN
halogenbond:SER:66     -1
Name: 69, dtype: object

>  <hbond:SER:67>  (71) 
hbond:SER:67    NaN
hbond:SER:67     -1
Name: 69, dtype: object

>  <halogenbond:SER:67>  (71) 
halogenbond:SER:67    NaN
halogenbond:SER:67     -1
Name: 69, dtype: object

>  <hbond:ARG:68>  (71) 
hbond:ARG:68    NaN
hbond:ARG:68     -1
Name: 69, dtype: object

>  <saltbridge:ARG:68>  (71) 
saltbridge:ARG:68    NaN
saltbridge:ARG:68     -1
Name: 69, dtype: object

>  <hydroph_interaction:ARG:68>  (71) 
hydroph_interaction:ARG:68    NaN
hydroph_interaction:ARG:68     -1
Name: 69, dtype: object

>  <pication:ARG:68>  (71) 
pication:ARG:68    NaN
pication:ARG:68     -1
Name: 69, dtype: object

>  <hydroph_interaction:TYR:72>  (71) 
hydroph_interaction:TYR:72    NaN
hydroph_interaction:TYR:72     -1
Name: 69, dtype: object

>  <hydroph_interaction:VAL:74>  (71) 
hydroph_interaction:VAL:74    NaN
hydroph_interaction:VAL:74     -1
Name: 69, dtype: object

>  <hydroph_interaction:PHE:76>  (71) 
hydroph_interaction:PHE:76    NaN
hydroph_interaction:PHE:76     -1
Name: 69, dtype: object

>  <hbond:SER:77>  (71) 
hbond:SER:77    NaN
hbond:SER:77     -1
Name: 69, dtype: object

>  <hbond:SER:80>  (71) 
hbond:SER:80    NaN
hbond:SER:80     -1
Name: 69, dtype: object

>  <hbond:LEU:81>  (71) 
hbond:LEU:81    NaN
hbond:LEU:81     -1
Name: 69, dtype: object

>  <halogenbond:LEU:81>  (71) 
halogenbond:LEU:81    NaN
halogenbond:LEU:81     -1
Name: 69, dtype: object

>  <hydroph_interaction:LEU:81>  (71) 
hydroph_interaction:LEU:81    NaN
hydroph_interaction:LEU:81     -1
Name: 69, dtype: object

>  <hydroph_interaction:ILE:82>  (71) 
hydroph_interaction:ILE:82    NaN
hydroph_interaction:ILE:82     -1
Name: 69, dtype: object

>  <halogenbond:ILE:82>  (71) 
halogenbond:ILE:82    NaN
halogenbond:ILE:82     -1
Name: 69, dtype: object

>  <hbond:ILE:82>  (71) 
hbond:ILE:82    NaN
hbond:ILE:82     -1
Name: 69, dtype: object

>  <hbond:PHE:83>  (71) 
hbond:PHE:83    NaN
hbond:PHE:83     -1
Name: 69, dtype: object

>  <hydroph_interaction:PHE:83>  (71) 
hydroph_interaction:PHE:83    NaN
hydroph_interaction:PHE:83     -1
Name: 69, dtype: object

>  <halogenbond:PHE:83>  (71) 
halogenbond:PHE:83    NaN
halogenbond:PHE:83     -1
Name: 69, dtype: object

>  <pistack:PHE:83>  (71) 
pistack:PHE:83    NaN
pistack:PHE:83     -1
Name: 69, dtype: object

>  <pication:PHE:83>  (71) 
pication:PHE:83    NaN
pication:PHE:83     -1
Name: 69, dtype: object

>  <hydroph_interaction:VAL:84>  (71) 
hydroph_interaction:VAL:84    0.0
hydroph_interaction:VAL:84      0
Name: 69, dtype: object

>  <halogenbond:VAL:84>  (71) 
halogenbond:VAL:84    NaN
halogenbond:VAL:84     -1
Name: 69, dtype: object

>  <hbond:VAL:84>  (71) 
hbond:VAL:84    NaN
hbond:VAL:84     -1
Name: 69, dtype: object

>  <hydroph_interaction:GLU:85>  (71) 
hydroph_interaction:GLU:85    0.0
hydroph_interaction:GLU:85      0
Name: 69, dtype: object

>  <hbond:GLU:85>  (71) 
hbond:GLU:85    0.0
hbond:GLU:85      0
Name: 69, dtype: object

>  <halogenbond:GLU:85>  (71) 
halogenbond:GLU:85    NaN
halogenbond:GLU:85     -1
Name: 69, dtype: object

>  <saltbridge:GLU:85>  (71) 
saltbridge:GLU:85    NaN
saltbridge:GLU:85     -1
Name: 69, dtype: object

>  <halogenbond:ALA:86>  (71) 
halogenbond:ALA:86    NaN
halogenbond:ALA:86     -1
Name: 69, dtype: object

>  <hbond:ALA:86>  (71) 
hbond:ALA:86    NaN
hbond:ALA:86     -1
Name: 69, dtype: object

>  <hydroph_interaction:ALA:86>  (71) 
hydroph_interaction:ALA:86    NaN
hydroph_interaction:ALA:86     -1
Name: 69, dtype: object

>  <hbond:SER:87>  (71) 
hbond:SER:87    0
hbond:SER:87    0
Name: 69, dtype: object

>  <halogenbond:SER:87>  (71) 
halogenbond:SER:87    0.0
halogenbond:SER:87      0
Name: 69, dtype: object

>  <hbond:GLU:88>  (71) 
hbond:GLU:88    0.0
hbond:GLU:88      0
Name: 69, dtype: object

>  <hydroph_interaction:GLU:88>  (71) 
hydroph_interaction:GLU:88    0.0
hydroph_interaction:GLU:88      0
Name: 69, dtype: object

>  <halogenbond:GLU:88>  (71) 
halogenbond:GLU:88    NaN
halogenbond:GLU:88     -1
Name: 69, dtype: object

>  <saltbridge:GLU:88>  (71) 
saltbridge:GLU:88    NaN
saltbridge:GLU:88     -1
Name: 69, dtype: object

>  <hydroph_interaction:TYR:89>  (71) 
hydroph_interaction:TYR:89    1.0
hydroph_interaction:TYR:89      1
Name: 69, dtype: object

>  <pistack:TYR:89>  (71) 
pistack:TYR:89    NaN
pistack:TYR:89     -1
Name: 69, dtype: object

>  <hbond:TYR:89>  (71) 
hbond:TYR:89    NaN
hbond:TYR:89     -1
Name: 69, dtype: object

>  <halogenbond:TYR:89>  (71) 
halogenbond:TYR:89    NaN
halogenbond:TYR:89     -1
Name: 69, dtype: object

>  <hydroph_interaction:TYR:90>  (71) 
hydroph_interaction:TYR:90    1.0
hydroph_interaction:TYR:90      1
Name: 69, dtype: object

>  <hbond:TYR:90>  (71) 
hbond:TYR:90    0.0
hbond:TYR:90      0
Name: 69, dtype: object

>  <pistack:TYR:90>  (71) 
pistack:TYR:90    NaN
pistack:TYR:90     -1
Name: 69, dtype: object

>  <halogenbond:TYR:90>  (71) 
halogenbond:TYR:90    NaN
halogenbond:TYR:90     -1
Name: 69, dtype: object

>  <pication:TYR:90>  (71) 
pication:TYR:90    NaN
pication:TYR:90     -1
Name: 69, dtype: object

>  <hbond:PRO:91>  (71) 
hbond:PRO:91    NaN
hbond:PRO:91     -1
Name: 69, dtype: object

>  <hydroph_interaction:PRO:91>  (71) 
hydroph_interaction:PRO:91    NaN
hydroph_interaction:PRO:91     -1
Name: 69, dtype: object

>  <halogenbond:PRO:91>  (71) 
halogenbond:PRO:91    NaN
halogenbond:PRO:91     -1
Name: 69, dtype: object

>  <hbond:ALA:92>  (71) 
hbond:ALA:92    NaN
hbond:ALA:92     -1
Name: 69, dtype: object

>  <hydroph_interaction:ALA:92>  (71) 
hydroph_interaction:ALA:92    NaN
hydroph_interaction:ALA:92     -1
Name: 69, dtype: object

>  <saltbridge:ARG:93>  (71) 
saltbridge:ARG:93    NaN
saltbridge:ARG:93     -1
Name: 69, dtype: object

>  <hbond:ARG:93>  (71) 
hbond:ARG:93    0.0
hbond:ARG:93      0
Name: 69, dtype: object

>  <hydroph_interaction:ARG:93>  (71) 
hydroph_interaction:ARG:93    NaN
hydroph_interaction:ARG:93     -1
Name: 69, dtype: object

>  <halogenbond:ARG:93>  (71) 
halogenbond:ARG:93    0.0
halogenbond:ARG:93      0
Name: 69, dtype: object

>  <pication:ARG:93>  (71) 
pication:ARG:93    NaN
pication:ARG:93     -1
Name: 69, dtype: object

>  <hydroph_interaction:TYR:94>  (71) 
hydroph_interaction:TYR:94    NaN
hydroph_interaction:TYR:94     -1
Name: 69, dtype: object

>  <pistack:TYR:94>  (71) 
pistack:TYR:94    NaN
pistack:TYR:94     -1
Name: 69, dtype: object

>  <hbond:TYR:94>  (71) 
hbond:TYR:94    NaN
hbond:TYR:94     -1
Name: 69, dtype: object

>  <hbond:GLN:95>  (71) 
hbond:GLN:95    0.0
hbond:GLN:95      0
Name: 69, dtype: object

>  <hydroph_interaction:GLN:95>  (71) 
hydroph_interaction:GLN:95    NaN
hydroph_interaction:GLN:95     -1
Name: 69, dtype: object

>  <halogenbond:GLN:95>  (71) 
halogenbond:GLN:95    NaN
halogenbond:GLN:95     -1
Name: 69, dtype: object

>  <hbond:SER:96>  (71) 
hbond:SER:96    NaN
hbond:SER:96     -1
Name: 69, dtype: object

>  <halogenbond:HIS:97>  (71) 
halogenbond:HIS:97    NaN
halogenbond:HIS:97     -1
Name: 69, dtype: object

>  <hydroph_interaction:LEU:98>  (71) 
hydroph_interaction:LEU:98    NaN
hydroph_interaction:LEU:98     -1
Name: 69, dtype: object

>  <hbond:LEU:98>  (71) 
hbond:LEU:98    NaN
hbond:LEU:98     -1
Name: 69, dtype: object

>  <halogenbond:LEU:98>  (71) 
halogenbond:LEU:98    NaN
halogenbond:LEU:98     -1
Name: 69, dtype: object

>  <hbond:MET:99>  (71) 
hbond:MET:99    NaN
hbond:MET:99     -1
Name: 69, dtype: object

>  <hydroph_interaction:MET:99>  (71) 
hydroph_interaction:MET:99    NaN
hydroph_interaction:MET:99     -1
Name: 69, dtype: object

>  <halogenbond:MET:99>  (71) 
halogenbond:MET:99    NaN
halogenbond:MET:99     -1
Name: 69, dtype: object

>  <hydroph_interaction:LEU:100>  (71) 
hydroph_interaction:LEU:100    NaN
hydroph_interaction:LEU:100     -1
Name: 69, dtype: object

>  <hbond:LEU:100>  (71) 
hbond:LEU:100    NaN
hbond:LEU:100     -1
Name: 69, dtype: object

>  <hbond:ALA:101>  (71) 
hbond:ALA:101    NaN
hbond:ALA:101     -1
Name: 69, dtype: object

>  <hydroph_interaction:ALA:101>  (71) 
hydroph_interaction:ALA:101    NaN
hydroph_interaction:ALA:101     -1
Name: 69, dtype: object

>  <hydroph_interaction:VAL:102>  (71) 
hydroph_interaction:VAL:102    NaN
hydroph_interaction:VAL:102     -1
Name: 69, dtype: object

>  <hbond:VAL:102>  (71) 
hbond:VAL:102    NaN
hbond:VAL:102     -1
Name: 69, dtype: object

>  <hbond:GLY:103>  (71) 
hbond:GLY:103    NaN
hbond:GLY:103     -1
Name: 69, dtype: object

>  <halogenbond:GLY:103>  (71) 
halogenbond:GLY:103    NaN
halogenbond:GLY:103     -1
Name: 69, dtype: object

>  <hbond:HIS:104>  (71) 
hbond:HIS:104    NaN
hbond:HIS:104     -1
Name: 69, dtype: object

>  <saltbridge:HIS:104>  (71) 
saltbridge:HIS:104    NaN
saltbridge:HIS:104     -1
Name: 69, dtype: object

>  <pication:HIS:104>  (71) 
pication:HIS:104    NaN
pication:HIS:104     -1
Name: 69, dtype: object

>  <halogenbond:HIS:104>  (71) 
halogenbond:HIS:104    NaN
halogenbond:HIS:104     -1
Name: 69, dtype: object

>  <hydroph_interaction:HIS:104>  (71) 
hydroph_interaction:HIS:104    NaN
hydroph_interaction:HIS:104     -1
Name: 69, dtype: object

>  <pistack:HIS:104>  (71) 
pistack:HIS:104    NaN
pistack:HIS:104     -1
Name: 69, dtype: object

>  <halogenbond:SER:105>  (71) 
halogenbond:SER:105    0.0
halogenbond:SER:105      0
Name: 69, dtype: object

>  <hbond:SER:105>  (71) 
hbond:SER:105    0.0
hbond:SER:105      0
Name: 69, dtype: object

>  <hbond:GLU:106>  (71) 
hbond:GLU:106    0.0
hbond:GLU:106      0
Name: 69, dtype: object

>  <hydroph_interaction:GLU:106>  (71) 
hydroph_interaction:GLU:106    0.0
hydroph_interaction:GLU:106      0
Name: 69, dtype: object

>  <saltbridge:GLU:106>  (71) 
saltbridge:GLU:106    NaN
saltbridge:GLU:106     -1
Name: 69, dtype: object

>  <halogenbond:GLU:106>  (71) 
halogenbond:GLU:106    NaN
halogenbond:GLU:106     -1
Name: 69, dtype: object

>  <hydroph_interaction:PRO:107>  (71) 
hydroph_interaction:PRO:107    0
hydroph_interaction:PRO:107    0
Name: 69, dtype: object

>  <hbond:PRO:107>  (71) 
hbond:PRO:107    0.0
hbond:PRO:107      0
Name: 69, dtype: object

>  <halogenbond:PRO:107>  (71) 
halogenbond:PRO:107    0.0
halogenbond:PRO:107      0
Name: 69, dtype: object

>  <hbond:GLY:108>  (71) 
hbond:GLY:108    NaN
hbond:GLY:108     -1
Name: 69, dtype: object

>  <halogenbond:GLY:108>  (71) 
halogenbond:GLY:108    NaN
halogenbond:GLY:108     -1
Name: 69, dtype: object

>  <hbond:ASP:109>  (71) 
hbond:ASP:109    0.0
hbond:ASP:109      0
Name: 69, dtype: object

>  <hydroph_interaction:ASP:109>  (71) 
hydroph_interaction:ASP:109    0.0
hydroph_interaction:ASP:109      0
Name: 69, dtype: object

>  <saltbridge:ASP:109>  (71) 
saltbridge:ASP:109    NaN
saltbridge:ASP:109     -1
Name: 69, dtype: object

>  <halogenbond:CYS:110>  (71) 
halogenbond:CYS:110    0.0
halogenbond:CYS:110      0
Name: 69, dtype: object

>  <hbond:CYS:110>  (71) 
hbond:CYS:110    0.0
hbond:CYS:110      0
Name: 69, dtype: object

>  <hbond:GLY:111>  (71) 
hbond:GLY:111    NaN
hbond:GLY:111     -1
Name: 69, dtype: object

>  <hbond:GLY:112>  (71) 
hbond:GLY:112    NaN
hbond:GLY:112     -1
Name: 69, dtype: object

>  <hbond:ILE:113>  (71) 
hbond:ILE:113    NaN
hbond:ILE:113     -1
Name: 69, dtype: object

>  <hydroph_interaction:LEU:114>  (71) 
hydroph_interaction:LEU:114    NaN
hydroph_interaction:LEU:114     -1
Name: 69, dtype: object

>  <hbond:LEU:114>  (71) 
hbond:LEU:114    NaN
hbond:LEU:114     -1
Name: 69, dtype: object

>  <hydroph_interaction:ILE:123>  (71) 
hydroph_interaction:ILE:123    NaN
hydroph_interaction:ILE:123     -1
Name: 69, dtype: object

>  <hbond:ILE:123>  (71) 
hbond:ILE:123    NaN
hbond:ILE:123     -1
Name: 69, dtype: object

>  <hydroph_interaction:VAL:124>  (71) 
hydroph_interaction:VAL:124    0.0
hydroph_interaction:VAL:124      0
Name: 69, dtype: object

>  <hbond:VAL:124>  (71) 
hbond:VAL:124    0.0
hbond:VAL:124      0
Name: 69, dtype: object

>  <halogenbond:VAL:124>  (71) 
halogenbond:VAL:124    NaN
halogenbond:VAL:124     -1
Name: 69, dtype: object

>  <hbond:SER:125>  (71) 
hbond:SER:125    0
hbond:SER:125    0
Name: 69, dtype: object

>  <halogenbond:SER:125>  (71) 
halogenbond:SER:125    0.0
halogenbond:SER:125      0
Name: 69, dtype: object

>  <hydroph_interaction:THR:126>  (71) 
hydroph_interaction:THR:126    0.0
hydroph_interaction:THR:126      0
Name: 69, dtype: object

>  <hbond:THR:126>  (71) 
hbond:THR:126    0.0
hbond:THR:126      0
Name: 69, dtype: object

>  <halogenbond:THR:126>  (71) 
halogenbond:THR:126    NaN
halogenbond:THR:126     -1
Name: 69, dtype: object

>  <hbond:GLY:127>  (71) 
hbond:GLY:127    0
hbond:GLY:127    0
Name: 69, dtype: object

>  <halogenbond:GLY:127>  (71) 
halogenbond:GLY:127    0.0
halogenbond:GLY:127      0
Name: 69, dtype: object

>  <hydroph_interaction:GLY:127>  (71) 
hydroph_interaction:GLY:127    NaN
hydroph_interaction:GLY:127     -1
Name: 69, dtype: object

>  <hbond:GLY:128>  (71) 
hbond:GLY:128    NaN
hbond:GLY:128     -1
Name: 69, dtype: object

>  <halogenbond:GLY:128>  (71) 
halogenbond:GLY:128    NaN
halogenbond:GLY:128     -1
Name: 69, dtype: object

>  <hydroph_interaction:GLY:128>  (71) 
hydroph_interaction:GLY:128    NaN
hydroph_interaction:GLY:128     -1
Name: 69, dtype: object

>  <hbond:ASN:129>  (71) 
hbond:ASN:129    0.0
hbond:ASN:129      0
Name: 69, dtype: object

>  <hydroph_interaction:ASN:129>  (71) 
hydroph_interaction:ASN:129    NaN
hydroph_interaction:ASN:129     -1
Name: 69, dtype: object

>  <halogenbond:ASN:129>  (71) 
halogenbond:ASN:129    NaN
halogenbond:ASN:129     -1
Name: 69, dtype: object

>  <hbond:GLY:130>  (71) 
hbond:GLY:130    NaN
hbond:GLY:130     -1
Name: 69, dtype: object

>  <hbond:LEU:131>  (71) 
hbond:LEU:131    NaN
hbond:LEU:131     -1
Name: 69, dtype: object

>  <hydroph_interaction:LEU:131>  (71) 
hydroph_interaction:LEU:131    NaN
hydroph_interaction:LEU:131     -1
Name: 69, dtype: object

>  <halogenbond:LEU:131>  (71) 
halogenbond:LEU:131    NaN
halogenbond:LEU:131     -1
Name: 69, dtype: object

>  <hydroph_interaction:VAL:132>  (71) 
hydroph_interaction:VAL:132    NaN
hydroph_interaction:VAL:132     -1
Name: 69, dtype: object

>  <hbond:VAL:132>  (71) 
hbond:VAL:132    NaN
hbond:VAL:132     -1
Name: 69, dtype: object

>  <hbond:GLY:133>  (71) 
hbond:GLY:133    NaN
hbond:GLY:133     -1
Name: 69, dtype: object

>  <halogenbond:GLY:133>  (71) 
halogenbond:GLY:133    NaN
halogenbond:GLY:133     -1
Name: 69, dtype: object

>  <hydroph_interaction:PHE:134>  (71) 
hydroph_interaction:PHE:134    NaN
hydroph_interaction:PHE:134     -1
Name: 69, dtype: object

>  <hbond:PHE:134>  (71) 
hbond:PHE:134    NaN
hbond:PHE:134     -1
Name: 69, dtype: object

>  <pistack:PHE:134>  (71) 
pistack:PHE:134    NaN
pistack:PHE:134     -1
Name: 69, dtype: object

>  <pication:PHE:134>  (71) 
pication:PHE:134    NaN
pication:PHE:134     -1
Name: 69, dtype: object

>  <halogenbond:PHE:134>  (71) 
halogenbond:PHE:134    NaN
halogenbond:PHE:134     -1
Name: 69, dtype: object

>  <hydroph_interaction:ALA:135>  (71) 
hydroph_interaction:ALA:135    NaN
hydroph_interaction:ALA:135     -1
Name: 69, dtype: object

>  <hbond:ALA:135>  (71) 
hbond:ALA:135    NaN
hbond:ALA:135     -1
Name: 69, dtype: object

$$$$
PV_002873190497
     RDKit          3D

 17 19  0  0  0  0  0  0  0  0999 V2000
   27.5506   15.9055    9.5459 C   0  0  0  0  0  0  0  0  0  0  0  0
   28.5336   14.8846    9.1264 C   0  0  0  0  0  0  0  0  0  0  0  0
   29.9940   15.0314    9.4533 C   0  0  0  0  0  0  0  0  0  0  0  0
   30.8923   14.0506    9.0508 C   0  0  0  0  0  0  0  0  0  0  0  0
   30.2945   12.9347    8.3233 C   0  0  0  0  0  0  0  0  0  0  0  0
   30.9543   11.8295    7.8302 C   0  0  0  0  0  0  0  0  0  0  0  0
   30.5737   10.6247    8.3177 C   0  0  0  0  0  0  0  0  0  0  0  0
   31.2161    9.5935    7.8347 N   0  0  0  0  0  0  0  0  0  0  0  0
   30.9846    8.3243    8.1986 C   0  0  0  0  0  0  0  0  0  0  0  0
   32.1226   10.0891    6.9246 C   0  0  0  0  0  0  0  0  0  0  0  0
   33.1267    9.3824    6.0640 C   0  0  0  0  0  0  0  0  0  0  0  0
   33.9177   10.1513    5.2312 C   0  0  0  0  0  0  0  0  0  0  0  0
   33.7764   11.5345    5.2013 C   0  0  0  0  0  0  0  0  0  0  0  0
   32.8372   12.2077    6.0070 C   0  0  0  0  0  0  0  0  0  0  0  0
   31.9912   11.4983    6.8885 C   0  0  0  0  0  0  0  0  0  0  0  0
   28.9504   12.8847    8.0696 N   0  0  0  0  0  0  0  0  0  0  0  0
   28.0732   13.8405    8.4575 N   0  0  0  0  0  0  0  0  0  0  0  0
  1  2  1  0
  2  3  2  0
  3  4  1  0
  4  5  2  0
  5  6  1  0
  6  7  2  0
  7  8  1  0
  8  9  1  0
  8 10  1  0
 10 11  2  0
 11 12  1  0
 12 13  2  0
 13 14  1  0
 14 15  2  0
  5 16  1  0
 16 17  2  0
 17  2  1  0
 15  6  1  0
 15 10  1  0
A    1
 C1 
A    2
 C2 
A    3
 C3 
A    4
 C4 
A    5
 C5 
A    6
 C6 
A    7
 C7 
A    8
 N1 
A    9
 C8 
A   10
 C9 
A   11
 C10
A   12
 C11
A   13
 C12
A   14
 C13
A   15
 C14
A   16
 N2 
A   17
 N3 
M  END
>  <ref_pdb>  (72) 
Ax0310a

>  <ref_mols>  (72) 
Ax0451a,Ax0812a

>  <original SMILES>  (72) 
Cc1ccc(-c2cn(C)c3ccccc23)nn1

>  <rationale>  (72) 
info halogenbond:C110+G127+A86+E85+E106+T126+P107+H104+Y64+C65+S87+N129+F83+L131+I82+G128+P91+N19+H21+V84+G133+Y90+Y89+H97+L81+F134+L98+R20+G103+S66+S67+S7+G108+R38+V124+M99+S36; hbond:T126+C110+G108+G103+G128+G130+L131+N129+N19+H104+R68+V124+R93+P91+F83+S67+S7+S66+G112+G133+V132+R20+Y89+S77+A135+Y63+A92+A101+M99+F134+L100+I82+Y64+S36+L98+V84+L81+Y94+S80+R38+S37+V102+G8+I123+G111+I113+L114+C65+L22+S96; hydroph_interaction:Y90+Y89+H21+E106+N129+L40+I123+A135+Q95+I82+L100+L98+L131+F83+Y63+F134+H104+R20+A86+V74+P91+A101+F76+M99+L114+A92+Y94+R68+Y72+Y64+V18+V102+W28+G127+G128+L81; pication:H104+R93+Y63+F134+Y90+R68+F83+R20; pistack:Y89+Y90+H104+F134+Y63+F83+Y94; saltbridge:R93+H104+E106+D109+E85+E88+R68+R20; 

>  <intxn_cluster>  (72) 
-1

>  <intxn_cluster_rank>  (72) 
-1

>  <N_interactions>  (72) 
3

>  <∆∆G>  (72) 
-10.622993

>  <$/mg>  (72) 
163.0

>  <comRMSD>  (72) 
0.816457

>  <N_rotatable_bonds>  (72) 
3

>  <deep_P1_sidechain>  (72) 
nan

>  <farthest_distance_to_substrate>  (72) 
2.57333

>  <hbond:SER:7>  (72) 
hbond:SER:7    NaN
hbond:SER:7     -1
Name: 70, dtype: object

>  <halogenbond:SER:7>  (72) 
halogenbond:SER:7    NaN
halogenbond:SER:7     -1
Name: 70, dtype: object

>  <hbond:GLY:8>  (72) 
hbond:GLY:8    NaN
hbond:GLY:8     -1
Name: 70, dtype: object

>  <hydroph_interaction:VAL:18>  (72) 
hydroph_interaction:VAL:18    NaN
hydroph_interaction:VAL:18     -1
Name: 70, dtype: object

>  <hbond:ASN:19>  (72) 
hbond:ASN:19    NaN
hbond:ASN:19     -1
Name: 70, dtype: object

>  <hydroph_interaction:ASN:19>  (72) 
hydroph_interaction:ASN:19    0.0
hydroph_interaction:ASN:19      0
Name: 70, dtype: object

>  <halogenbond:ASN:19>  (72) 
halogenbond:ASN:19    NaN
halogenbond:ASN:19     -1
Name: 70, dtype: object

>  <hbond:ARG:20>  (72) 
hbond:ARG:20    NaN
hbond:ARG:20     -1
Name: 70, dtype: object

>  <hydroph_interaction:ARG:20>  (72) 
hydroph_interaction:ARG:20    NaN
hydroph_interaction:ARG:20     -1
Name: 70, dtype: object

>  <saltbridge:ARG:20>  (72) 
saltbridge:ARG:20    NaN
saltbridge:ARG:20     -1
Name: 70, dtype: object

>  <halogenbond:ARG:20>  (72) 
halogenbond:ARG:20    NaN
halogenbond:ARG:20     -1
Name: 70, dtype: object

>  <pication:ARG:20>  (72) 
pication:ARG:20    NaN
pication:ARG:20     -1
Name: 70, dtype: object

>  <hbond:HIS:21>  (72) 
hbond:HIS:21    0.0
hbond:HIS:21      0
Name: 70, dtype: object

>  <hydroph_interaction:HIS:21>  (72) 
hydroph_interaction:HIS:21    1.0
hydroph_interaction:HIS:21      1
Name: 70, dtype: object

>  <pistack:HIS:21>  (72) 
pistack:HIS:21    0.0
pistack:HIS:21      0
Name: 70, dtype: object

>  <pication:HIS:21>  (72) 
pication:HIS:21    0.0
pication:HIS:21      0
Name: 70, dtype: object

>  <saltbridge:HIS:21>  (72) 
saltbridge:HIS:21    0.0
saltbridge:HIS:21      0
Name: 70, dtype: object

>  <halogenbond:HIS:21>  (72) 
halogenbond:HIS:21    NaN
halogenbond:HIS:21     -1
Name: 70, dtype: object

>  <hydroph_interaction:LEU:22>  (72) 
hydroph_interaction:LEU:22    0.0
hydroph_interaction:LEU:22      0
Name: 70, dtype: object

>  <hbond:LEU:22>  (72) 
hbond:LEU:22    NaN
hbond:LEU:22     -1
Name: 70, dtype: object

>  <hydroph_interaction:TRP:28>  (72) 
hydroph_interaction:TRP:28    NaN
hydroph_interaction:TRP:28     -1
Name: 70, dtype: object

>  <hbond:SER:36>  (72) 
hbond:SER:36    NaN
hbond:SER:36     -1
Name: 70, dtype: object

>  <halogenbond:SER:36>  (72) 
halogenbond:SER:36    NaN
halogenbond:SER:36     -1
Name: 70, dtype: object

>  <hbond:SER:37>  (72) 
hbond:SER:37    NaN
hbond:SER:37     -1
Name: 70, dtype: object

>  <hbond:ARG:38>  (72) 
hbond:ARG:38    NaN
hbond:ARG:38     -1
Name: 70, dtype: object

>  <halogenbond:ARG:38>  (72) 
halogenbond:ARG:38    NaN
halogenbond:ARG:38     -1
Name: 70, dtype: object

>  <saltbridge:ASP:39>  (72) 
saltbridge:ASP:39    0.0
saltbridge:ASP:39      0
Name: 70, dtype: object

>  <halogenbond:ASP:39>  (72) 
halogenbond:ASP:39    0.0
halogenbond:ASP:39      0
Name: 70, dtype: object

>  <hbond:ASP:39>  (72) 
hbond:ASP:39    0.0
hbond:ASP:39      0
Name: 70, dtype: object

>  <hydroph_interaction:ASP:39>  (72) 
hydroph_interaction:ASP:39    0.0
hydroph_interaction:ASP:39      0
Name: 70, dtype: object

>  <hydroph_interaction:LEU:40>  (72) 
hydroph_interaction:LEU:40    NaN
hydroph_interaction:LEU:40     -1
Name: 70, dtype: object

>  <hydroph_interaction:TYR:63>  (72) 
hydroph_interaction:TYR:63    NaN
hydroph_interaction:TYR:63     -1
Name: 70, dtype: object

>  <hbond:TYR:63>  (72) 
hbond:TYR:63    NaN
hbond:TYR:63     -1
Name: 70, dtype: object

>  <pistack:TYR:63>  (72) 
pistack:TYR:63    NaN
pistack:TYR:63     -1
Name: 70, dtype: object

>  <pication:TYR:63>  (72) 
pication:TYR:63    NaN
pication:TYR:63     -1
Name: 70, dtype: object

>  <halogenbond:TYR:64>  (72) 
halogenbond:TYR:64    NaN
halogenbond:TYR:64     -1
Name: 70, dtype: object

>  <hbond:TYR:64>  (72) 
hbond:TYR:64    NaN
hbond:TYR:64     -1
Name: 70, dtype: object

>  <hydroph_interaction:TYR:64>  (72) 
hydroph_interaction:TYR:64    NaN
hydroph_interaction:TYR:64     -1
Name: 70, dtype: object

>  <halogenbond:CYS:65>  (72) 
halogenbond:CYS:65    NaN
halogenbond:CYS:65     -1
Name: 70, dtype: object

>  <hbond:CYS:65>  (72) 
hbond:CYS:65    NaN
hbond:CYS:65     -1
Name: 70, dtype: object

>  <hbond:SER:66>  (72) 
hbond:SER:66    NaN
hbond:SER:66     -1
Name: 70, dtype: object

>  <halogenbond:SER:66>  (72) 
halogenbond:SER:66    NaN
halogenbond:SER:66     -1
Name: 70, dtype: object

>  <hbond:SER:67>  (72) 
hbond:SER:67    NaN
hbond:SER:67     -1
Name: 70, dtype: object

>  <halogenbond:SER:67>  (72) 
halogenbond:SER:67    NaN
halogenbond:SER:67     -1
Name: 70, dtype: object

>  <hbond:ARG:68>  (72) 
hbond:ARG:68    NaN
hbond:ARG:68     -1
Name: 70, dtype: object

>  <saltbridge:ARG:68>  (72) 
saltbridge:ARG:68    NaN
saltbridge:ARG:68     -1
Name: 70, dtype: object

>  <hydroph_interaction:ARG:68>  (72) 
hydroph_interaction:ARG:68    NaN
hydroph_interaction:ARG:68     -1
Name: 70, dtype: object

>  <pication:ARG:68>  (72) 
pication:ARG:68    NaN
pication:ARG:68     -1
Name: 70, dtype: object

>  <hydroph_interaction:TYR:72>  (72) 
hydroph_interaction:TYR:72    NaN
hydroph_interaction:TYR:72     -1
Name: 70, dtype: object

>  <hydroph_interaction:VAL:74>  (72) 
hydroph_interaction:VAL:74    NaN
hydroph_interaction:VAL:74     -1
Name: 70, dtype: object

>  <hydroph_interaction:PHE:76>  (72) 
hydroph_interaction:PHE:76    NaN
hydroph_interaction:PHE:76     -1
Name: 70, dtype: object

>  <hbond:SER:77>  (72) 
hbond:SER:77    NaN
hbond:SER:77     -1
Name: 70, dtype: object

>  <hbond:SER:80>  (72) 
hbond:SER:80    NaN
hbond:SER:80     -1
Name: 70, dtype: object

>  <hbond:LEU:81>  (72) 
hbond:LEU:81    NaN
hbond:LEU:81     -1
Name: 70, dtype: object

>  <halogenbond:LEU:81>  (72) 
halogenbond:LEU:81    NaN
halogenbond:LEU:81     -1
Name: 70, dtype: object

>  <hydroph_interaction:LEU:81>  (72) 
hydroph_interaction:LEU:81    NaN
hydroph_interaction:LEU:81     -1
Name: 70, dtype: object

>  <hydroph_interaction:ILE:82>  (72) 
hydroph_interaction:ILE:82    NaN
hydroph_interaction:ILE:82     -1
Name: 70, dtype: object

>  <halogenbond:ILE:82>  (72) 
halogenbond:ILE:82    NaN
halogenbond:ILE:82     -1
Name: 70, dtype: object

>  <hbond:ILE:82>  (72) 
hbond:ILE:82    NaN
hbond:ILE:82     -1
Name: 70, dtype: object

>  <hbond:PHE:83>  (72) 
hbond:PHE:83    NaN
hbond:PHE:83     -1
Name: 70, dtype: object

>  <hydroph_interaction:PHE:83>  (72) 
hydroph_interaction:PHE:83    NaN
hydroph_interaction:PHE:83     -1
Name: 70, dtype: object

>  <halogenbond:PHE:83>  (72) 
halogenbond:PHE:83    NaN
halogenbond:PHE:83     -1
Name: 70, dtype: object

>  <pistack:PHE:83>  (72) 
pistack:PHE:83    NaN
pistack:PHE:83     -1
Name: 70, dtype: object

>  <pication:PHE:83>  (72) 
pication:PHE:83    NaN
pication:PHE:83     -1
Name: 70, dtype: object

>  <hydroph_interaction:VAL:84>  (72) 
hydroph_interaction:VAL:84    0.0
hydroph_interaction:VAL:84      0
Name: 70, dtype: object

>  <halogenbond:VAL:84>  (72) 
halogenbond:VAL:84    NaN
halogenbond:VAL:84     -1
Name: 70, dtype: object

>  <hbond:VAL:84>  (72) 
hbond:VAL:84    NaN
hbond:VAL:84     -1
Name: 70, dtype: object

>  <hydroph_interaction:GLU:85>  (72) 
hydroph_interaction:GLU:85    0.0
hydroph_interaction:GLU:85      0
Name: 70, dtype: object

>  <hbond:GLU:85>  (72) 
hbond:GLU:85    0.0
hbond:GLU:85      0
Name: 70, dtype: object

>  <halogenbond:GLU:85>  (72) 
halogenbond:GLU:85    NaN
halogenbond:GLU:85     -1
Name: 70, dtype: object

>  <saltbridge:GLU:85>  (72) 
saltbridge:GLU:85    NaN
saltbridge:GLU:85     -1
Name: 70, dtype: object

>  <halogenbond:ALA:86>  (72) 
halogenbond:ALA:86    NaN
halogenbond:ALA:86     -1
Name: 70, dtype: object

>  <hbond:ALA:86>  (72) 
hbond:ALA:86    0.0
hbond:ALA:86      0
Name: 70, dtype: object

>  <hydroph_interaction:ALA:86>  (72) 
hydroph_interaction:ALA:86    NaN
hydroph_interaction:ALA:86     -1
Name: 70, dtype: object

>  <hbond:SER:87>  (72) 
hbond:SER:87    0
hbond:SER:87    0
Name: 70, dtype: object

>  <halogenbond:SER:87>  (72) 
halogenbond:SER:87    NaN
halogenbond:SER:87     -1
Name: 70, dtype: object

>  <hbond:GLU:88>  (72) 
hbond:GLU:88    0.0
hbond:GLU:88      0
Name: 70, dtype: object

>  <hydroph_interaction:GLU:88>  (72) 
hydroph_interaction:GLU:88    0.0
hydroph_interaction:GLU:88      0
Name: 70, dtype: object

>  <halogenbond:GLU:88>  (72) 
halogenbond:GLU:88    0.0
halogenbond:GLU:88      0
Name: 70, dtype: object

>  <saltbridge:GLU:88>  (72) 
saltbridge:GLU:88    NaN
saltbridge:GLU:88     -1
Name: 70, dtype: object

>  <hydroph_interaction:TYR:89>  (72) 
hydroph_interaction:TYR:89    1.0
hydroph_interaction:TYR:89      1
Name: 70, dtype: object

>  <pistack:TYR:89>  (72) 
pistack:TYR:89    NaN
pistack:TYR:89     -1
Name: 70, dtype: object

>  <hbond:TYR:89>  (72) 
hbond:TYR:89    NaN
hbond:TYR:89     -1
Name: 70, dtype: object

>  <halogenbond:TYR:89>  (72) 
halogenbond:TYR:89    NaN
halogenbond:TYR:89     -1
Name: 70, dtype: object

>  <hydroph_interaction:TYR:90>  (72) 
hydroph_interaction:TYR:90    1.0
hydroph_interaction:TYR:90      1
Name: 70, dtype: object

>  <hbond:TYR:90>  (72) 
hbond:TYR:90    0.0
hbond:TYR:90      0
Name: 70, dtype: object

>  <pistack:TYR:90>  (72) 
pistack:TYR:90    NaN
pistack:TYR:90     -1
Name: 70, dtype: object

>  <halogenbond:TYR:90>  (72) 
halogenbond:TYR:90    NaN
halogenbond:TYR:90     -1
Name: 70, dtype: object

>  <pication:TYR:90>  (72) 
pication:TYR:90    NaN
pication:TYR:90     -1
Name: 70, dtype: object

>  <hbond:PRO:91>  (72) 
hbond:PRO:91    NaN
hbond:PRO:91     -1
Name: 70, dtype: object

>  <hydroph_interaction:PRO:91>  (72) 
hydroph_interaction:PRO:91    NaN
hydroph_interaction:PRO:91     -1
Name: 70, dtype: object

>  <halogenbond:PRO:91>  (72) 
halogenbond:PRO:91    NaN
halogenbond:PRO:91     -1
Name: 70, dtype: object

>  <hbond:ALA:92>  (72) 
hbond:ALA:92    NaN
hbond:ALA:92     -1
Name: 70, dtype: object

>  <hydroph_interaction:ALA:92>  (72) 
hydroph_interaction:ALA:92    NaN
hydroph_interaction:ALA:92     -1
Name: 70, dtype: object

>  <saltbridge:ARG:93>  (72) 
saltbridge:ARG:93    NaN
saltbridge:ARG:93     -1
Name: 70, dtype: object

>  <hbond:ARG:93>  (72) 
hbond:ARG:93    NaN
hbond:ARG:93     -1
Name: 70, dtype: object

>  <hydroph_interaction:ARG:93>  (72) 
hydroph_interaction:ARG:93    0.0
hydroph_interaction:ARG:93      0
Name: 70, dtype: object

>  <halogenbond:ARG:93>  (72) 
halogenbond:ARG:93    0.0
halogenbond:ARG:93      0
Name: 70, dtype: object

>  <pication:ARG:93>  (72) 
pication:ARG:93    NaN
pication:ARG:93     -1
Name: 70, dtype: object

>  <hydroph_interaction:TYR:94>  (72) 
hydroph_interaction:TYR:94    NaN
hydroph_interaction:TYR:94     -1
Name: 70, dtype: object

>  <pistack:TYR:94>  (72) 
pistack:TYR:94    NaN
pistack:TYR:94     -1
Name: 70, dtype: object

>  <hbond:TYR:94>  (72) 
hbond:TYR:94    NaN
hbond:TYR:94     -1
Name: 70, dtype: object

>  <hbond:GLN:95>  (72) 
hbond:GLN:95    0.0
hbond:GLN:95      0
Name: 70, dtype: object

>  <hydroph_interaction:GLN:95>  (72) 
hydroph_interaction:GLN:95    NaN
hydroph_interaction:GLN:95     -1
Name: 70, dtype: object

>  <halogenbond:GLN:95>  (72) 
halogenbond:GLN:95    0.0
halogenbond:GLN:95      0
Name: 70, dtype: object

>  <hbond:SER:96>  (72) 
hbond:SER:96    NaN
hbond:SER:96     -1
Name: 70, dtype: object

>  <halogenbond:HIS:97>  (72) 
halogenbond:HIS:97    NaN
halogenbond:HIS:97     -1
Name: 70, dtype: object

>  <hydroph_interaction:LEU:98>  (72) 
hydroph_interaction:LEU:98    NaN
hydroph_interaction:LEU:98     -1
Name: 70, dtype: object

>  <hbond:LEU:98>  (72) 
hbond:LEU:98    NaN
hbond:LEU:98     -1
Name: 70, dtype: object

>  <halogenbond:LEU:98>  (72) 
halogenbond:LEU:98    NaN
halogenbond:LEU:98     -1
Name: 70, dtype: object

>  <hbond:MET:99>  (72) 
hbond:MET:99    NaN
hbond:MET:99     -1
Name: 70, dtype: object

>  <hydroph_interaction:MET:99>  (72) 
hydroph_interaction:MET:99    NaN
hydroph_interaction:MET:99     -1
Name: 70, dtype: object

>  <halogenbond:MET:99>  (72) 
halogenbond:MET:99    NaN
halogenbond:MET:99     -1
Name: 70, dtype: object

>  <hydroph_interaction:LEU:100>  (72) 
hydroph_interaction:LEU:100    NaN
hydroph_interaction:LEU:100     -1
Name: 70, dtype: object

>  <hbond:LEU:100>  (72) 
hbond:LEU:100    NaN
hbond:LEU:100     -1
Name: 70, dtype: object

>  <hbond:ALA:101>  (72) 
hbond:ALA:101    NaN
hbond:ALA:101     -1
Name: 70, dtype: object

>  <hydroph_interaction:ALA:101>  (72) 
hydroph_interaction:ALA:101    NaN
hydroph_interaction:ALA:101     -1
Name: 70, dtype: object

>  <hydroph_interaction:VAL:102>  (72) 
hydroph_interaction:VAL:102    NaN
hydroph_interaction:VAL:102     -1
Name: 70, dtype: object

>  <hbond:VAL:102>  (72) 
hbond:VAL:102    NaN
hbond:VAL:102     -1
Name: 70, dtype: object

>  <hbond:GLY:103>  (72) 
hbond:GLY:103    NaN
hbond:GLY:103     -1
Name: 70, dtype: object

>  <halogenbond:GLY:103>  (72) 
halogenbond:GLY:103    NaN
halogenbond:GLY:103     -1
Name: 70, dtype: object

>  <hbond:HIS:104>  (72) 
hbond:HIS:104    NaN
hbond:HIS:104     -1
Name: 70, dtype: object

>  <saltbridge:HIS:104>  (72) 
saltbridge:HIS:104    NaN
saltbridge:HIS:104     -1
Name: 70, dtype: object

>  <pication:HIS:104>  (72) 
pication:HIS:104    NaN
pication:HIS:104     -1
Name: 70, dtype: object

>  <halogenbond:HIS:104>  (72) 
halogenbond:HIS:104    NaN
halogenbond:HIS:104     -1
Name: 70, dtype: object

>  <hydroph_interaction:HIS:104>  (72) 
hydroph_interaction:HIS:104    NaN
hydroph_interaction:HIS:104     -1
Name: 70, dtype: object

>  <pistack:HIS:104>  (72) 
pistack:HIS:104    NaN
pistack:HIS:104     -1
Name: 70, dtype: object

>  <halogenbond:SER:105>  (72) 
halogenbond:SER:105    0.0
halogenbond:SER:105      0
Name: 70, dtype: object

>  <hbond:SER:105>  (72) 
hbond:SER:105    0.0
hbond:SER:105      0
Name: 70, dtype: object

>  <hbond:GLU:106>  (72) 
hbond:GLU:106    0.0
hbond:GLU:106      0
Name: 70, dtype: object

>  <hydroph_interaction:GLU:106>  (72) 
hydroph_interaction:GLU:106    NaN
hydroph_interaction:GLU:106     -1
Name: 70, dtype: object

>  <saltbridge:GLU:106>  (72) 
saltbridge:GLU:106    NaN
saltbridge:GLU:106     -1
Name: 70, dtype: object

>  <halogenbond:GLU:106>  (72) 
halogenbond:GLU:106    NaN
halogenbond:GLU:106     -1
Name: 70, dtype: object

>  <hydroph_interaction:PRO:107>  (72) 
hydroph_interaction:PRO:107    0
hydroph_interaction:PRO:107    0
Name: 70, dtype: object

>  <hbond:PRO:107>  (72) 
hbond:PRO:107    0.0
hbond:PRO:107      0
Name: 70, dtype: object

>  <halogenbond:PRO:107>  (72) 
halogenbond:PRO:107    NaN
halogenbond:PRO:107     -1
Name: 70, dtype: object

>  <hbond:GLY:108>  (72) 
hbond:GLY:108    NaN
hbond:GLY:108     -1
Name: 70, dtype: object

>  <halogenbond:GLY:108>  (72) 
halogenbond:GLY:108    NaN
halogenbond:GLY:108     -1
Name: 70, dtype: object

>  <hbond:ASP:109>  (72) 
hbond:ASP:109    0.0
hbond:ASP:109      0
Name: 70, dtype: object

>  <hydroph_interaction:ASP:109>  (72) 
hydroph_interaction:ASP:109    0.0
hydroph_interaction:ASP:109      0
Name: 70, dtype: object

>  <saltbridge:ASP:109>  (72) 
saltbridge:ASP:109    NaN
saltbridge:ASP:109     -1
Name: 70, dtype: object

>  <halogenbond:CYS:110>  (72) 
halogenbond:CYS:110    NaN
halogenbond:CYS:110     -1
Name: 70, dtype: object

>  <hbond:CYS:110>  (72) 
hbond:CYS:110    NaN
hbond:CYS:110     -1
Name: 70, dtype: object

>  <hbond:GLY:111>  (72) 
hbond:GLY:111    NaN
hbond:GLY:111     -1
Name: 70, dtype: object

>  <hbond:GLY:112>  (72) 
hbond:GLY:112    NaN
hbond:GLY:112     -1
Name: 70, dtype: object

>  <hbond:ILE:113>  (72) 
hbond:ILE:113    NaN
hbond:ILE:113     -1
Name: 70, dtype: object

>  <hydroph_interaction:LEU:114>  (72) 
hydroph_interaction:LEU:114    NaN
hydroph_interaction:LEU:114     -1
Name: 70, dtype: object

>  <hbond:LEU:114>  (72) 
hbond:LEU:114    NaN
hbond:LEU:114     -1
Name: 70, dtype: object

>  <hydroph_interaction:ILE:123>  (72) 
hydroph_interaction:ILE:123    NaN
hydroph_interaction:ILE:123     -1
Name: 70, dtype: object

>  <hbond:ILE:123>  (72) 
hbond:ILE:123    NaN
hbond:ILE:123     -1
Name: 70, dtype: object

>  <hydroph_interaction:VAL:124>  (72) 
hydroph_interaction:VAL:124    0.0
hydroph_interaction:VAL:124      0
Name: 70, dtype: object

>  <hbond:VAL:124>  (72) 
hbond:VAL:124    NaN
hbond:VAL:124     -1
Name: 70, dtype: object

>  <halogenbond:VAL:124>  (72) 
halogenbond:VAL:124    NaN
halogenbond:VAL:124     -1
Name: 70, dtype: object

>  <hbond:SER:125>  (72) 
hbond:SER:125    0
hbond:SER:125    0
Name: 70, dtype: object

>  <halogenbond:SER:125>  (72) 
halogenbond:SER:125    0.0
halogenbond:SER:125      0
Name: 70, dtype: object

>  <hydroph_interaction:THR:126>  (72) 
hydroph_interaction:THR:126    0.0
hydroph_interaction:THR:126      0
Name: 70, dtype: object

>  <hbond:THR:126>  (72) 
hbond:THR:126    NaN
hbond:THR:126     -1
Name: 70, dtype: object

>  <halogenbond:THR:126>  (72) 
halogenbond:THR:126    NaN
halogenbond:THR:126     -1
Name: 70, dtype: object

>  <hbond:GLY:127>  (72) 
hbond:GLY:127    0
hbond:GLY:127    0
Name: 70, dtype: object

>  <halogenbond:GLY:127>  (72) 
halogenbond:GLY:127    NaN
halogenbond:GLY:127     -1
Name: 70, dtype: object

>  <hydroph_interaction:GLY:127>  (72) 
hydroph_interaction:GLY:127    NaN
hydroph_interaction:GLY:127     -1
Name: 70, dtype: object

>  <hbond:GLY:128>  (72) 
hbond:GLY:128    NaN
hbond:GLY:128     -1
Name: 70, dtype: object

>  <halogenbond:GLY:128>  (72) 
halogenbond:GLY:128    NaN
halogenbond:GLY:128     -1
Name: 70, dtype: object

>  <hydroph_interaction:GLY:128>  (72) 
hydroph_interaction:GLY:128    NaN
hydroph_interaction:GLY:128     -1
Name: 70, dtype: object

>  <hbond:ASN:129>  (72) 
hbond:ASN:129    NaN
hbond:ASN:129     -1
Name: 70, dtype: object

>  <hydroph_interaction:ASN:129>  (72) 
hydroph_interaction:ASN:129    NaN
hydroph_interaction:ASN:129     -1
Name: 70, dtype: object

>  <halogenbond:ASN:129>  (72) 
halogenbond:ASN:129    NaN
halogenbond:ASN:129     -1
Name: 70, dtype: object

>  <hbond:GLY:130>  (72) 
hbond:GLY:130    NaN
hbond:GLY:130     -1
Name: 70, dtype: object

>  <hbond:LEU:131>  (72) 
hbond:LEU:131    NaN
hbond:LEU:131     -1
Name: 70, dtype: object

>  <hydroph_interaction:LEU:131>  (72) 
hydroph_interaction:LEU:131    NaN
hydroph_interaction:LEU:131     -1
Name: 70, dtype: object

>  <halogenbond:LEU:131>  (72) 
halogenbond:LEU:131    NaN
halogenbond:LEU:131     -1
Name: 70, dtype: object

>  <hydroph_interaction:VAL:132>  (72) 
hydroph_interaction:VAL:132    0.0
hydroph_interaction:VAL:132      0
Name: 70, dtype: object

>  <hbond:VAL:132>  (72) 
hbond:VAL:132    NaN
hbond:VAL:132     -1
Name: 70, dtype: object

>  <hbond:GLY:133>  (72) 
hbond:GLY:133    NaN
hbond:GLY:133     -1
Name: 70, dtype: object

>  <halogenbond:GLY:133>  (72) 
halogenbond:GLY:133    NaN
halogenbond:GLY:133     -1
Name: 70, dtype: object

>  <hydroph_interaction:PHE:134>  (72) 
hydroph_interaction:PHE:134    NaN
hydroph_interaction:PHE:134     -1
Name: 70, dtype: object

>  <hbond:PHE:134>  (72) 
hbond:PHE:134    NaN
hbond:PHE:134     -1
Name: 70, dtype: object

>  <pistack:PHE:134>  (72) 
pistack:PHE:134    NaN
pistack:PHE:134     -1
Name: 70, dtype: object

>  <pication:PHE:134>  (72) 
pication:PHE:134    NaN
pication:PHE:134     -1
Name: 70, dtype: object

>  <halogenbond:PHE:134>  (72) 
halogenbond:PHE:134    NaN
halogenbond:PHE:134     -1
Name: 70, dtype: object

>  <hydroph_interaction:ALA:135>  (72) 
hydroph_interaction:ALA:135    NaN
hydroph_interaction:ALA:135     -1
Name: 70, dtype: object

>  <hbond:ALA:135>  (72) 
hbond:ALA:135    NaN
hbond:ALA:135     -1
Name: 70, dtype: object

$$$$
PV_005829523368
     RDKit          3D

 11 11  0  0  0  0  0  0  0  0999 V2000
   39.9388   13.7316    9.4438 C   0  0  0  0  0  0  0  0  0  0  0  0
   40.1859   12.5017   10.2981 C   0  0  0  0  0  0  0  0  0  0  0  0
   38.9792   11.9967   11.0841 C   0  0  0  0  0  0  0  0  0  0  0  0
   38.4781   12.9572   12.1093 C   0  0  0  0  0  0  0  0  0  0  0  0
   39.3114   14.0304   12.0369 N   0  0  0  0  0  0  0  0  0  0  0  0
   37.2794   12.5333   12.8997 C   0  0  0  0  0  0  0  0  0  0  0  0
   36.6466   13.3974   13.9599 C   0  0  0  0  0  0  0  0  0  0  0  0
   36.7658   11.2853   12.6198 C   0  0  0  0  0  0  0  0  0  0  0  0
   37.2900   10.4421   11.6712 C   0  0  0  0  0  0  0  0  0  0  0  0
   36.7043    9.2846   11.5481 F   0  0  0  0  0  0  0  0  0  0  0  0
   38.3718   10.7861   10.8991 C   0  0  0  0  0  0  0  0  0  0  0  0
  1  2  2  0
  2  3  1  0
  3  4  2  0
  4  5  1  0
  4  6  1  0
  6  7  1  0
  6  8  2  0
  8  9  1  0
  9 10  1  0
  9 11  2  0
 11  3  1  0
A    1
 C1 
A    2
 C2 
A    3
 C3 
A    4
 C4 
A    5
 N1 
A    6
 C5 
A    7
 C6 
A    8
 C7 
A    9
 C8 
A   10
 F1 
A   11
 C9 
M  END
>  <ref_pdb>  (73) 
Ax0310a

>  <ref_mols>  (73) 
Ax0310a,Ax0473a

>  <original SMILES>  (73) 
C=Cc1cc(F)cc(C)c1N

>  <rationale>  (73) 
info halogenbond:C110+A86+S125+E106+E88+T126+P107+H104+Y64+C65+S87+F83+R93+L131+I82+G128+P91+N19+H21+V84+G133+Y90+Y89+H97+L81+F134+L98+R20+G103+S66+S67+S7+G108+R38+V124+M99+S36; hbond:E85+G108+G103+G130+H104+R68+P91+F83+S67+S7+S66+G112+R20+Y89+S77+A135+Y63+A92+A101+M99+F134+L100+I82+Y64+S36+L98+V84+Y94+S80+R38+S37+V102+G8+I123+G111+I113+L114+C65+L22+S96; hydroph_interaction:V84+E85+L40+I123+A135+I82+L100+L98+L131+R93+H104+R20+A86+V74+P91+A101+F76+M99+L114+Y94+R68+Y72+Y64+V18+V102+W28+G127+G128+L81; pication:H104+R93+Y63+F134+Y90+R68+F83+R20; pistack:Y90+H104+F134+Y63+F83+Y94; saltbridge:R93+H104+E106+R68+R20; 

>  <intxn_cluster>  (73) 
-1

>  <intxn_cluster_rank>  (73) 
-1

>  <N_interactions>  (73) 
9

>  <∆∆G>  (73) 
-5.830131

>  <$/mg>  (73) 
163.0

>  <comRMSD>  (73) 
0.667619

>  <N_rotatable_bonds>  (73) 
3

>  <deep_P1_sidechain>  (73) 
nan

>  <farthest_distance_to_substrate>  (73) 
3.891538

>  <hbond:SER:7>  (73) 
hbond:SER:7    NaN
hbond:SER:7     -1
Name: 71, dtype: object

>  <halogenbond:SER:7>  (73) 
halogenbond:SER:7    NaN
halogenbond:SER:7     -1
Name: 71, dtype: object

>  <hbond:GLY:8>  (73) 
hbond:GLY:8    NaN
hbond:GLY:8     -1
Name: 71, dtype: object

>  <hydroph_interaction:VAL:18>  (73) 
hydroph_interaction:VAL:18    NaN
hydroph_interaction:VAL:18     -1
Name: 71, dtype: object

>  <hbond:ASN:19>  (73) 
hbond:ASN:19    0.0
hbond:ASN:19      0
Name: 71, dtype: object

>  <hydroph_interaction:ASN:19>  (73) 
hydroph_interaction:ASN:19    0.0
hydroph_interaction:ASN:19      0
Name: 71, dtype: object

>  <halogenbond:ASN:19>  (73) 
halogenbond:ASN:19    NaN
halogenbond:ASN:19     -1
Name: 71, dtype: object

>  <hbond:ARG:20>  (73) 
hbond:ARG:20    NaN
hbond:ARG:20     -1
Name: 71, dtype: object

>  <hydroph_interaction:ARG:20>  (73) 
hydroph_interaction:ARG:20    NaN
hydroph_interaction:ARG:20     -1
Name: 71, dtype: object

>  <saltbridge:ARG:20>  (73) 
saltbridge:ARG:20    NaN
saltbridge:ARG:20     -1
Name: 71, dtype: object

>  <halogenbond:ARG:20>  (73) 
halogenbond:ARG:20    NaN
halogenbond:ARG:20     -1
Name: 71, dtype: object

>  <pication:ARG:20>  (73) 
pication:ARG:20    NaN
pication:ARG:20     -1
Name: 71, dtype: object

>  <hbond:HIS:21>  (73) 
hbond:HIS:21    0.0
hbond:HIS:21      0
Name: 71, dtype: object

>  <hydroph_interaction:HIS:21>  (73) 
hydroph_interaction:HIS:21    0.0
hydroph_interaction:HIS:21      0
Name: 71, dtype: object

>  <pistack:HIS:21>  (73) 
pistack:HIS:21    0.0
pistack:HIS:21      0
Name: 71, dtype: object

>  <pication:HIS:21>  (73) 
pication:HIS:21    0.0
pication:HIS:21      0
Name: 71, dtype: object

>  <saltbridge:HIS:21>  (73) 
saltbridge:HIS:21    0.0
saltbridge:HIS:21      0
Name: 71, dtype: object

>  <halogenbond:HIS:21>  (73) 
halogenbond:HIS:21    NaN
halogenbond:HIS:21     -1
Name: 71, dtype: object

>  <hydroph_interaction:LEU:22>  (73) 
hydroph_interaction:LEU:22    0.0
hydroph_interaction:LEU:22      0
Name: 71, dtype: object

>  <hbond:LEU:22>  (73) 
hbond:LEU:22    NaN
hbond:LEU:22     -1
Name: 71, dtype: object

>  <hydroph_interaction:TRP:28>  (73) 
hydroph_interaction:TRP:28    NaN
hydroph_interaction:TRP:28     -1
Name: 71, dtype: object

>  <hbond:SER:36>  (73) 
hbond:SER:36    NaN
hbond:SER:36     -1
Name: 71, dtype: object

>  <halogenbond:SER:36>  (73) 
halogenbond:SER:36    NaN
halogenbond:SER:36     -1
Name: 71, dtype: object

>  <hbond:SER:37>  (73) 
hbond:SER:37    NaN
hbond:SER:37     -1
Name: 71, dtype: object

>  <hbond:ARG:38>  (73) 
hbond:ARG:38    NaN
hbond:ARG:38     -1
Name: 71, dtype: object

>  <halogenbond:ARG:38>  (73) 
halogenbond:ARG:38    NaN
halogenbond:ARG:38     -1
Name: 71, dtype: object

>  <saltbridge:ASP:39>  (73) 
saltbridge:ASP:39    0.0
saltbridge:ASP:39      0
Name: 71, dtype: object

>  <halogenbond:ASP:39>  (73) 
halogenbond:ASP:39    0.0
halogenbond:ASP:39      0
Name: 71, dtype: object

>  <hbond:ASP:39>  (73) 
hbond:ASP:39    0.0
hbond:ASP:39      0
Name: 71, dtype: object

>  <hydroph_interaction:ASP:39>  (73) 
hydroph_interaction:ASP:39    0.0
hydroph_interaction:ASP:39      0
Name: 71, dtype: object

>  <hydroph_interaction:LEU:40>  (73) 
hydroph_interaction:LEU:40    NaN
hydroph_interaction:LEU:40     -1
Name: 71, dtype: object

>  <hydroph_interaction:TYR:63>  (73) 
hydroph_interaction:TYR:63    0.0
hydroph_interaction:TYR:63      0
Name: 71, dtype: object

>  <hbond:TYR:63>  (73) 
hbond:TYR:63    NaN
hbond:TYR:63     -1
Name: 71, dtype: object

>  <pistack:TYR:63>  (73) 
pistack:TYR:63    NaN
pistack:TYR:63     -1
Name: 71, dtype: object

>  <pication:TYR:63>  (73) 
pication:TYR:63    NaN
pication:TYR:63     -1
Name: 71, dtype: object

>  <halogenbond:TYR:64>  (73) 
halogenbond:TYR:64    NaN
halogenbond:TYR:64     -1
Name: 71, dtype: object

>  <hbond:TYR:64>  (73) 
hbond:TYR:64    NaN
hbond:TYR:64     -1
Name: 71, dtype: object

>  <hydroph_interaction:TYR:64>  (73) 
hydroph_interaction:TYR:64    NaN
hydroph_interaction:TYR:64     -1
Name: 71, dtype: object

>  <halogenbond:CYS:65>  (73) 
halogenbond:CYS:65    NaN
halogenbond:CYS:65     -1
Name: 71, dtype: object

>  <hbond:CYS:65>  (73) 
hbond:CYS:65    NaN
hbond:CYS:65     -1
Name: 71, dtype: object

>  <hbond:SER:66>  (73) 
hbond:SER:66    NaN
hbond:SER:66     -1
Name: 71, dtype: object

>  <halogenbond:SER:66>  (73) 
halogenbond:SER:66    NaN
halogenbond:SER:66     -1
Name: 71, dtype: object

>  <hbond:SER:67>  (73) 
hbond:SER:67    NaN
hbond:SER:67     -1
Name: 71, dtype: object

>  <halogenbond:SER:67>  (73) 
halogenbond:SER:67    NaN
halogenbond:SER:67     -1
Name: 71, dtype: object

>  <hbond:ARG:68>  (73) 
hbond:ARG:68    NaN
hbond:ARG:68     -1
Name: 71, dtype: object

>  <saltbridge:ARG:68>  (73) 
saltbridge:ARG:68    NaN
saltbridge:ARG:68     -1
Name: 71, dtype: object

>  <hydroph_interaction:ARG:68>  (73) 
hydroph_interaction:ARG:68    NaN
hydroph_interaction:ARG:68     -1
Name: 71, dtype: object

>  <pication:ARG:68>  (73) 
pication:ARG:68    NaN
pication:ARG:68     -1
Name: 71, dtype: object

>  <hydroph_interaction:TYR:72>  (73) 
hydroph_interaction:TYR:72    NaN
hydroph_interaction:TYR:72     -1
Name: 71, dtype: object

>  <hydroph_interaction:VAL:74>  (73) 
hydroph_interaction:VAL:74    NaN
hydroph_interaction:VAL:74     -1
Name: 71, dtype: object

>  <hydroph_interaction:PHE:76>  (73) 
hydroph_interaction:PHE:76    NaN
hydroph_interaction:PHE:76     -1
Name: 71, dtype: object

>  <hbond:SER:77>  (73) 
hbond:SER:77    NaN
hbond:SER:77     -1
Name: 71, dtype: object

>  <hbond:SER:80>  (73) 
hbond:SER:80    NaN
hbond:SER:80     -1
Name: 71, dtype: object

>  <hbond:LEU:81>  (73) 
hbond:LEU:81    0.0
hbond:LEU:81      0
Name: 71, dtype: object

>  <halogenbond:LEU:81>  (73) 
halogenbond:LEU:81    NaN
halogenbond:LEU:81     -1
Name: 71, dtype: object

>  <hydroph_interaction:LEU:81>  (73) 
hydroph_interaction:LEU:81    NaN
hydroph_interaction:LEU:81     -1
Name: 71, dtype: object

>  <hydroph_interaction:ILE:82>  (73) 
hydroph_interaction:ILE:82    1.0
hydroph_interaction:ILE:82      1
Name: 71, dtype: object

>  <halogenbond:ILE:82>  (73) 
halogenbond:ILE:82    NaN
halogenbond:ILE:82     -1
Name: 71, dtype: object

>  <hbond:ILE:82>  (73) 
hbond:ILE:82    NaN
hbond:ILE:82     -1
Name: 71, dtype: object

>  <hbond:PHE:83>  (73) 
hbond:PHE:83    1.0
hbond:PHE:83      1
Name: 71, dtype: object

>  <hydroph_interaction:PHE:83>  (73) 
hydroph_interaction:PHE:83    0.0
hydroph_interaction:PHE:83      0
Name: 71, dtype: object

>  <halogenbond:PHE:83>  (73) 
halogenbond:PHE:83    NaN
halogenbond:PHE:83     -1
Name: 71, dtype: object

>  <pistack:PHE:83>  (73) 
pistack:PHE:83    NaN
pistack:PHE:83     -1
Name: 71, dtype: object

>  <pication:PHE:83>  (73) 
pication:PHE:83    NaN
pication:PHE:83     -1
Name: 71, dtype: object

>  <hydroph_interaction:VAL:84>  (73) 
hydroph_interaction:VAL:84    2.0
hydroph_interaction:VAL:84      2
Name: 71, dtype: object

>  <halogenbond:VAL:84>  (73) 
halogenbond:VAL:84    NaN
halogenbond:VAL:84     -1
Name: 71, dtype: object

>  <hbond:VAL:84>  (73) 
hbond:VAL:84    NaN
hbond:VAL:84     -1
Name: 71, dtype: object

>  <hydroph_interaction:GLU:85>  (73) 
hydroph_interaction:GLU:85    1.0
hydroph_interaction:GLU:85      1
Name: 71, dtype: object

>  <hbond:GLU:85>  (73) 
hbond:GLU:85    1.0
hbond:GLU:85      1
Name: 71, dtype: object

>  <halogenbond:GLU:85>  (73) 
halogenbond:GLU:85    0.0
halogenbond:GLU:85      0
Name: 71, dtype: object

>  <saltbridge:GLU:85>  (73) 
saltbridge:GLU:85    0.0
saltbridge:GLU:85      0
Name: 71, dtype: object

>  <halogenbond:ALA:86>  (73) 
halogenbond:ALA:86    NaN
halogenbond:ALA:86     -1
Name: 71, dtype: object

>  <hbond:ALA:86>  (73) 
hbond:ALA:86    0.0
hbond:ALA:86      0
Name: 71, dtype: object

>  <hydroph_interaction:ALA:86>  (73) 
hydroph_interaction:ALA:86    NaN
hydroph_interaction:ALA:86     -1
Name: 71, dtype: object

>  <hbond:SER:87>  (73) 
hbond:SER:87    0
hbond:SER:87    0
Name: 71, dtype: object

>  <halogenbond:SER:87>  (73) 
halogenbond:SER:87    NaN
halogenbond:SER:87     -1
Name: 71, dtype: object

>  <hbond:GLU:88>  (73) 
hbond:GLU:88    0.0
hbond:GLU:88      0
Name: 71, dtype: object

>  <hydroph_interaction:GLU:88>  (73) 
hydroph_interaction:GLU:88    0.0
hydroph_interaction:GLU:88      0
Name: 71, dtype: object

>  <halogenbond:GLU:88>  (73) 
halogenbond:GLU:88    NaN
halogenbond:GLU:88     -1
Name: 71, dtype: object

>  <saltbridge:GLU:88>  (73) 
saltbridge:GLU:88    0.0
saltbridge:GLU:88      0
Name: 71, dtype: object

>  <hydroph_interaction:TYR:89>  (73) 
hydroph_interaction:TYR:89    0.0
hydroph_interaction:TYR:89      0
Name: 71, dtype: object

>  <pistack:TYR:89>  (73) 
pistack:TYR:89    0.0
pistack:TYR:89      0
Name: 71, dtype: object

>  <hbond:TYR:89>  (73) 
hbond:TYR:89    NaN
hbond:TYR:89     -1
Name: 71, dtype: object

>  <halogenbond:TYR:89>  (73) 
halogenbond:TYR:89    NaN
halogenbond:TYR:89     -1
Name: 71, dtype: object

>  <hydroph_interaction:TYR:90>  (73) 
hydroph_interaction:TYR:90    0.0
hydroph_interaction:TYR:90      0
Name: 71, dtype: object

>  <hbond:TYR:90>  (73) 
hbond:TYR:90    0.0
hbond:TYR:90      0
Name: 71, dtype: object

>  <pistack:TYR:90>  (73) 
pistack:TYR:90    NaN
pistack:TYR:90     -1
Name: 71, dtype: object

>  <halogenbond:TYR:90>  (73) 
halogenbond:TYR:90    NaN
halogenbond:TYR:90     -1
Name: 71, dtype: object

>  <pication:TYR:90>  (73) 
pication:TYR:90    NaN
pication:TYR:90     -1
Name: 71, dtype: object

>  <hbond:PRO:91>  (73) 
hbond:PRO:91    NaN
hbond:PRO:91     -1
Name: 71, dtype: object

>  <hydroph_interaction:PRO:91>  (73) 
hydroph_interaction:PRO:91    NaN
hydroph_interaction:PRO:91     -1
Name: 71, dtype: object

>  <halogenbond:PRO:91>  (73) 
halogenbond:PRO:91    NaN
halogenbond:PRO:91     -1
Name: 71, dtype: object

>  <hbond:ALA:92>  (73) 
hbond:ALA:92    NaN
hbond:ALA:92     -1
Name: 71, dtype: object

>  <hydroph_interaction:ALA:92>  (73) 
hydroph_interaction:ALA:92    0.0
hydroph_interaction:ALA:92      0
Name: 71, dtype: object

>  <saltbridge:ARG:93>  (73) 
saltbridge:ARG:93    NaN
saltbridge:ARG:93     -1
Name: 71, dtype: object

>  <hbond:ARG:93>  (73) 
hbond:ARG:93    0.0
hbond:ARG:93      0
Name: 71, dtype: object

>  <hydroph_interaction:ARG:93>  (73) 
hydroph_interaction:ARG:93    NaN
hydroph_interaction:ARG:93     -1
Name: 71, dtype: object

>  <halogenbond:ARG:93>  (73) 
halogenbond:ARG:93    NaN
halogenbond:ARG:93     -1
Name: 71, dtype: object

>  <pication:ARG:93>  (73) 
pication:ARG:93    NaN
pication:ARG:93     -1
Name: 71, dtype: object

>  <hydroph_interaction:TYR:94>  (73) 
hydroph_interaction:TYR:94    NaN
hydroph_interaction:TYR:94     -1
Name: 71, dtype: object

>  <pistack:TYR:94>  (73) 
pistack:TYR:94    NaN
pistack:TYR:94     -1
Name: 71, dtype: object

>  <hbond:TYR:94>  (73) 
hbond:TYR:94    NaN
hbond:TYR:94     -1
Name: 71, dtype: object

>  <hbond:GLN:95>  (73) 
hbond:GLN:95    0.0
hbond:GLN:95      0
Name: 71, dtype: object

>  <hydroph_interaction:GLN:95>  (73) 
hydroph_interaction:GLN:95    0.0
hydroph_interaction:GLN:95      0
Name: 71, dtype: object

>  <halogenbond:GLN:95>  (73) 
halogenbond:GLN:95    0.0
halogenbond:GLN:95      0
Name: 71, dtype: object

>  <hbond:SER:96>  (73) 
hbond:SER:96    NaN
hbond:SER:96     -1
Name: 71, dtype: object

>  <halogenbond:HIS:97>  (73) 
halogenbond:HIS:97    NaN
halogenbond:HIS:97     -1
Name: 71, dtype: object

>  <hydroph_interaction:LEU:98>  (73) 
hydroph_interaction:LEU:98    1.0
hydroph_interaction:LEU:98      1
Name: 71, dtype: object

>  <hbond:LEU:98>  (73) 
hbond:LEU:98    NaN
hbond:LEU:98     -1
Name: 71, dtype: object

>  <halogenbond:LEU:98>  (73) 
halogenbond:LEU:98    NaN
halogenbond:LEU:98     -1
Name: 71, dtype: object

>  <hbond:MET:99>  (73) 
hbond:MET:99    NaN
hbond:MET:99     -1
Name: 71, dtype: object

>  <hydroph_interaction:MET:99>  (73) 
hydroph_interaction:MET:99    NaN
hydroph_interaction:MET:99     -1
Name: 71, dtype: object

>  <halogenbond:MET:99>  (73) 
halogenbond:MET:99    NaN
halogenbond:MET:99     -1
Name: 71, dtype: object

>  <hydroph_interaction:LEU:100>  (73) 
hydroph_interaction:LEU:100    1.0
hydroph_interaction:LEU:100      1
Name: 71, dtype: object

>  <hbond:LEU:100>  (73) 
hbond:LEU:100    NaN
hbond:LEU:100     -1
Name: 71, dtype: object

>  <hbond:ALA:101>  (73) 
hbond:ALA:101    NaN
hbond:ALA:101     -1
Name: 71, dtype: object

>  <hydroph_interaction:ALA:101>  (73) 
hydroph_interaction:ALA:101    NaN
hydroph_interaction:ALA:101     -1
Name: 71, dtype: object

>  <hydroph_interaction:VAL:102>  (73) 
hydroph_interaction:VAL:102    NaN
hydroph_interaction:VAL:102     -1
Name: 71, dtype: object

>  <hbond:VAL:102>  (73) 
hbond:VAL:102    NaN
hbond:VAL:102     -1
Name: 71, dtype: object

>  <hbond:GLY:103>  (73) 
hbond:GLY:103    NaN
hbond:GLY:103     -1
Name: 71, dtype: object

>  <halogenbond:GLY:103>  (73) 
halogenbond:GLY:103    NaN
halogenbond:GLY:103     -1
Name: 71, dtype: object

>  <hbond:HIS:104>  (73) 
hbond:HIS:104    NaN
hbond:HIS:104     -1
Name: 71, dtype: object

>  <saltbridge:HIS:104>  (73) 
saltbridge:HIS:104    NaN
saltbridge:HIS:104     -1
Name: 71, dtype: object

>  <pication:HIS:104>  (73) 
pication:HIS:104    NaN
pication:HIS:104     -1
Name: 71, dtype: object

>  <halogenbond:HIS:104>  (73) 
halogenbond:HIS:104    NaN
halogenbond:HIS:104     -1
Name: 71, dtype: object

>  <hydroph_interaction:HIS:104>  (73) 
hydroph_interaction:HIS:104    NaN
hydroph_interaction:HIS:104     -1
Name: 71, dtype: object

>  <pistack:HIS:104>  (73) 
pistack:HIS:104    NaN
pistack:HIS:104     -1
Name: 71, dtype: object

>  <halogenbond:SER:105>  (73) 
halogenbond:SER:105    0.0
halogenbond:SER:105      0
Name: 71, dtype: object

>  <hbond:SER:105>  (73) 
hbond:SER:105    0.0
hbond:SER:105      0
Name: 71, dtype: object

>  <hbond:GLU:106>  (73) 
hbond:GLU:106    0.0
hbond:GLU:106      0
Name: 71, dtype: object

>  <hydroph_interaction:GLU:106>  (73) 
hydroph_interaction:GLU:106    0.0
hydroph_interaction:GLU:106      0
Name: 71, dtype: object

>  <saltbridge:GLU:106>  (73) 
saltbridge:GLU:106    NaN
saltbridge:GLU:106     -1
Name: 71, dtype: object

>  <halogenbond:GLU:106>  (73) 
halogenbond:GLU:106    NaN
halogenbond:GLU:106     -1
Name: 71, dtype: object

>  <hydroph_interaction:PRO:107>  (73) 
hydroph_interaction:PRO:107    0
hydroph_interaction:PRO:107    0
Name: 71, dtype: object

>  <hbond:PRO:107>  (73) 
hbond:PRO:107    0.0
hbond:PRO:107      0
Name: 71, dtype: object

>  <halogenbond:PRO:107>  (73) 
halogenbond:PRO:107    NaN
halogenbond:PRO:107     -1
Name: 71, dtype: object

>  <hbond:GLY:108>  (73) 
hbond:GLY:108    NaN
hbond:GLY:108     -1
Name: 71, dtype: object

>  <halogenbond:GLY:108>  (73) 
halogenbond:GLY:108    NaN
halogenbond:GLY:108     -1
Name: 71, dtype: object

>  <hbond:ASP:109>  (73) 
hbond:ASP:109    0.0
hbond:ASP:109      0
Name: 71, dtype: object

>  <hydroph_interaction:ASP:109>  (73) 
hydroph_interaction:ASP:109    0.0
hydroph_interaction:ASP:109      0
Name: 71, dtype: object

>  <saltbridge:ASP:109>  (73) 
saltbridge:ASP:109    0.0
saltbridge:ASP:109      0
Name: 71, dtype: object

>  <halogenbond:CYS:110>  (73) 
halogenbond:CYS:110    NaN
halogenbond:CYS:110     -1
Name: 71, dtype: object

>  <hbond:CYS:110>  (73) 
hbond:CYS:110    0.0
hbond:CYS:110      0
Name: 71, dtype: object

>  <hbond:GLY:111>  (73) 
hbond:GLY:111    NaN
hbond:GLY:111     -1
Name: 71, dtype: object

>  <hbond:GLY:112>  (73) 
hbond:GLY:112    NaN
hbond:GLY:112     -1
Name: 71, dtype: object

>  <hbond:ILE:113>  (73) 
hbond:ILE:113    NaN
hbond:ILE:113     -1
Name: 71, dtype: object

>  <hydroph_interaction:LEU:114>  (73) 
hydroph_interaction:LEU:114    NaN
hydroph_interaction:LEU:114     -1
Name: 71, dtype: object

>  <hbond:LEU:114>  (73) 
hbond:LEU:114    NaN
hbond:LEU:114     -1
Name: 71, dtype: object

>  <hydroph_interaction:ILE:123>  (73) 
hydroph_interaction:ILE:123    NaN
hydroph_interaction:ILE:123     -1
Name: 71, dtype: object

>  <hbond:ILE:123>  (73) 
hbond:ILE:123    NaN
hbond:ILE:123     -1
Name: 71, dtype: object

>  <hydroph_interaction:VAL:124>  (73) 
hydroph_interaction:VAL:124    0.0
hydroph_interaction:VAL:124      0
Name: 71, dtype: object

>  <hbond:VAL:124>  (73) 
hbond:VAL:124    0.0
hbond:VAL:124      0
Name: 71, dtype: object

>  <halogenbond:VAL:124>  (73) 
halogenbond:VAL:124    NaN
halogenbond:VAL:124     -1
Name: 71, dtype: object

>  <hbond:SER:125>  (73) 
hbond:SER:125    0
hbond:SER:125    0
Name: 71, dtype: object

>  <halogenbond:SER:125>  (73) 
halogenbond:SER:125    NaN
halogenbond:SER:125     -1
Name: 71, dtype: object

>  <hydroph_interaction:THR:126>  (73) 
hydroph_interaction:THR:126    0.0
hydroph_interaction:THR:126      0
Name: 71, dtype: object

>  <hbond:THR:126>  (73) 
hbond:THR:126    0.0
hbond:THR:126      0
Name: 71, dtype: object

>  <halogenbond:THR:126>  (73) 
halogenbond:THR:126    NaN
halogenbond:THR:126     -1
Name: 71, dtype: object

>  <hbond:GLY:127>  (73) 
hbond:GLY:127    0
hbond:GLY:127    0
Name: 71, dtype: object

>  <halogenbond:GLY:127>  (73) 
halogenbond:GLY:127    0.0
halogenbond:GLY:127      0
Name: 71, dtype: object

>  <hydroph_interaction:GLY:127>  (73) 
hydroph_interaction:GLY:127    NaN
hydroph_interaction:GLY:127     -1
Name: 71, dtype: object

>  <hbond:GLY:128>  (73) 
hbond:GLY:128    0.0
hbond:GLY:128      0
Name: 71, dtype: object

>  <halogenbond:GLY:128>  (73) 
halogenbond:GLY:128    NaN
halogenbond:GLY:128     -1
Name: 71, dtype: object

>  <hydroph_interaction:GLY:128>  (73) 
hydroph_interaction:GLY:128    NaN
hydroph_interaction:GLY:128     -1
Name: 71, dtype: object

>  <hbond:ASN:129>  (73) 
hbond:ASN:129    0.0
hbond:ASN:129      0
Name: 71, dtype: object

>  <hydroph_interaction:ASN:129>  (73) 
hydroph_interaction:ASN:129    0.0
hydroph_interaction:ASN:129      0
Name: 71, dtype: object

>  <halogenbond:ASN:129>  (73) 
halogenbond:ASN:129    0.0
halogenbond:ASN:129      0
Name: 71, dtype: object

>  <hbond:GLY:130>  (73) 
hbond:GLY:130    NaN
hbond:GLY:130     -1
Name: 71, dtype: object

>  <hbond:LEU:131>  (73) 
hbond:LEU:131    0.0
hbond:LEU:131      0
Name: 71, dtype: object

>  <hydroph_interaction:LEU:131>  (73) 
hydroph_interaction:LEU:131    1.0
hydroph_interaction:LEU:131      1
Name: 71, dtype: object

>  <halogenbond:LEU:131>  (73) 
halogenbond:LEU:131    NaN
halogenbond:LEU:131     -1
Name: 71, dtype: object

>  <hydroph_interaction:VAL:132>  (73) 
hydroph_interaction:VAL:132    0.0
hydroph_interaction:VAL:132      0
Name: 71, dtype: object

>  <hbond:VAL:132>  (73) 
hbond:VAL:132    0.0
hbond:VAL:132      0
Name: 71, dtype: object

>  <hbond:GLY:133>  (73) 
hbond:GLY:133    0.0
hbond:GLY:133      0
Name: 71, dtype: object

>  <halogenbond:GLY:133>  (73) 
halogenbond:GLY:133    NaN
halogenbond:GLY:133     -1
Name: 71, dtype: object

>  <hydroph_interaction:PHE:134>  (73) 
hydroph_interaction:PHE:134    0.0
hydroph_interaction:PHE:134      0
Name: 71, dtype: object

>  <hbond:PHE:134>  (73) 
hbond:PHE:134    NaN
hbond:PHE:134     -1
Name: 71, dtype: object

>  <pistack:PHE:134>  (73) 
pistack:PHE:134    NaN
pistack:PHE:134     -1
Name: 71, dtype: object

>  <pication:PHE:134>  (73) 
pication:PHE:134    NaN
pication:PHE:134     -1
Name: 71, dtype: object

>  <halogenbond:PHE:134>  (73) 
halogenbond:PHE:134    NaN
halogenbond:PHE:134     -1
Name: 71, dtype: object

>  <hydroph_interaction:ALA:135>  (73) 
hydroph_interaction:ALA:135    NaN
hydroph_interaction:ALA:135     -1
Name: 71, dtype: object

>  <hbond:ALA:135>  (73) 
hbond:ALA:135    NaN
hbond:ALA:135     -1
Name: 71, dtype: object

$$$$
PV_002731322070
     RDKit          3D

 13 13  0  0  0  0  0  0  0  0999 V2000
   28.5095   15.2976    8.6091 C   0  0  0  0  0  0  0  0  0  0  0  0
   29.8793   14.8202    9.0327 C   0  0  0  0  0  0  0  0  0  0  0  0
   30.6464   15.5685    9.6237 O   0  0  0  0  0  0  0  0  0  0  0  0
   30.1365   13.5159    8.6612 N   0  0  0  0  0  0  0  0  0  0  0  0
   30.4877   13.1290    7.3516 C   0  0  2  0  0  0  0  0  0  0  0  0
   29.5779   13.3375    6.3101 C   0  0  0  0  0  0  0  0  0  0  0  0
   31.0377   11.7243    7.3012 C   0  0  0  0  0  0  0  0  0  0  0  0
   30.4387   10.7200    8.0153 C   0  0  0  0  0  0  0  0  0  0  0  0
   30.9507    9.3419    7.9374 C   0  0  0  0  0  0  0  0  0  0  0  0
   32.1324    9.0916    7.0657 C   0  0  0  0  0  0  0  0  0  0  0  0
   32.6857   10.1623    6.3958 C   0  0  0  0  0  0  0  0  0  0  0  0
   32.1737   11.4588    6.4989 C   0  0  0  0  0  0  0  0  0  0  0  0
   32.8641   12.5512    5.7365 C   0  0  0  0  0  0  0  0  0  0  0  0
  1  2  1  0
  2  3  2  0
  2  4  1  0
  4  5  1  0
  5  6  1  6
  5  7  1  0
  7  8  2  0
  8  9  1  0
  9 10  2  0
 10 11  1  0
 11 12  2  0
 12 13  1  0
 12  7  1  0
A    1
 C1 
A    2
 C2 
A    3
 O1 
A    4
 N1 
A    5
 C3 
A    6
 C4 
A    7
 C5 
A    8
 C6 
A    9
 C7 
A   10
 C8 
A   11
 C9 
A   12
 C10
A   13
 C11
M  END
>  <ref_pdb>  (74) 
Ax0310a

>  <ref_mols>  (74) 
Ax0732a,Ax0528a

>  <original SMILES>  (74) 
CC(=O)NC(C)c1ccccc1C

>  <rationale>  (74) 
info halogenbond:G127+D39+A86+S125+E85+Q95+E106+E88+T126+P107+H104+Y64+C65+S87+N129+F83+R93+L131+I82+G128+P91+N19+H21+V84+G133+Y90+Y89+H97+L81+F134+L98+R20+G103+S66+S67+S7+G108+R38+V124+M99+S36; hbond:S87+S125+Y90+Q95+D39+C110+D109+G108+G103+G128+G130+L131+N129+N19+H104+R68+V124+R93+P91+F83+S67+S7+S66+G112+G133+V132+R20+Y89+S77+A135+Y63+A92+A101+M99+F134+L100+I82+Y64+S36+L98+V84+L81+Y94+S80+R38+S37+V102+G8+I123+G111+I113+L114+C65+L22+S96; hydroph_interaction:Y90+Y89+T126+H21+P107+L22+E106+E88+N129+D39+N19+L40+I123+A135+Q95+I82+L100+L98+L131+F83+R93+V132+Y63+F134+H104+R20+A86+V74+P91+A101+F76+M99+L114+A92+Y94+R68+Y72+Y64+V18+V102+W28+G127+G128+L81; pication:H21+H104+R93+Y63+F134+Y90+R68+F83+R20; pistack:H21+Y89+Y90+H104+F134+Y63+F83+Y94; saltbridge:R93+H104+E106+D109+E85+E88+R68+R20; 

>  <intxn_cluster>  (74) 
-1

>  <intxn_cluster_rank>  (74) 
-1

>  <N_interactions>  (74) 
6

>  <∆∆G>  (74) 
-9.557995

>  <$/mg>  (74) 
163.0

>  <comRMSD>  (74) 
0.879718

>  <N_rotatable_bonds>  (74) 
5

>  <deep_P1_sidechain>  (74) 
nan

>  <farthest_distance_to_substrate>  (74) 
2.261698

>  <hbond:SER:7>  (74) 
hbond:SER:7    NaN
hbond:SER:7     -1
Name: 72, dtype: object

>  <halogenbond:SER:7>  (74) 
halogenbond:SER:7    NaN
halogenbond:SER:7     -1
Name: 72, dtype: object

>  <hbond:GLY:8>  (74) 
hbond:GLY:8    NaN
hbond:GLY:8     -1
Name: 72, dtype: object

>  <hydroph_interaction:VAL:18>  (74) 
hydroph_interaction:VAL:18    NaN
hydroph_interaction:VAL:18     -1
Name: 72, dtype: object

>  <hbond:ASN:19>  (74) 
hbond:ASN:19    NaN
hbond:ASN:19     -1
Name: 72, dtype: object

>  <hydroph_interaction:ASN:19>  (74) 
hydroph_interaction:ASN:19    NaN
hydroph_interaction:ASN:19     -1
Name: 72, dtype: object

>  <halogenbond:ASN:19>  (74) 
halogenbond:ASN:19    NaN
halogenbond:ASN:19     -1
Name: 72, dtype: object

>  <hbond:ARG:20>  (74) 
hbond:ARG:20    NaN
hbond:ARG:20     -1
Name: 72, dtype: object

>  <hydroph_interaction:ARG:20>  (74) 
hydroph_interaction:ARG:20    NaN
hydroph_interaction:ARG:20     -1
Name: 72, dtype: object

>  <saltbridge:ARG:20>  (74) 
saltbridge:ARG:20    NaN
saltbridge:ARG:20     -1
Name: 72, dtype: object

>  <halogenbond:ARG:20>  (74) 
halogenbond:ARG:20    NaN
halogenbond:ARG:20     -1
Name: 72, dtype: object

>  <pication:ARG:20>  (74) 
pication:ARG:20    NaN
pication:ARG:20     -1
Name: 72, dtype: object

>  <hbond:HIS:21>  (74) 
hbond:HIS:21    0.0
hbond:HIS:21      0
Name: 72, dtype: object

>  <hydroph_interaction:HIS:21>  (74) 
hydroph_interaction:HIS:21    NaN
hydroph_interaction:HIS:21     -1
Name: 72, dtype: object

>  <pistack:HIS:21>  (74) 
pistack:HIS:21    NaN
pistack:HIS:21     -1
Name: 72, dtype: object

>  <pication:HIS:21>  (74) 
pication:HIS:21    NaN
pication:HIS:21     -1
Name: 72, dtype: object

>  <saltbridge:HIS:21>  (74) 
saltbridge:HIS:21    0.0
saltbridge:HIS:21      0
Name: 72, dtype: object

>  <halogenbond:HIS:21>  (74) 
halogenbond:HIS:21    NaN
halogenbond:HIS:21     -1
Name: 72, dtype: object

>  <hydroph_interaction:LEU:22>  (74) 
hydroph_interaction:LEU:22    NaN
hydroph_interaction:LEU:22     -1
Name: 72, dtype: object

>  <hbond:LEU:22>  (74) 
hbond:LEU:22    NaN
hbond:LEU:22     -1
Name: 72, dtype: object

>  <hydroph_interaction:TRP:28>  (74) 
hydroph_interaction:TRP:28    NaN
hydroph_interaction:TRP:28     -1
Name: 72, dtype: object

>  <hbond:SER:36>  (74) 
hbond:SER:36    NaN
hbond:SER:36     -1
Name: 72, dtype: object

>  <halogenbond:SER:36>  (74) 
halogenbond:SER:36    NaN
halogenbond:SER:36     -1
Name: 72, dtype: object

>  <hbond:SER:37>  (74) 
hbond:SER:37    NaN
hbond:SER:37     -1
Name: 72, dtype: object

>  <hbond:ARG:38>  (74) 
hbond:ARG:38    NaN
hbond:ARG:38     -1
Name: 72, dtype: object

>  <halogenbond:ARG:38>  (74) 
halogenbond:ARG:38    NaN
halogenbond:ARG:38     -1
Name: 72, dtype: object

>  <saltbridge:ASP:39>  (74) 
saltbridge:ASP:39    0.0
saltbridge:ASP:39      0
Name: 72, dtype: object

>  <halogenbond:ASP:39>  (74) 
halogenbond:ASP:39    NaN
halogenbond:ASP:39     -1
Name: 72, dtype: object

>  <hbond:ASP:39>  (74) 
hbond:ASP:39    NaN
hbond:ASP:39     -1
Name: 72, dtype: object

>  <hydroph_interaction:ASP:39>  (74) 
hydroph_interaction:ASP:39    NaN
hydroph_interaction:ASP:39     -1
Name: 72, dtype: object

>  <hydroph_interaction:LEU:40>  (74) 
hydroph_interaction:LEU:40    NaN
hydroph_interaction:LEU:40     -1
Name: 72, dtype: object

>  <hydroph_interaction:TYR:63>  (74) 
hydroph_interaction:TYR:63    NaN
hydroph_interaction:TYR:63     -1
Name: 72, dtype: object

>  <hbond:TYR:63>  (74) 
hbond:TYR:63    NaN
hbond:TYR:63     -1
Name: 72, dtype: object

>  <pistack:TYR:63>  (74) 
pistack:TYR:63    NaN
pistack:TYR:63     -1
Name: 72, dtype: object

>  <pication:TYR:63>  (74) 
pication:TYR:63    NaN
pication:TYR:63     -1
Name: 72, dtype: object

>  <halogenbond:TYR:64>  (74) 
halogenbond:TYR:64    NaN
halogenbond:TYR:64     -1
Name: 72, dtype: object

>  <hbond:TYR:64>  (74) 
hbond:TYR:64    NaN
hbond:TYR:64     -1
Name: 72, dtype: object

>  <hydroph_interaction:TYR:64>  (74) 
hydroph_interaction:TYR:64    NaN
hydroph_interaction:TYR:64     -1
Name: 72, dtype: object

>  <halogenbond:CYS:65>  (74) 
halogenbond:CYS:65    NaN
halogenbond:CYS:65     -1
Name: 72, dtype: object

>  <hbond:CYS:65>  (74) 
hbond:CYS:65    NaN
hbond:CYS:65     -1
Name: 72, dtype: object

>  <hbond:SER:66>  (74) 
hbond:SER:66    NaN
hbond:SER:66     -1
Name: 72, dtype: object

>  <halogenbond:SER:66>  (74) 
halogenbond:SER:66    NaN
halogenbond:SER:66     -1
Name: 72, dtype: object

>  <hbond:SER:67>  (74) 
hbond:SER:67    NaN
hbond:SER:67     -1
Name: 72, dtype: object

>  <halogenbond:SER:67>  (74) 
halogenbond:SER:67    NaN
halogenbond:SER:67     -1
Name: 72, dtype: object

>  <hbond:ARG:68>  (74) 
hbond:ARG:68    NaN
hbond:ARG:68     -1
Name: 72, dtype: object

>  <saltbridge:ARG:68>  (74) 
saltbridge:ARG:68    NaN
saltbridge:ARG:68     -1
Name: 72, dtype: object

>  <hydroph_interaction:ARG:68>  (74) 
hydroph_interaction:ARG:68    NaN
hydroph_interaction:ARG:68     -1
Name: 72, dtype: object

>  <pication:ARG:68>  (74) 
pication:ARG:68    NaN
pication:ARG:68     -1
Name: 72, dtype: object

>  <hydroph_interaction:TYR:72>  (74) 
hydroph_interaction:TYR:72    NaN
hydroph_interaction:TYR:72     -1
Name: 72, dtype: object

>  <hydroph_interaction:VAL:74>  (74) 
hydroph_interaction:VAL:74    NaN
hydroph_interaction:VAL:74     -1
Name: 72, dtype: object

>  <hydroph_interaction:PHE:76>  (74) 
hydroph_interaction:PHE:76    NaN
hydroph_interaction:PHE:76     -1
Name: 72, dtype: object

>  <hbond:SER:77>  (74) 
hbond:SER:77    NaN
hbond:SER:77     -1
Name: 72, dtype: object

>  <hbond:SER:80>  (74) 
hbond:SER:80    NaN
hbond:SER:80     -1
Name: 72, dtype: object

>  <hbond:LEU:81>  (74) 
hbond:LEU:81    NaN
hbond:LEU:81     -1
Name: 72, dtype: object

>  <halogenbond:LEU:81>  (74) 
halogenbond:LEU:81    NaN
halogenbond:LEU:81     -1
Name: 72, dtype: object

>  <hydroph_interaction:LEU:81>  (74) 
hydroph_interaction:LEU:81    NaN
hydroph_interaction:LEU:81     -1
Name: 72, dtype: object

>  <hydroph_interaction:ILE:82>  (74) 
hydroph_interaction:ILE:82    NaN
hydroph_interaction:ILE:82     -1
Name: 72, dtype: object

>  <halogenbond:ILE:82>  (74) 
halogenbond:ILE:82    NaN
halogenbond:ILE:82     -1
Name: 72, dtype: object

>  <hbond:ILE:82>  (74) 
hbond:ILE:82    NaN
hbond:ILE:82     -1
Name: 72, dtype: object

>  <hbond:PHE:83>  (74) 
hbond:PHE:83    NaN
hbond:PHE:83     -1
Name: 72, dtype: object

>  <hydroph_interaction:PHE:83>  (74) 
hydroph_interaction:PHE:83    NaN
hydroph_interaction:PHE:83     -1
Name: 72, dtype: object

>  <halogenbond:PHE:83>  (74) 
halogenbond:PHE:83    NaN
halogenbond:PHE:83     -1
Name: 72, dtype: object

>  <pistack:PHE:83>  (74) 
pistack:PHE:83    NaN
pistack:PHE:83     -1
Name: 72, dtype: object

>  <pication:PHE:83>  (74) 
pication:PHE:83    NaN
pication:PHE:83     -1
Name: 72, dtype: object

>  <hydroph_interaction:VAL:84>  (74) 
hydroph_interaction:VAL:84    0.0
hydroph_interaction:VAL:84      0
Name: 72, dtype: object

>  <halogenbond:VAL:84>  (74) 
halogenbond:VAL:84    NaN
halogenbond:VAL:84     -1
Name: 72, dtype: object

>  <hbond:VAL:84>  (74) 
hbond:VAL:84    NaN
hbond:VAL:84     -1
Name: 72, dtype: object

>  <hydroph_interaction:GLU:85>  (74) 
hydroph_interaction:GLU:85    0.0
hydroph_interaction:GLU:85      0
Name: 72, dtype: object

>  <hbond:GLU:85>  (74) 
hbond:GLU:85    0.0
hbond:GLU:85      0
Name: 72, dtype: object

>  <halogenbond:GLU:85>  (74) 
halogenbond:GLU:85    NaN
halogenbond:GLU:85     -1
Name: 72, dtype: object

>  <saltbridge:GLU:85>  (74) 
saltbridge:GLU:85    NaN
saltbridge:GLU:85     -1
Name: 72, dtype: object

>  <halogenbond:ALA:86>  (74) 
halogenbond:ALA:86    NaN
halogenbond:ALA:86     -1
Name: 72, dtype: object

>  <hbond:ALA:86>  (74) 
hbond:ALA:86    0.0
hbond:ALA:86      0
Name: 72, dtype: object

>  <hydroph_interaction:ALA:86>  (74) 
hydroph_interaction:ALA:86    NaN
hydroph_interaction:ALA:86     -1
Name: 72, dtype: object

>  <hbond:SER:87>  (74) 
hbond:SER:87    1
hbond:SER:87    1
Name: 72, dtype: object

>  <halogenbond:SER:87>  (74) 
halogenbond:SER:87    NaN
halogenbond:SER:87     -1
Name: 72, dtype: object

>  <hbond:GLU:88>  (74) 
hbond:GLU:88    0.0
hbond:GLU:88      0
Name: 72, dtype: object

>  <hydroph_interaction:GLU:88>  (74) 
hydroph_interaction:GLU:88    NaN
hydroph_interaction:GLU:88     -1
Name: 72, dtype: object

>  <halogenbond:GLU:88>  (74) 
halogenbond:GLU:88    NaN
halogenbond:GLU:88     -1
Name: 72, dtype: object

>  <saltbridge:GLU:88>  (74) 
saltbridge:GLU:88    NaN
saltbridge:GLU:88     -1
Name: 72, dtype: object

>  <hydroph_interaction:TYR:89>  (74) 
hydroph_interaction:TYR:89    1.0
hydroph_interaction:TYR:89      1
Name: 72, dtype: object

>  <pistack:TYR:89>  (74) 
pistack:TYR:89    NaN
pistack:TYR:89     -1
Name: 72, dtype: object

>  <hbond:TYR:89>  (74) 
hbond:TYR:89    NaN
hbond:TYR:89     -1
Name: 72, dtype: object

>  <halogenbond:TYR:89>  (74) 
halogenbond:TYR:89    NaN
halogenbond:TYR:89     -1
Name: 72, dtype: object

>  <hydroph_interaction:TYR:90>  (74) 
hydroph_interaction:TYR:90    1.0
hydroph_interaction:TYR:90      1
Name: 72, dtype: object

>  <hbond:TYR:90>  (74) 
hbond:TYR:90    NaN
hbond:TYR:90     -1
Name: 72, dtype: object

>  <pistack:TYR:90>  (74) 
pistack:TYR:90    NaN
pistack:TYR:90     -1
Name: 72, dtype: object

>  <halogenbond:TYR:90>  (74) 
halogenbond:TYR:90    NaN
halogenbond:TYR:90     -1
Name: 72, dtype: object

>  <pication:TYR:90>  (74) 
pication:TYR:90    NaN
pication:TYR:90     -1
Name: 72, dtype: object

>  <hbond:PRO:91>  (74) 
hbond:PRO:91    NaN
hbond:PRO:91     -1
Name: 72, dtype: object

>  <hydroph_interaction:PRO:91>  (74) 
hydroph_interaction:PRO:91    NaN
hydroph_interaction:PRO:91     -1
Name: 72, dtype: object

>  <halogenbond:PRO:91>  (74) 
halogenbond:PRO:91    NaN
halogenbond:PRO:91     -1
Name: 72, dtype: object

>  <hbond:ALA:92>  (74) 
hbond:ALA:92    NaN
hbond:ALA:92     -1
Name: 72, dtype: object

>  <hydroph_interaction:ALA:92>  (74) 
hydroph_interaction:ALA:92    NaN
hydroph_interaction:ALA:92     -1
Name: 72, dtype: object

>  <saltbridge:ARG:93>  (74) 
saltbridge:ARG:93    NaN
saltbridge:ARG:93     -1
Name: 72, dtype: object

>  <hbond:ARG:93>  (74) 
hbond:ARG:93    NaN
hbond:ARG:93     -1
Name: 72, dtype: object

>  <hydroph_interaction:ARG:93>  (74) 
hydroph_interaction:ARG:93    NaN
hydroph_interaction:ARG:93     -1
Name: 72, dtype: object

>  <halogenbond:ARG:93>  (74) 
halogenbond:ARG:93    NaN
halogenbond:ARG:93     -1
Name: 72, dtype: object

>  <pication:ARG:93>  (74) 
pication:ARG:93    NaN
pication:ARG:93     -1
Name: 72, dtype: object

>  <hydroph_interaction:TYR:94>  (74) 
hydroph_interaction:TYR:94    NaN
hydroph_interaction:TYR:94     -1
Name: 72, dtype: object

>  <pistack:TYR:94>  (74) 
pistack:TYR:94    NaN
pistack:TYR:94     -1
Name: 72, dtype: object

>  <hbond:TYR:94>  (74) 
hbond:TYR:94    NaN
hbond:TYR:94     -1
Name: 72, dtype: object

>  <hbond:GLN:95>  (74) 
hbond:GLN:95    NaN
hbond:GLN:95     -1
Name: 72, dtype: object

>  <hydroph_interaction:GLN:95>  (74) 
hydroph_interaction:GLN:95    NaN
hydroph_interaction:GLN:95     -1
Name: 72, dtype: object

>  <halogenbond:GLN:95>  (74) 
halogenbond:GLN:95    NaN
halogenbond:GLN:95     -1
Name: 72, dtype: object

>  <hbond:SER:96>  (74) 
hbond:SER:96    NaN
hbond:SER:96     -1
Name: 72, dtype: object

>  <halogenbond:HIS:97>  (74) 
halogenbond:HIS:97    NaN
halogenbond:HIS:97     -1
Name: 72, dtype: object

>  <hydroph_interaction:LEU:98>  (74) 
hydroph_interaction:LEU:98    NaN
hydroph_interaction:LEU:98     -1
Name: 72, dtype: object

>  <hbond:LEU:98>  (74) 
hbond:LEU:98    NaN
hbond:LEU:98     -1
Name: 72, dtype: object

>  <halogenbond:LEU:98>  (74) 
halogenbond:LEU:98    NaN
halogenbond:LEU:98     -1
Name: 72, dtype: object

>  <hbond:MET:99>  (74) 
hbond:MET:99    NaN
hbond:MET:99     -1
Name: 72, dtype: object

>  <hydroph_interaction:MET:99>  (74) 
hydroph_interaction:MET:99    NaN
hydroph_interaction:MET:99     -1
Name: 72, dtype: object

>  <halogenbond:MET:99>  (74) 
halogenbond:MET:99    NaN
halogenbond:MET:99     -1
Name: 72, dtype: object

>  <hydroph_interaction:LEU:100>  (74) 
hydroph_interaction:LEU:100    NaN
hydroph_interaction:LEU:100     -1
Name: 72, dtype: object

>  <hbond:LEU:100>  (74) 
hbond:LEU:100    NaN
hbond:LEU:100     -1
Name: 72, dtype: object

>  <hbond:ALA:101>  (74) 
hbond:ALA:101    NaN
hbond:ALA:101     -1
Name: 72, dtype: object

>  <hydroph_interaction:ALA:101>  (74) 
hydroph_interaction:ALA:101    NaN
hydroph_interaction:ALA:101     -1
Name: 72, dtype: object

>  <hydroph_interaction:VAL:102>  (74) 
hydroph_interaction:VAL:102    NaN
hydroph_interaction:VAL:102     -1
Name: 72, dtype: object

>  <hbond:VAL:102>  (74) 
hbond:VAL:102    NaN
hbond:VAL:102     -1
Name: 72, dtype: object

>  <hbond:GLY:103>  (74) 
hbond:GLY:103    NaN
hbond:GLY:103     -1
Name: 72, dtype: object

>  <halogenbond:GLY:103>  (74) 
halogenbond:GLY:103    NaN
halogenbond:GLY:103     -1
Name: 72, dtype: object

>  <hbond:HIS:104>  (74) 
hbond:HIS:104    NaN
hbond:HIS:104     -1
Name: 72, dtype: object

>  <saltbridge:HIS:104>  (74) 
saltbridge:HIS:104    NaN
saltbridge:HIS:104     -1
Name: 72, dtype: object

>  <pication:HIS:104>  (74) 
pication:HIS:104    NaN
pication:HIS:104     -1
Name: 72, dtype: object

>  <halogenbond:HIS:104>  (74) 
halogenbond:HIS:104    NaN
halogenbond:HIS:104     -1
Name: 72, dtype: object

>  <hydroph_interaction:HIS:104>  (74) 
hydroph_interaction:HIS:104    NaN
hydroph_interaction:HIS:104     -1
Name: 72, dtype: object

>  <pistack:HIS:104>  (74) 
pistack:HIS:104    NaN
pistack:HIS:104     -1
Name: 72, dtype: object

>  <halogenbond:SER:105>  (74) 
halogenbond:SER:105    0.0
halogenbond:SER:105      0
Name: 72, dtype: object

>  <hbond:SER:105>  (74) 
hbond:SER:105    0.0
hbond:SER:105      0
Name: 72, dtype: object

>  <hbond:GLU:106>  (74) 
hbond:GLU:106    0.0
hbond:GLU:106      0
Name: 72, dtype: object

>  <hydroph_interaction:GLU:106>  (74) 
hydroph_interaction:GLU:106    NaN
hydroph_interaction:GLU:106     -1
Name: 72, dtype: object

>  <saltbridge:GLU:106>  (74) 
saltbridge:GLU:106    NaN
saltbridge:GLU:106     -1
Name: 72, dtype: object

>  <halogenbond:GLU:106>  (74) 
halogenbond:GLU:106    NaN
halogenbond:GLU:106     -1
Name: 72, dtype: object

>  <hydroph_interaction:PRO:107>  (74) 
hydroph_interaction:PRO:107    2
hydroph_interaction:PRO:107    2
Name: 72, dtype: object

>  <hbond:PRO:107>  (74) 
hbond:PRO:107    0.0
hbond:PRO:107      0
Name: 72, dtype: object

>  <halogenbond:PRO:107>  (74) 
halogenbond:PRO:107    NaN
halogenbond:PRO:107     -1
Name: 72, dtype: object

>  <hbond:GLY:108>  (74) 
hbond:GLY:108    NaN
hbond:GLY:108     -1
Name: 72, dtype: object

>  <halogenbond:GLY:108>  (74) 
halogenbond:GLY:108    NaN
halogenbond:GLY:108     -1
Name: 72, dtype: object

>  <hbond:ASP:109>  (74) 
hbond:ASP:109    NaN
hbond:ASP:109     -1
Name: 72, dtype: object

>  <hydroph_interaction:ASP:109>  (74) 
hydroph_interaction:ASP:109    0.0
hydroph_interaction:ASP:109      0
Name: 72, dtype: object

>  <saltbridge:ASP:109>  (74) 
saltbridge:ASP:109    NaN
saltbridge:ASP:109     -1
Name: 72, dtype: object

>  <halogenbond:CYS:110>  (74) 
halogenbond:CYS:110    0.0
halogenbond:CYS:110      0
Name: 72, dtype: object

>  <hbond:CYS:110>  (74) 
hbond:CYS:110    NaN
hbond:CYS:110     -1
Name: 72, dtype: object

>  <hbond:GLY:111>  (74) 
hbond:GLY:111    NaN
hbond:GLY:111     -1
Name: 72, dtype: object

>  <hbond:GLY:112>  (74) 
hbond:GLY:112    NaN
hbond:GLY:112     -1
Name: 72, dtype: object

>  <hbond:ILE:113>  (74) 
hbond:ILE:113    NaN
hbond:ILE:113     -1
Name: 72, dtype: object

>  <hydroph_interaction:LEU:114>  (74) 
hydroph_interaction:LEU:114    NaN
hydroph_interaction:LEU:114     -1
Name: 72, dtype: object

>  <hbond:LEU:114>  (74) 
hbond:LEU:114    NaN
hbond:LEU:114     -1
Name: 72, dtype: object

>  <hydroph_interaction:ILE:123>  (74) 
hydroph_interaction:ILE:123    NaN
hydroph_interaction:ILE:123     -1
Name: 72, dtype: object

>  <hbond:ILE:123>  (74) 
hbond:ILE:123    NaN
hbond:ILE:123     -1
Name: 72, dtype: object

>  <hydroph_interaction:VAL:124>  (74) 
hydroph_interaction:VAL:124    0.0
hydroph_interaction:VAL:124      0
Name: 72, dtype: object

>  <hbond:VAL:124>  (74) 
hbond:VAL:124    NaN
hbond:VAL:124     -1
Name: 72, dtype: object

>  <halogenbond:VAL:124>  (74) 
halogenbond:VAL:124    NaN
halogenbond:VAL:124     -1
Name: 72, dtype: object

>  <hbond:SER:125>  (74) 
hbond:SER:125    1
hbond:SER:125    1
Name: 72, dtype: object

>  <halogenbond:SER:125>  (74) 
halogenbond:SER:125    NaN
halogenbond:SER:125     -1
Name: 72, dtype: object

>  <hydroph_interaction:THR:126>  (74) 
hydroph_interaction:THR:126    NaN
hydroph_interaction:THR:126     -1
Name: 72, dtype: object

>  <hbond:THR:126>  (74) 
hbond:THR:126    0.0
hbond:THR:126      0
Name: 72, dtype: object

>  <halogenbond:THR:126>  (74) 
halogenbond:THR:126    NaN
halogenbond:THR:126     -1
Name: 72, dtype: object

>  <hbond:GLY:127>  (74) 
hbond:GLY:127    0
hbond:GLY:127    0
Name: 72, dtype: object

>  <halogenbond:GLY:127>  (74) 
halogenbond:GLY:127    NaN
halogenbond:GLY:127     -1
Name: 72, dtype: object

>  <hydroph_interaction:GLY:127>  (74) 
hydroph_interaction:GLY:127    NaN
hydroph_interaction:GLY:127     -1
Name: 72, dtype: object

>  <hbond:GLY:128>  (74) 
hbond:GLY:128    NaN
hbond:GLY:128     -1
Name: 72, dtype: object

>  <halogenbond:GLY:128>  (74) 
halogenbond:GLY:128    NaN
halogenbond:GLY:128     -1
Name: 72, dtype: object

>  <hydroph_interaction:GLY:128>  (74) 
hydroph_interaction:GLY:128    NaN
hydroph_interaction:GLY:128     -1
Name: 72, dtype: object

>  <hbond:ASN:129>  (74) 
hbond:ASN:129    NaN
hbond:ASN:129     -1
Name: 72, dtype: object

>  <hydroph_interaction:ASN:129>  (74) 
hydroph_interaction:ASN:129    NaN
hydroph_interaction:ASN:129     -1
Name: 72, dtype: object

>  <halogenbond:ASN:129>  (74) 
halogenbond:ASN:129    NaN
halogenbond:ASN:129     -1
Name: 72, dtype: object

>  <hbond:GLY:130>  (74) 
hbond:GLY:130    NaN
hbond:GLY:130     -1
Name: 72, dtype: object

>  <hbond:LEU:131>  (74) 
hbond:LEU:131    NaN
hbond:LEU:131     -1
Name: 72, dtype: object

>  <hydroph_interaction:LEU:131>  (74) 
hydroph_interaction:LEU:131    NaN
hydroph_interaction:LEU:131     -1
Name: 72, dtype: object

>  <halogenbond:LEU:131>  (74) 
halogenbond:LEU:131    NaN
halogenbond:LEU:131     -1
Name: 72, dtype: object

>  <hydroph_interaction:VAL:132>  (74) 
hydroph_interaction:VAL:132    NaN
hydroph_interaction:VAL:132     -1
Name: 72, dtype: object

>  <hbond:VAL:132>  (74) 
hbond:VAL:132    NaN
hbond:VAL:132     -1
Name: 72, dtype: object

>  <hbond:GLY:133>  (74) 
hbond:GLY:133    NaN
hbond:GLY:133     -1
Name: 72, dtype: object

>  <halogenbond:GLY:133>  (74) 
halogenbond:GLY:133    NaN
halogenbond:GLY:133     -1
Name: 72, dtype: object

>  <hydroph_interaction:PHE:134>  (74) 
hydroph_interaction:PHE:134    NaN
hydroph_interaction:PHE:134     -1
Name: 72, dtype: object

>  <hbond:PHE:134>  (74) 
hbond:PHE:134    NaN
hbond:PHE:134     -1
Name: 72, dtype: object

>  <pistack:PHE:134>  (74) 
pistack:PHE:134    NaN
pistack:PHE:134     -1
Name: 72, dtype: object

>  <pication:PHE:134>  (74) 
pication:PHE:134    NaN
pication:PHE:134     -1
Name: 72, dtype: object

>  <halogenbond:PHE:134>  (74) 
halogenbond:PHE:134    NaN
halogenbond:PHE:134     -1
Name: 72, dtype: object

>  <hydroph_interaction:ALA:135>  (74) 
hydroph_interaction:ALA:135    NaN
hydroph_interaction:ALA:135     -1
Name: 72, dtype: object

>  <hbond:ALA:135>  (74) 
hbond:ALA:135    NaN
hbond:ALA:135     -1
Name: 72, dtype: object

$$$$
Z3712028302
     RDKit          3D

 16 16  0  0  0  0  0  0  0  0999 V2000
   28.2052   12.9631    6.9469 C   0  0  0  0  0  0  0  0  0  0  0  0
   27.7654   14.0122    7.9106 C   0  0  0  0  0  0  0  0  0  0  0  0
   28.6129   15.0579    8.1981 C   0  0  1  0  0  0  0  0  0  0  0  0
   27.9282   15.8949    9.2252 C   0  0  0  0  0  0  0  0  0  0  0  0
   29.9400   14.6000    8.7853 C   0  0  0  0  0  0  0  0  0  0  0  0
   30.6706   15.3134    9.4720 O   0  0  0  0  0  0  0  0  0  0  0  0
   30.2655   13.3078    8.4620 N   0  0  0  0  0  0  0  0  0  0  0  0
   31.0728   13.0319    7.2823 C   0  0  0  0  0  0  0  0  0  0  0  0
   31.4032   11.6949    7.1931 C   0  0  0  0  0  0  0  0  0  0  0  0
   30.6978   10.7251    8.1150 C   0  0  0  0  0  0  0  0  0  0  0  0
   31.1682    9.3232    7.9084 C   0  0  0  0  0  0  0  0  0  0  0  0
   30.5476    8.2835    8.7754 C   0  0  0  0  0  0  0  0  0  0  0  0
   32.1393    9.0546    6.9517 C   0  0  0  0  0  0  0  0  0  0  0  0
   32.7349    9.9569    6.1486 N   0  0  0  0  0  0  0  0  0  0  0  0
   32.3564   11.2376    6.2898 C   0  0  0  0  0  0  0  0  0  0  0  0
   32.9576   12.1296    5.4877 F   0  0  0  0  0  0  0  0  0  0  0  0
  1  2  1  0
  2  3  1  0
  3  4  1  1
  3  5  1  0
  5  6  2  0
  5  7  1  0
  7  8  1  0
  8  9  1  0
  9 10  2  0
 10 11  1  0
 11 12  1  0
 11 13  2  0
 13 14  1  0
 14 15  2  0
 15 16  1  0
 15  9  1  0
A    1
 C1 
A    2
 C2 
A    3
 C3 
A    4
 C4 
A    5
 C5 
A    6
 O1 
A    7
 N1 
A    8
 C6 
A    9
 C7 
A   10
 C8 
A   11
 C9 
A   12
 C10
A   13
 C11
A   14
 N2 
A   15
 C12
A   16
 F1 
M  END
>  <ref_pdb>  (75) 
Ax0310a

>  <ref_mols>  (75) 
Ax0416a,Ax0528a

>  <original SMILES>  (75) 
CCC(C)C(=O)NCc1cc(C)cnc1F

>  <rationale>  (75) 
info halogenbond:G127+D39+A86+E85+E106+E88+T126+P107+Y64+C65+N129+F83+R93+L131+I82+G128+P91+N19+H21+V84+G133+Y90+Y89+H97+L81+F134+L98+R20+G103+S66+S67+S7+G108+R38+V124+M99+S36; hbond:S87+S125+T126+A86+E85+G103+G128+G130+L131+N129+H104+R68+V124+R93+P91+F83+S7+S66+G112+G133+V132+R20+Y89+S77+A135+Y63+A92+A101+M99+F134+L100+I82+Y64+S36+L98+V84+L81+Y94+S80+R38+S37+V102+G8+I123+G111+I113+L114+C65+L22+S96; hydroph_interaction:V124+Y90+Y89+P107+L22+E106+E88+N129+N19+L40+I123+A135+I82+L100+L98+L131+F83+R93+V132+Y63+F134+H104+R20+A86+V74+P91+A101+F76+M99+L114+A92+Y94+R68+Y72+Y64+V18+V102+W28+G127+G128+L81; pication:H104+Y63+F134+Y90+R68+F83+R20; pistack:H21+Y89+H104+F134+Y63+F83+Y94; saltbridge:R93+H104+E106+D109+E85+E88+R68+R20; 

>  <intxn_cluster>  (75) 
-1

>  <intxn_cluster_rank>  (75) 
-1

>  <N_interactions>  (75) 
6

>  <∆∆G>  (75) 
-12.008848

>  <$/mg>  (75) 
0.0

>  <comRMSD>  (75) 
0.597022

>  <N_rotatable_bonds>  (75) 
7

>  <deep_P1_sidechain>  (75) 
nan

>  <farthest_distance_to_substrate>  (75) 
2.286107

>  <hbond:SER:7>  (75) 
hbond:SER:7    NaN
hbond:SER:7     -1
Name: 73, dtype: object

>  <halogenbond:SER:7>  (75) 
halogenbond:SER:7    NaN
halogenbond:SER:7     -1
Name: 73, dtype: object

>  <hbond:GLY:8>  (75) 
hbond:GLY:8    NaN
hbond:GLY:8     -1
Name: 73, dtype: object

>  <hydroph_interaction:VAL:18>  (75) 
hydroph_interaction:VAL:18    NaN
hydroph_interaction:VAL:18     -1
Name: 73, dtype: object

>  <hbond:ASN:19>  (75) 
hbond:ASN:19    0.0
hbond:ASN:19      0
Name: 73, dtype: object

>  <hydroph_interaction:ASN:19>  (75) 
hydroph_interaction:ASN:19    NaN
hydroph_interaction:ASN:19     -1
Name: 73, dtype: object

>  <halogenbond:ASN:19>  (75) 
halogenbond:ASN:19    NaN
halogenbond:ASN:19     -1
Name: 73, dtype: object

>  <hbond:ARG:20>  (75) 
hbond:ARG:20    NaN
hbond:ARG:20     -1
Name: 73, dtype: object

>  <hydroph_interaction:ARG:20>  (75) 
hydroph_interaction:ARG:20    NaN
hydroph_interaction:ARG:20     -1
Name: 73, dtype: object

>  <saltbridge:ARG:20>  (75) 
saltbridge:ARG:20    NaN
saltbridge:ARG:20     -1
Name: 73, dtype: object

>  <halogenbond:ARG:20>  (75) 
halogenbond:ARG:20    NaN
halogenbond:ARG:20     -1
Name: 73, dtype: object

>  <pication:ARG:20>  (75) 
pication:ARG:20    NaN
pication:ARG:20     -1
Name: 73, dtype: object

>  <hbond:HIS:21>  (75) 
hbond:HIS:21    0.0
hbond:HIS:21      0
Name: 73, dtype: object

>  <hydroph_interaction:HIS:21>  (75) 
hydroph_interaction:HIS:21    0.0
hydroph_interaction:HIS:21      0
Name: 73, dtype: object

>  <pistack:HIS:21>  (75) 
pistack:HIS:21    NaN
pistack:HIS:21     -1
Name: 73, dtype: object

>  <pication:HIS:21>  (75) 
pication:HIS:21    0.0
pication:HIS:21      0
Name: 73, dtype: object

>  <saltbridge:HIS:21>  (75) 
saltbridge:HIS:21    0.0
saltbridge:HIS:21      0
Name: 73, dtype: object

>  <halogenbond:HIS:21>  (75) 
halogenbond:HIS:21    NaN
halogenbond:HIS:21     -1
Name: 73, dtype: object

>  <hydroph_interaction:LEU:22>  (75) 
hydroph_interaction:LEU:22    NaN
hydroph_interaction:LEU:22     -1
Name: 73, dtype: object

>  <hbond:LEU:22>  (75) 
hbond:LEU:22    NaN
hbond:LEU:22     -1
Name: 73, dtype: object

>  <hydroph_interaction:TRP:28>  (75) 
hydroph_interaction:TRP:28    NaN
hydroph_interaction:TRP:28     -1
Name: 73, dtype: object

>  <hbond:SER:36>  (75) 
hbond:SER:36    NaN
hbond:SER:36     -1
Name: 73, dtype: object

>  <halogenbond:SER:36>  (75) 
halogenbond:SER:36    NaN
halogenbond:SER:36     -1
Name: 73, dtype: object

>  <hbond:SER:37>  (75) 
hbond:SER:37    NaN
hbond:SER:37     -1
Name: 73, dtype: object

>  <hbond:ARG:38>  (75) 
hbond:ARG:38    NaN
hbond:ARG:38     -1
Name: 73, dtype: object

>  <halogenbond:ARG:38>  (75) 
halogenbond:ARG:38    NaN
halogenbond:ARG:38     -1
Name: 73, dtype: object

>  <saltbridge:ASP:39>  (75) 
saltbridge:ASP:39    0.0
saltbridge:ASP:39      0
Name: 73, dtype: object

>  <halogenbond:ASP:39>  (75) 
halogenbond:ASP:39    NaN
halogenbond:ASP:39     -1
Name: 73, dtype: object

>  <hbond:ASP:39>  (75) 
hbond:ASP:39    0.0
hbond:ASP:39      0
Name: 73, dtype: object

>  <hydroph_interaction:ASP:39>  (75) 
hydroph_interaction:ASP:39    0.0
hydroph_interaction:ASP:39      0
Name: 73, dtype: object

>  <hydroph_interaction:LEU:40>  (75) 
hydroph_interaction:LEU:40    NaN
hydroph_interaction:LEU:40     -1
Name: 73, dtype: object

>  <hydroph_interaction:TYR:63>  (75) 
hydroph_interaction:TYR:63    NaN
hydroph_interaction:TYR:63     -1
Name: 73, dtype: object

>  <hbond:TYR:63>  (75) 
hbond:TYR:63    NaN
hbond:TYR:63     -1
Name: 73, dtype: object

>  <pistack:TYR:63>  (75) 
pistack:TYR:63    NaN
pistack:TYR:63     -1
Name: 73, dtype: object

>  <pication:TYR:63>  (75) 
pication:TYR:63    NaN
pication:TYR:63     -1
Name: 73, dtype: object

>  <halogenbond:TYR:64>  (75) 
halogenbond:TYR:64    NaN
halogenbond:TYR:64     -1
Name: 73, dtype: object

>  <hbond:TYR:64>  (75) 
hbond:TYR:64    NaN
hbond:TYR:64     -1
Name: 73, dtype: object

>  <hydroph_interaction:TYR:64>  (75) 
hydroph_interaction:TYR:64    NaN
hydroph_interaction:TYR:64     -1
Name: 73, dtype: object

>  <halogenbond:CYS:65>  (75) 
halogenbond:CYS:65    NaN
halogenbond:CYS:65     -1
Name: 73, dtype: object

>  <hbond:CYS:65>  (75) 
hbond:CYS:65    NaN
hbond:CYS:65     -1
Name: 73, dtype: object

>  <hbond:SER:66>  (75) 
hbond:SER:66    NaN
hbond:SER:66     -1
Name: 73, dtype: object

>  <halogenbond:SER:66>  (75) 
halogenbond:SER:66    NaN
halogenbond:SER:66     -1
Name: 73, dtype: object

>  <hbond:SER:67>  (75) 
hbond:SER:67    0.0
hbond:SER:67      0
Name: 73, dtype: object

>  <halogenbond:SER:67>  (75) 
halogenbond:SER:67    NaN
halogenbond:SER:67     -1
Name: 73, dtype: object

>  <hbond:ARG:68>  (75) 
hbond:ARG:68    NaN
hbond:ARG:68     -1
Name: 73, dtype: object

>  <saltbridge:ARG:68>  (75) 
saltbridge:ARG:68    NaN
saltbridge:ARG:68     -1
Name: 73, dtype: object

>  <hydroph_interaction:ARG:68>  (75) 
hydroph_interaction:ARG:68    NaN
hydroph_interaction:ARG:68     -1
Name: 73, dtype: object

>  <pication:ARG:68>  (75) 
pication:ARG:68    NaN
pication:ARG:68     -1
Name: 73, dtype: object

>  <hydroph_interaction:TYR:72>  (75) 
hydroph_interaction:TYR:72    NaN
hydroph_interaction:TYR:72     -1
Name: 73, dtype: object

>  <hydroph_interaction:VAL:74>  (75) 
hydroph_interaction:VAL:74    NaN
hydroph_interaction:VAL:74     -1
Name: 73, dtype: object

>  <hydroph_interaction:PHE:76>  (75) 
hydroph_interaction:PHE:76    NaN
hydroph_interaction:PHE:76     -1
Name: 73, dtype: object

>  <hbond:SER:77>  (75) 
hbond:SER:77    NaN
hbond:SER:77     -1
Name: 73, dtype: object

>  <hbond:SER:80>  (75) 
hbond:SER:80    NaN
hbond:SER:80     -1
Name: 73, dtype: object

>  <hbond:LEU:81>  (75) 
hbond:LEU:81    NaN
hbond:LEU:81     -1
Name: 73, dtype: object

>  <halogenbond:LEU:81>  (75) 
halogenbond:LEU:81    NaN
halogenbond:LEU:81     -1
Name: 73, dtype: object

>  <hydroph_interaction:LEU:81>  (75) 
hydroph_interaction:LEU:81    NaN
hydroph_interaction:LEU:81     -1
Name: 73, dtype: object

>  <hydroph_interaction:ILE:82>  (75) 
hydroph_interaction:ILE:82    NaN
hydroph_interaction:ILE:82     -1
Name: 73, dtype: object

>  <halogenbond:ILE:82>  (75) 
halogenbond:ILE:82    NaN
halogenbond:ILE:82     -1
Name: 73, dtype: object

>  <hbond:ILE:82>  (75) 
hbond:ILE:82    NaN
hbond:ILE:82     -1
Name: 73, dtype: object

>  <hbond:PHE:83>  (75) 
hbond:PHE:83    NaN
hbond:PHE:83     -1
Name: 73, dtype: object

>  <hydroph_interaction:PHE:83>  (75) 
hydroph_interaction:PHE:83    NaN
hydroph_interaction:PHE:83     -1
Name: 73, dtype: object

>  <halogenbond:PHE:83>  (75) 
halogenbond:PHE:83    NaN
halogenbond:PHE:83     -1
Name: 73, dtype: object

>  <pistack:PHE:83>  (75) 
pistack:PHE:83    NaN
pistack:PHE:83     -1
Name: 73, dtype: object

>  <pication:PHE:83>  (75) 
pication:PHE:83    NaN
pication:PHE:83     -1
Name: 73, dtype: object

>  <hydroph_interaction:VAL:84>  (75) 
hydroph_interaction:VAL:84    0.0
hydroph_interaction:VAL:84      0
Name: 73, dtype: object

>  <halogenbond:VAL:84>  (75) 
halogenbond:VAL:84    NaN
halogenbond:VAL:84     -1
Name: 73, dtype: object

>  <hbond:VAL:84>  (75) 
hbond:VAL:84    NaN
hbond:VAL:84     -1
Name: 73, dtype: object

>  <hydroph_interaction:GLU:85>  (75) 
hydroph_interaction:GLU:85    0.0
hydroph_interaction:GLU:85      0
Name: 73, dtype: object

>  <hbond:GLU:85>  (75) 
hbond:GLU:85    NaN
hbond:GLU:85     -1
Name: 73, dtype: object

>  <halogenbond:GLU:85>  (75) 
halogenbond:GLU:85    NaN
halogenbond:GLU:85     -1
Name: 73, dtype: object

>  <saltbridge:GLU:85>  (75) 
saltbridge:GLU:85    NaN
saltbridge:GLU:85     -1
Name: 73, dtype: object

>  <halogenbond:ALA:86>  (75) 
halogenbond:ALA:86    NaN
halogenbond:ALA:86     -1
Name: 73, dtype: object

>  <hbond:ALA:86>  (75) 
hbond:ALA:86    NaN
hbond:ALA:86     -1
Name: 73, dtype: object

>  <hydroph_interaction:ALA:86>  (75) 
hydroph_interaction:ALA:86    NaN
hydroph_interaction:ALA:86     -1
Name: 73, dtype: object

>  <hbond:SER:87>  (75) 
hbond:SER:87    1
hbond:SER:87    1
Name: 73, dtype: object

>  <halogenbond:SER:87>  (75) 
halogenbond:SER:87    0.0
halogenbond:SER:87      0
Name: 73, dtype: object

>  <hbond:GLU:88>  (75) 
hbond:GLU:88    0.0
hbond:GLU:88      0
Name: 73, dtype: object

>  <hydroph_interaction:GLU:88>  (75) 
hydroph_interaction:GLU:88    NaN
hydroph_interaction:GLU:88     -1
Name: 73, dtype: object

>  <halogenbond:GLU:88>  (75) 
halogenbond:GLU:88    NaN
halogenbond:GLU:88     -1
Name: 73, dtype: object

>  <saltbridge:GLU:88>  (75) 
saltbridge:GLU:88    NaN
saltbridge:GLU:88     -1
Name: 73, dtype: object

>  <hydroph_interaction:TYR:89>  (75) 
hydroph_interaction:TYR:89    1.0
hydroph_interaction:TYR:89      1
Name: 73, dtype: object

>  <pistack:TYR:89>  (75) 
pistack:TYR:89    NaN
pistack:TYR:89     -1
Name: 73, dtype: object

>  <hbond:TYR:89>  (75) 
hbond:TYR:89    NaN
hbond:TYR:89     -1
Name: 73, dtype: object

>  <halogenbond:TYR:89>  (75) 
halogenbond:TYR:89    NaN
halogenbond:TYR:89     -1
Name: 73, dtype: object

>  <hydroph_interaction:TYR:90>  (75) 
hydroph_interaction:TYR:90    1.0
hydroph_interaction:TYR:90      1
Name: 73, dtype: object

>  <hbond:TYR:90>  (75) 
hbond:TYR:90    0.0
hbond:TYR:90      0
Name: 73, dtype: object

>  <pistack:TYR:90>  (75) 
pistack:TYR:90    0.0
pistack:TYR:90      0
Name: 73, dtype: object

>  <halogenbond:TYR:90>  (75) 
halogenbond:TYR:90    NaN
halogenbond:TYR:90     -1
Name: 73, dtype: object

>  <pication:TYR:90>  (75) 
pication:TYR:90    NaN
pication:TYR:90     -1
Name: 73, dtype: object

>  <hbond:PRO:91>  (75) 
hbond:PRO:91    NaN
hbond:PRO:91     -1
Name: 73, dtype: object

>  <hydroph_interaction:PRO:91>  (75) 
hydroph_interaction:PRO:91    NaN
hydroph_interaction:PRO:91     -1
Name: 73, dtype: object

>  <halogenbond:PRO:91>  (75) 
halogenbond:PRO:91    NaN
halogenbond:PRO:91     -1
Name: 73, dtype: object

>  <hbond:ALA:92>  (75) 
hbond:ALA:92    NaN
hbond:ALA:92     -1
Name: 73, dtype: object

>  <hydroph_interaction:ALA:92>  (75) 
hydroph_interaction:ALA:92    NaN
hydroph_interaction:ALA:92     -1
Name: 73, dtype: object

>  <saltbridge:ARG:93>  (75) 
saltbridge:ARG:93    NaN
saltbridge:ARG:93     -1
Name: 73, dtype: object

>  <hbond:ARG:93>  (75) 
hbond:ARG:93    NaN
hbond:ARG:93     -1
Name: 73, dtype: object

>  <hydroph_interaction:ARG:93>  (75) 
hydroph_interaction:ARG:93    NaN
hydroph_interaction:ARG:93     -1
Name: 73, dtype: object

>  <halogenbond:ARG:93>  (75) 
halogenbond:ARG:93    NaN
halogenbond:ARG:93     -1
Name: 73, dtype: object

>  <pication:ARG:93>  (75) 
pication:ARG:93    0.0
pication:ARG:93      0
Name: 73, dtype: object

>  <hydroph_interaction:TYR:94>  (75) 
hydroph_interaction:TYR:94    NaN
hydroph_interaction:TYR:94     -1
Name: 73, dtype: object

>  <pistack:TYR:94>  (75) 
pistack:TYR:94    NaN
pistack:TYR:94     -1
Name: 73, dtype: object

>  <hbond:TYR:94>  (75) 
hbond:TYR:94    NaN
hbond:TYR:94     -1
Name: 73, dtype: object

>  <hbond:GLN:95>  (75) 
hbond:GLN:95    0.0
hbond:GLN:95      0
Name: 73, dtype: object

>  <hydroph_interaction:GLN:95>  (75) 
hydroph_interaction:GLN:95    0.0
hydroph_interaction:GLN:95      0
Name: 73, dtype: object

>  <halogenbond:GLN:95>  (75) 
halogenbond:GLN:95    0.0
halogenbond:GLN:95      0
Name: 73, dtype: object

>  <hbond:SER:96>  (75) 
hbond:SER:96    NaN
hbond:SER:96     -1
Name: 73, dtype: object

>  <halogenbond:HIS:97>  (75) 
halogenbond:HIS:97    NaN
halogenbond:HIS:97     -1
Name: 73, dtype: object

>  <hydroph_interaction:LEU:98>  (75) 
hydroph_interaction:LEU:98    NaN
hydroph_interaction:LEU:98     -1
Name: 73, dtype: object

>  <hbond:LEU:98>  (75) 
hbond:LEU:98    NaN
hbond:LEU:98     -1
Name: 73, dtype: object

>  <halogenbond:LEU:98>  (75) 
halogenbond:LEU:98    NaN
halogenbond:LEU:98     -1
Name: 73, dtype: object

>  <hbond:MET:99>  (75) 
hbond:MET:99    NaN
hbond:MET:99     -1
Name: 73, dtype: object

>  <hydroph_interaction:MET:99>  (75) 
hydroph_interaction:MET:99    NaN
hydroph_interaction:MET:99     -1
Name: 73, dtype: object

>  <halogenbond:MET:99>  (75) 
halogenbond:MET:99    NaN
halogenbond:MET:99     -1
Name: 73, dtype: object

>  <hydroph_interaction:LEU:100>  (75) 
hydroph_interaction:LEU:100    NaN
hydroph_interaction:LEU:100     -1
Name: 73, dtype: object

>  <hbond:LEU:100>  (75) 
hbond:LEU:100    NaN
hbond:LEU:100     -1
Name: 73, dtype: object

>  <hbond:ALA:101>  (75) 
hbond:ALA:101    NaN
hbond:ALA:101     -1
Name: 73, dtype: object

>  <hydroph_interaction:ALA:101>  (75) 
hydroph_interaction:ALA:101    NaN
hydroph_interaction:ALA:101     -1
Name: 73, dtype: object

>  <hydroph_interaction:VAL:102>  (75) 
hydroph_interaction:VAL:102    NaN
hydroph_interaction:VAL:102     -1
Name: 73, dtype: object

>  <hbond:VAL:102>  (75) 
hbond:VAL:102    NaN
hbond:VAL:102     -1
Name: 73, dtype: object

>  <hbond:GLY:103>  (75) 
hbond:GLY:103    NaN
hbond:GLY:103     -1
Name: 73, dtype: object

>  <halogenbond:GLY:103>  (75) 
halogenbond:GLY:103    NaN
halogenbond:GLY:103     -1
Name: 73, dtype: object

>  <hbond:HIS:104>  (75) 
hbond:HIS:104    NaN
hbond:HIS:104     -1
Name: 73, dtype: object

>  <saltbridge:HIS:104>  (75) 
saltbridge:HIS:104    NaN
saltbridge:HIS:104     -1
Name: 73, dtype: object

>  <pication:HIS:104>  (75) 
pication:HIS:104    NaN
pication:HIS:104     -1
Name: 73, dtype: object

>  <halogenbond:HIS:104>  (75) 
halogenbond:HIS:104    0.0
halogenbond:HIS:104      0
Name: 73, dtype: object

>  <hydroph_interaction:HIS:104>  (75) 
hydroph_interaction:HIS:104    NaN
hydroph_interaction:HIS:104     -1
Name: 73, dtype: object

>  <pistack:HIS:104>  (75) 
pistack:HIS:104    NaN
pistack:HIS:104     -1
Name: 73, dtype: object

>  <halogenbond:SER:105>  (75) 
halogenbond:SER:105    0.0
halogenbond:SER:105      0
Name: 73, dtype: object

>  <hbond:SER:105>  (75) 
hbond:SER:105    0.0
hbond:SER:105      0
Name: 73, dtype: object

>  <hbond:GLU:106>  (75) 
hbond:GLU:106    0.0
hbond:GLU:106      0
Name: 73, dtype: object

>  <hydroph_interaction:GLU:106>  (75) 
hydroph_interaction:GLU:106    NaN
hydroph_interaction:GLU:106     -1
Name: 73, dtype: object

>  <saltbridge:GLU:106>  (75) 
saltbridge:GLU:106    NaN
saltbridge:GLU:106     -1
Name: 73, dtype: object

>  <halogenbond:GLU:106>  (75) 
halogenbond:GLU:106    NaN
halogenbond:GLU:106     -1
Name: 73, dtype: object

>  <hydroph_interaction:PRO:107>  (75) 
hydroph_interaction:PRO:107    1
hydroph_interaction:PRO:107    1
Name: 73, dtype: object

>  <hbond:PRO:107>  (75) 
hbond:PRO:107    0.0
hbond:PRO:107      0
Name: 73, dtype: object

>  <halogenbond:PRO:107>  (75) 
halogenbond:PRO:107    NaN
halogenbond:PRO:107     -1
Name: 73, dtype: object

>  <hbond:GLY:108>  (75) 
hbond:GLY:108    0.0
hbond:GLY:108      0
Name: 73, dtype: object

>  <halogenbond:GLY:108>  (75) 
halogenbond:GLY:108    NaN
halogenbond:GLY:108     -1
Name: 73, dtype: object

>  <hbond:ASP:109>  (75) 
hbond:ASP:109    0.0
hbond:ASP:109      0
Name: 73, dtype: object

>  <hydroph_interaction:ASP:109>  (75) 
hydroph_interaction:ASP:109    0.0
hydroph_interaction:ASP:109      0
Name: 73, dtype: object

>  <saltbridge:ASP:109>  (75) 
saltbridge:ASP:109    NaN
saltbridge:ASP:109     -1
Name: 73, dtype: object

>  <halogenbond:CYS:110>  (75) 
halogenbond:CYS:110    0.0
halogenbond:CYS:110      0
Name: 73, dtype: object

>  <hbond:CYS:110>  (75) 
hbond:CYS:110    0.0
hbond:CYS:110      0
Name: 73, dtype: object

>  <hbond:GLY:111>  (75) 
hbond:GLY:111    NaN
hbond:GLY:111     -1
Name: 73, dtype: object

>  <hbond:GLY:112>  (75) 
hbond:GLY:112    NaN
hbond:GLY:112     -1
Name: 73, dtype: object

>  <hbond:ILE:113>  (75) 
hbond:ILE:113    NaN
hbond:ILE:113     -1
Name: 73, dtype: object

>  <hydroph_interaction:LEU:114>  (75) 
hydroph_interaction:LEU:114    NaN
hydroph_interaction:LEU:114     -1
Name: 73, dtype: object

>  <hbond:LEU:114>  (75) 
hbond:LEU:114    NaN
hbond:LEU:114     -1
Name: 73, dtype: object

>  <hydroph_interaction:ILE:123>  (75) 
hydroph_interaction:ILE:123    NaN
hydroph_interaction:ILE:123     -1
Name: 73, dtype: object

>  <hbond:ILE:123>  (75) 
hbond:ILE:123    NaN
hbond:ILE:123     -1
Name: 73, dtype: object

>  <hydroph_interaction:VAL:124>  (75) 
hydroph_interaction:VAL:124    1.0
hydroph_interaction:VAL:124      1
Name: 73, dtype: object

>  <hbond:VAL:124>  (75) 
hbond:VAL:124    NaN
hbond:VAL:124     -1
Name: 73, dtype: object

>  <halogenbond:VAL:124>  (75) 
halogenbond:VAL:124    NaN
halogenbond:VAL:124     -1
Name: 73, dtype: object

>  <hbond:SER:125>  (75) 
hbond:SER:125    1
hbond:SER:125    1
Name: 73, dtype: object

>  <halogenbond:SER:125>  (75) 
halogenbond:SER:125    0.0
halogenbond:SER:125      0
Name: 73, dtype: object

>  <hydroph_interaction:THR:126>  (75) 
hydroph_interaction:THR:126    0.0
hydroph_interaction:THR:126      0
Name: 73, dtype: object

>  <hbond:THR:126>  (75) 
hbond:THR:126    NaN
hbond:THR:126     -1
Name: 73, dtype: object

>  <halogenbond:THR:126>  (75) 
halogenbond:THR:126    NaN
halogenbond:THR:126     -1
Name: 73, dtype: object

>  <hbond:GLY:127>  (75) 
hbond:GLY:127    0
hbond:GLY:127    0
Name: 73, dtype: object

>  <halogenbond:GLY:127>  (75) 
halogenbond:GLY:127    NaN
halogenbond:GLY:127     -1
Name: 73, dtype: object

>  <hydroph_interaction:GLY:127>  (75) 
hydroph_interaction:GLY:127    NaN
hydroph_interaction:GLY:127     -1
Name: 73, dtype: object

>  <hbond:GLY:128>  (75) 
hbond:GLY:128    NaN
hbond:GLY:128     -1
Name: 73, dtype: object

>  <halogenbond:GLY:128>  (75) 
halogenbond:GLY:128    NaN
halogenbond:GLY:128     -1
Name: 73, dtype: object

>  <hydroph_interaction:GLY:128>  (75) 
hydroph_interaction:GLY:128    NaN
hydroph_interaction:GLY:128     -1
Name: 73, dtype: object

>  <hbond:ASN:129>  (75) 
hbond:ASN:129    NaN
hbond:ASN:129     -1
Name: 73, dtype: object

>  <hydroph_interaction:ASN:129>  (75) 
hydroph_interaction:ASN:129    NaN
hydroph_interaction:ASN:129     -1
Name: 73, dtype: object

>  <halogenbond:ASN:129>  (75) 
halogenbond:ASN:129    NaN
halogenbond:ASN:129     -1
Name: 73, dtype: object

>  <hbond:GLY:130>  (75) 
hbond:GLY:130    NaN
hbond:GLY:130     -1
Name: 73, dtype: object

>  <hbond:LEU:131>  (75) 
hbond:LEU:131    NaN
hbond:LEU:131     -1
Name: 73, dtype: object

>  <hydroph_interaction:LEU:131>  (75) 
hydroph_interaction:LEU:131    NaN
hydroph_interaction:LEU:131     -1
Name: 73, dtype: object

>  <halogenbond:LEU:131>  (75) 
halogenbond:LEU:131    NaN
halogenbond:LEU:131     -1
Name: 73, dtype: object

>  <hydroph_interaction:VAL:132>  (75) 
hydroph_interaction:VAL:132    NaN
hydroph_interaction:VAL:132     -1
Name: 73, dtype: object

>  <hbond:VAL:132>  (75) 
hbond:VAL:132    NaN
hbond:VAL:132     -1
Name: 73, dtype: object

>  <hbond:GLY:133>  (75) 
hbond:GLY:133    NaN
hbond:GLY:133     -1
Name: 73, dtype: object

>  <halogenbond:GLY:133>  (75) 
halogenbond:GLY:133    NaN
halogenbond:GLY:133     -1
Name: 73, dtype: object

>  <hydroph_interaction:PHE:134>  (75) 
hydroph_interaction:PHE:134    NaN
hydroph_interaction:PHE:134     -1
Name: 73, dtype: object

>  <hbond:PHE:134>  (75) 
hbond:PHE:134    NaN
hbond:PHE:134     -1
Name: 73, dtype: object

>  <pistack:PHE:134>  (75) 
pistack:PHE:134    NaN
pistack:PHE:134     -1
Name: 73, dtype: object

>  <pication:PHE:134>  (75) 
pication:PHE:134    NaN
pication:PHE:134     -1
Name: 73, dtype: object

>  <halogenbond:PHE:134>  (75) 
halogenbond:PHE:134    NaN
halogenbond:PHE:134     -1
Name: 73, dtype: object

>  <hydroph_interaction:ALA:135>  (75) 
hydroph_interaction:ALA:135    NaN
hydroph_interaction:ALA:135     -1
Name: 73, dtype: object

>  <hbond:ALA:135>  (75) 
hbond:ALA:135    NaN
hbond:ALA:135     -1
Name: 73, dtype: object

$$$$
PV_002870367296
     RDKit          3D

 10 10  0  0  0  0  0  0  0  0999 V2000
   29.1019   13.4638    8.2362 C   0  0  0  0  0  0  0  0  0  0  0  0
   30.5018   13.2201    7.8891 N   0  0  0  0  0  0  0  0  0  0  0  0
   30.9984   11.9040    7.6625 C   0  0  0  0  0  0  0  0  0  0  0  0
   30.4916   10.7918    8.3169 C   0  0  0  0  0  0  0  0  0  0  0  0
   30.9680    9.5014    8.1241 C   0  0  0  0  0  0  0  0  0  0  0  0
   30.3493    8.3993    8.9075 C   0  0  0  0  0  0  0  0  0  0  0  0
   32.0007    9.2797    7.2199 C   0  0  0  0  0  0  0  0  0  0  0  0
   32.5453   10.3558    6.5337 C   0  0  0  0  0  0  0  0  0  0  0  0
   32.0517   11.6437    6.7577 C   0  0  0  0  0  0  0  0  0  0  0  0
   32.6090   12.6590    6.0814 F   0  0  0  0  0  0  0  0  0  0  0  0
  1  2  1  0
  2  3  1  0
  3  4  2  0
  4  5  1  0
  5  6  1  0
  5  7  2  0
  7  8  1  0
  8  9  2  0
  9 10  1  0
  9  3  1  0
A    1
 C1 
A    2
 N1 
A    3
 C2 
A    4
 C3 
A    5
 C4 
A    6
 C5 
A    7
 C6 
A    8
 C7 
A    9
 C8 
A   10
 F1 
M  END
>  <ref_pdb>  (76) 
Ax0310a

>  <ref_mols>  (76) 
Ax0451a,Ax0739a

>  <original SMILES>  (76) 
CNc1cc(C)ccc1F

>  <rationale>  (76) 
info halogenbond:C110+D39+A86+S125+E85+Q95+E106+E88+T126+P107+H104+Y64+C65+S87+N129+F83+R93+L131+I82+G128+P91+N19+H21+V84+G133+Y90+Y89+H97+L81+F134+L98+R20+G103+S66+S67+S7+G108+R38+V124+M99+S36; hbond:S87+Y90+P107+Q95+D39+A86+C110+E85+G108+G103+G128+G130+L131+N129+N19+H104+R68+V124+R93+P91+F83+S67+S7+S66+G112+G133+V132+R20+Y89+S77+A135+Y63+A92+A101+M99+F134+L100+I82+Y64+S36+L98+V84+L81+Y94+S80+R38+S37+V102+G8+I123+G111+I113+L114+C65+L22+S96; hydroph_interaction:V124+T126+H21+L22+E85+E106+E88+N129+D39+N19+L40+I123+A135+Q95+I82+L100+L98+L131+F83+R93+V132+Y63+F134+H104+R20+A86+V74+P91+A101+F76+M99+L114+A92+Y94+R68+Y72+Y64+V18+V102+W28+G127+G128+L81; pication:H21+H104+R93+Y63+F134+Y90+R68+F83+R20; pistack:H21+Y89+Y90+H104+F134+Y63+F83+Y94; saltbridge:D39+H21+R93+H104+E106+D109+E85+E88+R68+R20; 

>  <intxn_cluster>  (76) 
-1

>  <intxn_cluster_rank>  (76) 
-1

>  <N_interactions>  (76) 
3

>  <∆∆G>  (76) 
-8.959054

>  <$/mg>  (76) 
163.0

>  <comRMSD>  (76) 
0.777686

>  <N_rotatable_bonds>  (76) 
3

>  <deep_P1_sidechain>  (76) 
nan

>  <farthest_distance_to_substrate>  (76) 
2.289094

>  <hbond:SER:7>  (76) 
hbond:SER:7    NaN
hbond:SER:7     -1
Name: 74, dtype: object

>  <halogenbond:SER:7>  (76) 
halogenbond:SER:7    NaN
halogenbond:SER:7     -1
Name: 74, dtype: object

>  <hbond:GLY:8>  (76) 
hbond:GLY:8    NaN
hbond:GLY:8     -1
Name: 74, dtype: object

>  <hydroph_interaction:VAL:18>  (76) 
hydroph_interaction:VAL:18    NaN
hydroph_interaction:VAL:18     -1
Name: 74, dtype: object

>  <hbond:ASN:19>  (76) 
hbond:ASN:19    NaN
hbond:ASN:19     -1
Name: 74, dtype: object

>  <hydroph_interaction:ASN:19>  (76) 
hydroph_interaction:ASN:19    NaN
hydroph_interaction:ASN:19     -1
Name: 74, dtype: object

>  <halogenbond:ASN:19>  (76) 
halogenbond:ASN:19    NaN
halogenbond:ASN:19     -1
Name: 74, dtype: object

>  <hbond:ARG:20>  (76) 
hbond:ARG:20    NaN
hbond:ARG:20     -1
Name: 74, dtype: object

>  <hydroph_interaction:ARG:20>  (76) 
hydroph_interaction:ARG:20    NaN
hydroph_interaction:ARG:20     -1
Name: 74, dtype: object

>  <saltbridge:ARG:20>  (76) 
saltbridge:ARG:20    NaN
saltbridge:ARG:20     -1
Name: 74, dtype: object

>  <halogenbond:ARG:20>  (76) 
halogenbond:ARG:20    NaN
halogenbond:ARG:20     -1
Name: 74, dtype: object

>  <pication:ARG:20>  (76) 
pication:ARG:20    NaN
pication:ARG:20     -1
Name: 74, dtype: object

>  <hbond:HIS:21>  (76) 
hbond:HIS:21    0.0
hbond:HIS:21      0
Name: 74, dtype: object

>  <hydroph_interaction:HIS:21>  (76) 
hydroph_interaction:HIS:21    NaN
hydroph_interaction:HIS:21     -1
Name: 74, dtype: object

>  <pistack:HIS:21>  (76) 
pistack:HIS:21    NaN
pistack:HIS:21     -1
Name: 74, dtype: object

>  <pication:HIS:21>  (76) 
pication:HIS:21    NaN
pication:HIS:21     -1
Name: 74, dtype: object

>  <saltbridge:HIS:21>  (76) 
saltbridge:HIS:21    NaN
saltbridge:HIS:21     -1
Name: 74, dtype: object

>  <halogenbond:HIS:21>  (76) 
halogenbond:HIS:21    NaN
halogenbond:HIS:21     -1
Name: 74, dtype: object

>  <hydroph_interaction:LEU:22>  (76) 
hydroph_interaction:LEU:22    NaN
hydroph_interaction:LEU:22     -1
Name: 74, dtype: object

>  <hbond:LEU:22>  (76) 
hbond:LEU:22    NaN
hbond:LEU:22     -1
Name: 74, dtype: object

>  <hydroph_interaction:TRP:28>  (76) 
hydroph_interaction:TRP:28    NaN
hydroph_interaction:TRP:28     -1
Name: 74, dtype: object

>  <hbond:SER:36>  (76) 
hbond:SER:36    NaN
hbond:SER:36     -1
Name: 74, dtype: object

>  <halogenbond:SER:36>  (76) 
halogenbond:SER:36    NaN
halogenbond:SER:36     -1
Name: 74, dtype: object

>  <hbond:SER:37>  (76) 
hbond:SER:37    NaN
hbond:SER:37     -1
Name: 74, dtype: object

>  <hbond:ARG:38>  (76) 
hbond:ARG:38    NaN
hbond:ARG:38     -1
Name: 74, dtype: object

>  <halogenbond:ARG:38>  (76) 
halogenbond:ARG:38    NaN
halogenbond:ARG:38     -1
Name: 74, dtype: object

>  <saltbridge:ASP:39>  (76) 
saltbridge:ASP:39    NaN
saltbridge:ASP:39     -1
Name: 74, dtype: object

>  <halogenbond:ASP:39>  (76) 
halogenbond:ASP:39    NaN
halogenbond:ASP:39     -1
Name: 74, dtype: object

>  <hbond:ASP:39>  (76) 
hbond:ASP:39    NaN
hbond:ASP:39     -1
Name: 74, dtype: object

>  <hydroph_interaction:ASP:39>  (76) 
hydroph_interaction:ASP:39    NaN
hydroph_interaction:ASP:39     -1
Name: 74, dtype: object

>  <hydroph_interaction:LEU:40>  (76) 
hydroph_interaction:LEU:40    NaN
hydroph_interaction:LEU:40     -1
Name: 74, dtype: object

>  <hydroph_interaction:TYR:63>  (76) 
hydroph_interaction:TYR:63    NaN
hydroph_interaction:TYR:63     -1
Name: 74, dtype: object

>  <hbond:TYR:63>  (76) 
hbond:TYR:63    NaN
hbond:TYR:63     -1
Name: 74, dtype: object

>  <pistack:TYR:63>  (76) 
pistack:TYR:63    NaN
pistack:TYR:63     -1
Name: 74, dtype: object

>  <pication:TYR:63>  (76) 
pication:TYR:63    NaN
pication:TYR:63     -1
Name: 74, dtype: object

>  <halogenbond:TYR:64>  (76) 
halogenbond:TYR:64    NaN
halogenbond:TYR:64     -1
Name: 74, dtype: object

>  <hbond:TYR:64>  (76) 
hbond:TYR:64    NaN
hbond:TYR:64     -1
Name: 74, dtype: object

>  <hydroph_interaction:TYR:64>  (76) 
hydroph_interaction:TYR:64    NaN
hydroph_interaction:TYR:64     -1
Name: 74, dtype: object

>  <halogenbond:CYS:65>  (76) 
halogenbond:CYS:65    NaN
halogenbond:CYS:65     -1
Name: 74, dtype: object

>  <hbond:CYS:65>  (76) 
hbond:CYS:65    NaN
hbond:CYS:65     -1
Name: 74, dtype: object

>  <hbond:SER:66>  (76) 
hbond:SER:66    NaN
hbond:SER:66     -1
Name: 74, dtype: object

>  <halogenbond:SER:66>  (76) 
halogenbond:SER:66    NaN
halogenbond:SER:66     -1
Name: 74, dtype: object

>  <hbond:SER:67>  (76) 
hbond:SER:67    NaN
hbond:SER:67     -1
Name: 74, dtype: object

>  <halogenbond:SER:67>  (76) 
halogenbond:SER:67    NaN
halogenbond:SER:67     -1
Name: 74, dtype: object

>  <hbond:ARG:68>  (76) 
hbond:ARG:68    NaN
hbond:ARG:68     -1
Name: 74, dtype: object

>  <saltbridge:ARG:68>  (76) 
saltbridge:ARG:68    NaN
saltbridge:ARG:68     -1
Name: 74, dtype: object

>  <hydroph_interaction:ARG:68>  (76) 
hydroph_interaction:ARG:68    NaN
hydroph_interaction:ARG:68     -1
Name: 74, dtype: object

>  <pication:ARG:68>  (76) 
pication:ARG:68    NaN
pication:ARG:68     -1
Name: 74, dtype: object

>  <hydroph_interaction:TYR:72>  (76) 
hydroph_interaction:TYR:72    NaN
hydroph_interaction:TYR:72     -1
Name: 74, dtype: object

>  <hydroph_interaction:VAL:74>  (76) 
hydroph_interaction:VAL:74    NaN
hydroph_interaction:VAL:74     -1
Name: 74, dtype: object

>  <hydroph_interaction:PHE:76>  (76) 
hydroph_interaction:PHE:76    NaN
hydroph_interaction:PHE:76     -1
Name: 74, dtype: object

>  <hbond:SER:77>  (76) 
hbond:SER:77    NaN
hbond:SER:77     -1
Name: 74, dtype: object

>  <hbond:SER:80>  (76) 
hbond:SER:80    NaN
hbond:SER:80     -1
Name: 74, dtype: object

>  <hbond:LEU:81>  (76) 
hbond:LEU:81    NaN
hbond:LEU:81     -1
Name: 74, dtype: object

>  <halogenbond:LEU:81>  (76) 
halogenbond:LEU:81    NaN
halogenbond:LEU:81     -1
Name: 74, dtype: object

>  <hydroph_interaction:LEU:81>  (76) 
hydroph_interaction:LEU:81    NaN
hydroph_interaction:LEU:81     -1
Name: 74, dtype: object

>  <hydroph_interaction:ILE:82>  (76) 
hydroph_interaction:ILE:82    NaN
hydroph_interaction:ILE:82     -1
Name: 74, dtype: object

>  <halogenbond:ILE:82>  (76) 
halogenbond:ILE:82    NaN
halogenbond:ILE:82     -1
Name: 74, dtype: object

>  <hbond:ILE:82>  (76) 
hbond:ILE:82    NaN
hbond:ILE:82     -1
Name: 74, dtype: object

>  <hbond:PHE:83>  (76) 
hbond:PHE:83    NaN
hbond:PHE:83     -1
Name: 74, dtype: object

>  <hydroph_interaction:PHE:83>  (76) 
hydroph_interaction:PHE:83    NaN
hydroph_interaction:PHE:83     -1
Name: 74, dtype: object

>  <halogenbond:PHE:83>  (76) 
halogenbond:PHE:83    NaN
halogenbond:PHE:83     -1
Name: 74, dtype: object

>  <pistack:PHE:83>  (76) 
pistack:PHE:83    NaN
pistack:PHE:83     -1
Name: 74, dtype: object

>  <pication:PHE:83>  (76) 
pication:PHE:83    NaN
pication:PHE:83     -1
Name: 74, dtype: object

>  <hydroph_interaction:VAL:84>  (76) 
hydroph_interaction:VAL:84    0.0
hydroph_interaction:VAL:84      0
Name: 74, dtype: object

>  <halogenbond:VAL:84>  (76) 
halogenbond:VAL:84    NaN
halogenbond:VAL:84     -1
Name: 74, dtype: object

>  <hbond:VAL:84>  (76) 
hbond:VAL:84    NaN
hbond:VAL:84     -1
Name: 74, dtype: object

>  <hydroph_interaction:GLU:85>  (76) 
hydroph_interaction:GLU:85    NaN
hydroph_interaction:GLU:85     -1
Name: 74, dtype: object

>  <hbond:GLU:85>  (76) 
hbond:GLU:85    NaN
hbond:GLU:85     -1
Name: 74, dtype: object

>  <halogenbond:GLU:85>  (76) 
halogenbond:GLU:85    NaN
halogenbond:GLU:85     -1
Name: 74, dtype: object

>  <saltbridge:GLU:85>  (76) 
saltbridge:GLU:85    NaN
saltbridge:GLU:85     -1
Name: 74, dtype: object

>  <halogenbond:ALA:86>  (76) 
halogenbond:ALA:86    NaN
halogenbond:ALA:86     -1
Name: 74, dtype: object

>  <hbond:ALA:86>  (76) 
hbond:ALA:86    NaN
hbond:ALA:86     -1
Name: 74, dtype: object

>  <hydroph_interaction:ALA:86>  (76) 
hydroph_interaction:ALA:86    NaN
hydroph_interaction:ALA:86     -1
Name: 74, dtype: object

>  <hbond:SER:87>  (76) 
hbond:SER:87    2
hbond:SER:87    2
Name: 74, dtype: object

>  <halogenbond:SER:87>  (76) 
halogenbond:SER:87    NaN
halogenbond:SER:87     -1
Name: 74, dtype: object

>  <hbond:GLU:88>  (76) 
hbond:GLU:88    0.0
hbond:GLU:88      0
Name: 74, dtype: object

>  <hydroph_interaction:GLU:88>  (76) 
hydroph_interaction:GLU:88    NaN
hydroph_interaction:GLU:88     -1
Name: 74, dtype: object

>  <halogenbond:GLU:88>  (76) 
halogenbond:GLU:88    NaN
halogenbond:GLU:88     -1
Name: 74, dtype: object

>  <saltbridge:GLU:88>  (76) 
saltbridge:GLU:88    NaN
saltbridge:GLU:88     -1
Name: 74, dtype: object

>  <hydroph_interaction:TYR:89>  (76) 
hydroph_interaction:TYR:89    0.0
hydroph_interaction:TYR:89      0
Name: 74, dtype: object

>  <pistack:TYR:89>  (76) 
pistack:TYR:89    NaN
pistack:TYR:89     -1
Name: 74, dtype: object

>  <hbond:TYR:89>  (76) 
hbond:TYR:89    NaN
hbond:TYR:89     -1
Name: 74, dtype: object

>  <halogenbond:TYR:89>  (76) 
halogenbond:TYR:89    NaN
halogenbond:TYR:89     -1
Name: 74, dtype: object

>  <hydroph_interaction:TYR:90>  (76) 
hydroph_interaction:TYR:90    0.0
hydroph_interaction:TYR:90      0
Name: 74, dtype: object

>  <hbond:TYR:90>  (76) 
hbond:TYR:90    NaN
hbond:TYR:90     -1
Name: 74, dtype: object

>  <pistack:TYR:90>  (76) 
pistack:TYR:90    NaN
pistack:TYR:90     -1
Name: 74, dtype: object

>  <halogenbond:TYR:90>  (76) 
halogenbond:TYR:90    NaN
halogenbond:TYR:90     -1
Name: 74, dtype: object

>  <pication:TYR:90>  (76) 
pication:TYR:90    NaN
pication:TYR:90     -1
Name: 74, dtype: object

>  <hbond:PRO:91>  (76) 
hbond:PRO:91    NaN
hbond:PRO:91     -1
Name: 74, dtype: object

>  <hydroph_interaction:PRO:91>  (76) 
hydroph_interaction:PRO:91    NaN
hydroph_interaction:PRO:91     -1
Name: 74, dtype: object

>  <halogenbond:PRO:91>  (76) 
halogenbond:PRO:91    NaN
halogenbond:PRO:91     -1
Name: 74, dtype: object

>  <hbond:ALA:92>  (76) 
hbond:ALA:92    NaN
hbond:ALA:92     -1
Name: 74, dtype: object

>  <hydroph_interaction:ALA:92>  (76) 
hydroph_interaction:ALA:92    NaN
hydroph_interaction:ALA:92     -1
Name: 74, dtype: object

>  <saltbridge:ARG:93>  (76) 
saltbridge:ARG:93    NaN
saltbridge:ARG:93     -1
Name: 74, dtype: object

>  <hbond:ARG:93>  (76) 
hbond:ARG:93    NaN
hbond:ARG:93     -1
Name: 74, dtype: object

>  <hydroph_interaction:ARG:93>  (76) 
hydroph_interaction:ARG:93    NaN
hydroph_interaction:ARG:93     -1
Name: 74, dtype: object

>  <halogenbond:ARG:93>  (76) 
halogenbond:ARG:93    NaN
halogenbond:ARG:93     -1
Name: 74, dtype: object

>  <pication:ARG:93>  (76) 
pication:ARG:93    NaN
pication:ARG:93     -1
Name: 74, dtype: object

>  <hydroph_interaction:TYR:94>  (76) 
hydroph_interaction:TYR:94    NaN
hydroph_interaction:TYR:94     -1
Name: 74, dtype: object

>  <pistack:TYR:94>  (76) 
pistack:TYR:94    NaN
pistack:TYR:94     -1
Name: 74, dtype: object

>  <hbond:TYR:94>  (76) 
hbond:TYR:94    NaN
hbond:TYR:94     -1
Name: 74, dtype: object

>  <hbond:GLN:95>  (76) 
hbond:GLN:95    NaN
hbond:GLN:95     -1
Name: 74, dtype: object

>  <hydroph_interaction:GLN:95>  (76) 
hydroph_interaction:GLN:95    NaN
hydroph_interaction:GLN:95     -1
Name: 74, dtype: object

>  <halogenbond:GLN:95>  (76) 
halogenbond:GLN:95    NaN
halogenbond:GLN:95     -1
Name: 74, dtype: object

>  <hbond:SER:96>  (76) 
hbond:SER:96    NaN
hbond:SER:96     -1
Name: 74, dtype: object

>  <halogenbond:HIS:97>  (76) 
halogenbond:HIS:97    NaN
halogenbond:HIS:97     -1
Name: 74, dtype: object

>  <hydroph_interaction:LEU:98>  (76) 
hydroph_interaction:LEU:98    NaN
hydroph_interaction:LEU:98     -1
Name: 74, dtype: object

>  <hbond:LEU:98>  (76) 
hbond:LEU:98    NaN
hbond:LEU:98     -1
Name: 74, dtype: object

>  <halogenbond:LEU:98>  (76) 
halogenbond:LEU:98    NaN
halogenbond:LEU:98     -1
Name: 74, dtype: object

>  <hbond:MET:99>  (76) 
hbond:MET:99    NaN
hbond:MET:99     -1
Name: 74, dtype: object

>  <hydroph_interaction:MET:99>  (76) 
hydroph_interaction:MET:99    NaN
hydroph_interaction:MET:99     -1
Name: 74, dtype: object

>  <halogenbond:MET:99>  (76) 
halogenbond:MET:99    NaN
halogenbond:MET:99     -1
Name: 74, dtype: object

>  <hydroph_interaction:LEU:100>  (76) 
hydroph_interaction:LEU:100    NaN
hydroph_interaction:LEU:100     -1
Name: 74, dtype: object

>  <hbond:LEU:100>  (76) 
hbond:LEU:100    NaN
hbond:LEU:100     -1
Name: 74, dtype: object

>  <hbond:ALA:101>  (76) 
hbond:ALA:101    NaN
hbond:ALA:101     -1
Name: 74, dtype: object

>  <hydroph_interaction:ALA:101>  (76) 
hydroph_interaction:ALA:101    NaN
hydroph_interaction:ALA:101     -1
Name: 74, dtype: object

>  <hydroph_interaction:VAL:102>  (76) 
hydroph_interaction:VAL:102    NaN
hydroph_interaction:VAL:102     -1
Name: 74, dtype: object

>  <hbond:VAL:102>  (76) 
hbond:VAL:102    NaN
hbond:VAL:102     -1
Name: 74, dtype: object

>  <hbond:GLY:103>  (76) 
hbond:GLY:103    NaN
hbond:GLY:103     -1
Name: 74, dtype: object

>  <halogenbond:GLY:103>  (76) 
halogenbond:GLY:103    NaN
halogenbond:GLY:103     -1
Name: 74, dtype: object

>  <hbond:HIS:104>  (76) 
hbond:HIS:104    NaN
hbond:HIS:104     -1
Name: 74, dtype: object

>  <saltbridge:HIS:104>  (76) 
saltbridge:HIS:104    NaN
saltbridge:HIS:104     -1
Name: 74, dtype: object

>  <pication:HIS:104>  (76) 
pication:HIS:104    NaN
pication:HIS:104     -1
Name: 74, dtype: object

>  <halogenbond:HIS:104>  (76) 
halogenbond:HIS:104    NaN
halogenbond:HIS:104     -1
Name: 74, dtype: object

>  <hydroph_interaction:HIS:104>  (76) 
hydroph_interaction:HIS:104    NaN
hydroph_interaction:HIS:104     -1
Name: 74, dtype: object

>  <pistack:HIS:104>  (76) 
pistack:HIS:104    NaN
pistack:HIS:104     -1
Name: 74, dtype: object

>  <halogenbond:SER:105>  (76) 
halogenbond:SER:105    0.0
halogenbond:SER:105      0
Name: 74, dtype: object

>  <hbond:SER:105>  (76) 
hbond:SER:105    0.0
hbond:SER:105      0
Name: 74, dtype: object

>  <hbond:GLU:106>  (76) 
hbond:GLU:106    0.0
hbond:GLU:106      0
Name: 74, dtype: object

>  <hydroph_interaction:GLU:106>  (76) 
hydroph_interaction:GLU:106    NaN
hydroph_interaction:GLU:106     -1
Name: 74, dtype: object

>  <saltbridge:GLU:106>  (76) 
saltbridge:GLU:106    NaN
saltbridge:GLU:106     -1
Name: 74, dtype: object

>  <halogenbond:GLU:106>  (76) 
halogenbond:GLU:106    NaN
halogenbond:GLU:106     -1
Name: 74, dtype: object

>  <hydroph_interaction:PRO:107>  (76) 
hydroph_interaction:PRO:107    0
hydroph_interaction:PRO:107    0
Name: 74, dtype: object

>  <hbond:PRO:107>  (76) 
hbond:PRO:107    NaN
hbond:PRO:107     -1
Name: 74, dtype: object

>  <halogenbond:PRO:107>  (76) 
halogenbond:PRO:107    NaN
halogenbond:PRO:107     -1
Name: 74, dtype: object

>  <hbond:GLY:108>  (76) 
hbond:GLY:108    NaN
hbond:GLY:108     -1
Name: 74, dtype: object

>  <halogenbond:GLY:108>  (76) 
halogenbond:GLY:108    NaN
halogenbond:GLY:108     -1
Name: 74, dtype: object

>  <hbond:ASP:109>  (76) 
hbond:ASP:109    0.0
hbond:ASP:109      0
Name: 74, dtype: object

>  <hydroph_interaction:ASP:109>  (76) 
hydroph_interaction:ASP:109    0.0
hydroph_interaction:ASP:109      0
Name: 74, dtype: object

>  <saltbridge:ASP:109>  (76) 
saltbridge:ASP:109    NaN
saltbridge:ASP:109     -1
Name: 74, dtype: object

>  <halogenbond:CYS:110>  (76) 
halogenbond:CYS:110    NaN
halogenbond:CYS:110     -1
Name: 74, dtype: object

>  <hbond:CYS:110>  (76) 
hbond:CYS:110    NaN
hbond:CYS:110     -1
Name: 74, dtype: object

>  <hbond:GLY:111>  (76) 
hbond:GLY:111    NaN
hbond:GLY:111     -1
Name: 74, dtype: object

>  <hbond:GLY:112>  (76) 
hbond:GLY:112    NaN
hbond:GLY:112     -1
Name: 74, dtype: object

>  <hbond:ILE:113>  (76) 
hbond:ILE:113    NaN
hbond:ILE:113     -1
Name: 74, dtype: object

>  <hydroph_interaction:LEU:114>  (76) 
hydroph_interaction:LEU:114    NaN
hydroph_interaction:LEU:114     -1
Name: 74, dtype: object

>  <hbond:LEU:114>  (76) 
hbond:LEU:114    NaN
hbond:LEU:114     -1
Name: 74, dtype: object

>  <hydroph_interaction:ILE:123>  (76) 
hydroph_interaction:ILE:123    NaN
hydroph_interaction:ILE:123     -1
Name: 74, dtype: object

>  <hbond:ILE:123>  (76) 
hbond:ILE:123    NaN
hbond:ILE:123     -1
Name: 74, dtype: object

>  <hydroph_interaction:VAL:124>  (76) 
hydroph_interaction:VAL:124    1.0
hydroph_interaction:VAL:124      1
Name: 74, dtype: object

>  <hbond:VAL:124>  (76) 
hbond:VAL:124    NaN
hbond:VAL:124     -1
Name: 74, dtype: object

>  <halogenbond:VAL:124>  (76) 
halogenbond:VAL:124    NaN
halogenbond:VAL:124     -1
Name: 74, dtype: object

>  <hbond:SER:125>  (76) 
hbond:SER:125    0
hbond:SER:125    0
Name: 74, dtype: object

>  <halogenbond:SER:125>  (76) 
halogenbond:SER:125    NaN
halogenbond:SER:125     -1
Name: 74, dtype: object

>  <hydroph_interaction:THR:126>  (76) 
hydroph_interaction:THR:126    NaN
hydroph_interaction:THR:126     -1
Name: 74, dtype: object

>  <hbond:THR:126>  (76) 
hbond:THR:126    0.0
hbond:THR:126      0
Name: 74, dtype: object

>  <halogenbond:THR:126>  (76) 
halogenbond:THR:126    NaN
halogenbond:THR:126     -1
Name: 74, dtype: object

>  <hbond:GLY:127>  (76) 
hbond:GLY:127    0
hbond:GLY:127    0
Name: 74, dtype: object

>  <halogenbond:GLY:127>  (76) 
halogenbond:GLY:127    0.0
halogenbond:GLY:127      0
Name: 74, dtype: object

>  <hydroph_interaction:GLY:127>  (76) 
hydroph_interaction:GLY:127    NaN
hydroph_interaction:GLY:127     -1
Name: 74, dtype: object

>  <hbond:GLY:128>  (76) 
hbond:GLY:128    NaN
hbond:GLY:128     -1
Name: 74, dtype: object

>  <halogenbond:GLY:128>  (76) 
halogenbond:GLY:128    NaN
halogenbond:GLY:128     -1
Name: 74, dtype: object

>  <hydroph_interaction:GLY:128>  (76) 
hydroph_interaction:GLY:128    NaN
hydroph_interaction:GLY:128     -1
Name: 74, dtype: object

>  <hbond:ASN:129>  (76) 
hbond:ASN:129    NaN
hbond:ASN:129     -1
Name: 74, dtype: object

>  <hydroph_interaction:ASN:129>  (76) 
hydroph_interaction:ASN:129    NaN
hydroph_interaction:ASN:129     -1
Name: 74, dtype: object

>  <halogenbond:ASN:129>  (76) 
halogenbond:ASN:129    NaN
halogenbond:ASN:129     -1
Name: 74, dtype: object

>  <hbond:GLY:130>  (76) 
hbond:GLY:130    NaN
hbond:GLY:130     -1
Name: 74, dtype: object

>  <hbond:LEU:131>  (76) 
hbond:LEU:131    NaN
hbond:LEU:131     -1
Name: 74, dtype: object

>  <hydroph_interaction:LEU:131>  (76) 
hydroph_interaction:LEU:131    NaN
hydroph_interaction:LEU:131     -1
Name: 74, dtype: object

>  <halogenbond:LEU:131>  (76) 
halogenbond:LEU:131    NaN
halogenbond:LEU:131     -1
Name: 74, dtype: object

>  <hydroph_interaction:VAL:132>  (76) 
hydroph_interaction:VAL:132    NaN
hydroph_interaction:VAL:132     -1
Name: 74, dtype: object

>  <hbond:VAL:132>  (76) 
hbond:VAL:132    NaN
hbond:VAL:132     -1
Name: 74, dtype: object

>  <hbond:GLY:133>  (76) 
hbond:GLY:133    NaN
hbond:GLY:133     -1
Name: 74, dtype: object

>  <halogenbond:GLY:133>  (76) 
halogenbond:GLY:133    NaN
halogenbond:GLY:133     -1
Name: 74, dtype: object

>  <hydroph_interaction:PHE:134>  (76) 
hydroph_interaction:PHE:134    NaN
hydroph_interaction:PHE:134     -1
Name: 74, dtype: object

>  <hbond:PHE:134>  (76) 
hbond:PHE:134    NaN
hbond:PHE:134     -1
Name: 74, dtype: object

>  <pistack:PHE:134>  (76) 
pistack:PHE:134    NaN
pistack:PHE:134     -1
Name: 74, dtype: object

>  <pication:PHE:134>  (76) 
pication:PHE:134    NaN
pication:PHE:134     -1
Name: 74, dtype: object

>  <halogenbond:PHE:134>  (76) 
halogenbond:PHE:134    NaN
halogenbond:PHE:134     -1
Name: 74, dtype: object

>  <hydroph_interaction:ALA:135>  (76) 
hydroph_interaction:ALA:135    NaN
hydroph_interaction:ALA:135     -1
Name: 74, dtype: object

>  <hbond:ALA:135>  (76) 
hbond:ALA:135    NaN
hbond:ALA:135     -1
Name: 74, dtype: object

$$$$
PV_002369965275
     RDKit          3D

 11 11  0  0  0  0  0  0  0  0999 V2000
   30.3403    8.8364    8.7848 C   0  0  0  0  0  0  0  0  0  0  0  0
   31.1576    9.4452    7.9100 C   0  0  0  0  0  0  0  0  0  0  0  0
   32.1636    8.8425    7.0340 C   0  0  0  0  0  0  0  0  0  0  0  0
   33.0246    9.9079    6.0467 S   0  0  0  0  0  0  0  0  0  0  0  0
   32.1579   11.2258    6.6906 C   0  0  0  0  0  0  0  0  0  0  0  0
   32.5299   12.7691    6.1080 Cl  0  0  0  0  0  0  0  0  0  0  0  0
   31.2085   10.8998    7.6511 C   0  0  0  0  0  0  0  0  0  0  0  0
   30.4022   11.7831    8.2956 N   0  0  0  0  0  0  0  0  0  0  0  0
   29.5459   12.6921    7.6001 C   0  0  0  0  0  0  0  0  0  0  0  0
   28.6493   13.2183    8.4549 N   0  0  0  0  0  0  0  0  0  0  0  0
   29.5757   13.0040    6.4185 O   0  0  0  0  0  0  0  0  0  0  0  0
  1  2  1  0
  2  3  2  0
  3  4  1  0
  4  5  1  0
  5  6  1  0
  5  7  2  0
  7  8  1  0
  8  9  1  0
  9 10  1  0
  9 11  2  0
  7  2  1  0
A    1
 C1 
A    2
 C2 
A    3
 C3 
A    4
 S1 
A    5
 C4 
A    6
CL1 
A    7
 C5 
A    8
 N1 
A    9
 C6 
A   10
 N2 
A   11
 O1 
M  END
>  <ref_pdb>  (77) 
Ax0310a

>  <ref_mols>  (77) 
Ax0310a,Ax0416a,Ax0416a

>  <original SMILES>  (77) 
Cc1csc(Cl)c1NC(N)=O

>  <rationale>  (77) 
info halogenbond:G127+D39+E85+Q95+E106+E88+T126+P107+H104+Y64+C65+S87+N129+F83+R93+L131+I82+G128+P91+N19+H21+V84+G133+Y90+Y89+H97+L81+F134+L98+R20+G103+S66+S67+S7+G108+R38+V124+M99+S36; hbond:S125+G127+E85+G108+G103+G128+L131+N129+R68+V124+P91+F83+S67+S7+S66+G112+G133+V132+R20+Y89+S77+A135+Y63+A92+A101+M99+F134+L100+I82+Y64+S36+L98+V84+L81+Y94+S80+R38+S37+V102+G8+I123+G111+I113+L114+C65+L22+S96; hydroph_interaction:V84+V124+T126+L22+E85+N129+N19+L40+I123+A135+Q95+I82+L100+L98+L131+F83+R93+V132+Y63+F134+R20+A86+V74+P91+A101+F76+M99+L114+A92+Y94+R68+Y72+Y64+V18+V102+W28+G127+G128+L81; pication:H104+R93+Y63+F134+Y90+R68+F83+R20; pistack:H21+Y89+Y90+H104+F134+Y63+F83+Y94; saltbridge:R93+H104+E106+D109+E85+R68+R20; 

>  <intxn_cluster>  (77) 
-1

>  <intxn_cluster_rank>  (77) 
-1

>  <N_interactions>  (77) 
4

>  <∆∆G>  (77) 
-8.964763

>  <$/mg>  (77) 
163.0

>  <comRMSD>  (77) 
0.655261

>  <N_rotatable_bonds>  (77) 
2

>  <deep_P1_sidechain>  (77) 
nan

>  <farthest_distance_to_substrate>  (77) 
2.349838

>  <hbond:SER:7>  (77) 
hbond:SER:7    NaN
hbond:SER:7     -1
Name: 75, dtype: object

>  <halogenbond:SER:7>  (77) 
halogenbond:SER:7    NaN
halogenbond:SER:7     -1
Name: 75, dtype: object

>  <hbond:GLY:8>  (77) 
hbond:GLY:8    NaN
hbond:GLY:8     -1
Name: 75, dtype: object

>  <hydroph_interaction:VAL:18>  (77) 
hydroph_interaction:VAL:18    NaN
hydroph_interaction:VAL:18     -1
Name: 75, dtype: object

>  <hbond:ASN:19>  (77) 
hbond:ASN:19    0.0
hbond:ASN:19      0
Name: 75, dtype: object

>  <hydroph_interaction:ASN:19>  (77) 
hydroph_interaction:ASN:19    NaN
hydroph_interaction:ASN:19     -1
Name: 75, dtype: object

>  <halogenbond:ASN:19>  (77) 
halogenbond:ASN:19    NaN
halogenbond:ASN:19     -1
Name: 75, dtype: object

>  <hbond:ARG:20>  (77) 
hbond:ARG:20    NaN
hbond:ARG:20     -1
Name: 75, dtype: object

>  <hydroph_interaction:ARG:20>  (77) 
hydroph_interaction:ARG:20    NaN
hydroph_interaction:ARG:20     -1
Name: 75, dtype: object

>  <saltbridge:ARG:20>  (77) 
saltbridge:ARG:20    NaN
saltbridge:ARG:20     -1
Name: 75, dtype: object

>  <halogenbond:ARG:20>  (77) 
halogenbond:ARG:20    NaN
halogenbond:ARG:20     -1
Name: 75, dtype: object

>  <pication:ARG:20>  (77) 
pication:ARG:20    NaN
pication:ARG:20     -1
Name: 75, dtype: object

>  <hbond:HIS:21>  (77) 
hbond:HIS:21    0.0
hbond:HIS:21      0
Name: 75, dtype: object

>  <hydroph_interaction:HIS:21>  (77) 
hydroph_interaction:HIS:21    0.0
hydroph_interaction:HIS:21      0
Name: 75, dtype: object

>  <pistack:HIS:21>  (77) 
pistack:HIS:21    NaN
pistack:HIS:21     -1
Name: 75, dtype: object

>  <pication:HIS:21>  (77) 
pication:HIS:21    0.0
pication:HIS:21      0
Name: 75, dtype: object

>  <saltbridge:HIS:21>  (77) 
saltbridge:HIS:21    0.0
saltbridge:HIS:21      0
Name: 75, dtype: object

>  <halogenbond:HIS:21>  (77) 
halogenbond:HIS:21    NaN
halogenbond:HIS:21     -1
Name: 75, dtype: object

>  <hydroph_interaction:LEU:22>  (77) 
hydroph_interaction:LEU:22    NaN
hydroph_interaction:LEU:22     -1
Name: 75, dtype: object

>  <hbond:LEU:22>  (77) 
hbond:LEU:22    NaN
hbond:LEU:22     -1
Name: 75, dtype: object

>  <hydroph_interaction:TRP:28>  (77) 
hydroph_interaction:TRP:28    NaN
hydroph_interaction:TRP:28     -1
Name: 75, dtype: object

>  <hbond:SER:36>  (77) 
hbond:SER:36    NaN
hbond:SER:36     -1
Name: 75, dtype: object

>  <halogenbond:SER:36>  (77) 
halogenbond:SER:36    NaN
halogenbond:SER:36     -1
Name: 75, dtype: object

>  <hbond:SER:37>  (77) 
hbond:SER:37    NaN
hbond:SER:37     -1
Name: 75, dtype: object

>  <hbond:ARG:38>  (77) 
hbond:ARG:38    NaN
hbond:ARG:38     -1
Name: 75, dtype: object

>  <halogenbond:ARG:38>  (77) 
halogenbond:ARG:38    NaN
halogenbond:ARG:38     -1
Name: 75, dtype: object

>  <saltbridge:ASP:39>  (77) 
saltbridge:ASP:39    0.0
saltbridge:ASP:39      0
Name: 75, dtype: object

>  <halogenbond:ASP:39>  (77) 
halogenbond:ASP:39    NaN
halogenbond:ASP:39     -1
Name: 75, dtype: object

>  <hbond:ASP:39>  (77) 
hbond:ASP:39    0.0
hbond:ASP:39      0
Name: 75, dtype: object

>  <hydroph_interaction:ASP:39>  (77) 
hydroph_interaction:ASP:39    0.0
hydroph_interaction:ASP:39      0
Name: 75, dtype: object

>  <hydroph_interaction:LEU:40>  (77) 
hydroph_interaction:LEU:40    NaN
hydroph_interaction:LEU:40     -1
Name: 75, dtype: object

>  <hydroph_interaction:TYR:63>  (77) 
hydroph_interaction:TYR:63    NaN
hydroph_interaction:TYR:63     -1
Name: 75, dtype: object

>  <hbond:TYR:63>  (77) 
hbond:TYR:63    NaN
hbond:TYR:63     -1
Name: 75, dtype: object

>  <pistack:TYR:63>  (77) 
pistack:TYR:63    NaN
pistack:TYR:63     -1
Name: 75, dtype: object

>  <pication:TYR:63>  (77) 
pication:TYR:63    NaN
pication:TYR:63     -1
Name: 75, dtype: object

>  <halogenbond:TYR:64>  (77) 
halogenbond:TYR:64    NaN
halogenbond:TYR:64     -1
Name: 75, dtype: object

>  <hbond:TYR:64>  (77) 
hbond:TYR:64    NaN
hbond:TYR:64     -1
Name: 75, dtype: object

>  <hydroph_interaction:TYR:64>  (77) 
hydroph_interaction:TYR:64    NaN
hydroph_interaction:TYR:64     -1
Name: 75, dtype: object

>  <halogenbond:CYS:65>  (77) 
halogenbond:CYS:65    NaN
halogenbond:CYS:65     -1
Name: 75, dtype: object

>  <hbond:CYS:65>  (77) 
hbond:CYS:65    NaN
hbond:CYS:65     -1
Name: 75, dtype: object

>  <hbond:SER:66>  (77) 
hbond:SER:66    NaN
hbond:SER:66     -1
Name: 75, dtype: object

>  <halogenbond:SER:66>  (77) 
halogenbond:SER:66    NaN
halogenbond:SER:66     -1
Name: 75, dtype: object

>  <hbond:SER:67>  (77) 
hbond:SER:67    NaN
hbond:SER:67     -1
Name: 75, dtype: object

>  <halogenbond:SER:67>  (77) 
halogenbond:SER:67    NaN
halogenbond:SER:67     -1
Name: 75, dtype: object

>  <hbond:ARG:68>  (77) 
hbond:ARG:68    NaN
hbond:ARG:68     -1
Name: 75, dtype: object

>  <saltbridge:ARG:68>  (77) 
saltbridge:ARG:68    NaN
saltbridge:ARG:68     -1
Name: 75, dtype: object

>  <hydroph_interaction:ARG:68>  (77) 
hydroph_interaction:ARG:68    NaN
hydroph_interaction:ARG:68     -1
Name: 75, dtype: object

>  <pication:ARG:68>  (77) 
pication:ARG:68    NaN
pication:ARG:68     -1
Name: 75, dtype: object

>  <hydroph_interaction:TYR:72>  (77) 
hydroph_interaction:TYR:72    NaN
hydroph_interaction:TYR:72     -1
Name: 75, dtype: object

>  <hydroph_interaction:VAL:74>  (77) 
hydroph_interaction:VAL:74    NaN
hydroph_interaction:VAL:74     -1
Name: 75, dtype: object

>  <hydroph_interaction:PHE:76>  (77) 
hydroph_interaction:PHE:76    NaN
hydroph_interaction:PHE:76     -1
Name: 75, dtype: object

>  <hbond:SER:77>  (77) 
hbond:SER:77    NaN
hbond:SER:77     -1
Name: 75, dtype: object

>  <hbond:SER:80>  (77) 
hbond:SER:80    NaN
hbond:SER:80     -1
Name: 75, dtype: object

>  <hbond:LEU:81>  (77) 
hbond:LEU:81    NaN
hbond:LEU:81     -1
Name: 75, dtype: object

>  <halogenbond:LEU:81>  (77) 
halogenbond:LEU:81    NaN
halogenbond:LEU:81     -1
Name: 75, dtype: object

>  <hydroph_interaction:LEU:81>  (77) 
hydroph_interaction:LEU:81    NaN
hydroph_interaction:LEU:81     -1
Name: 75, dtype: object

>  <hydroph_interaction:ILE:82>  (77) 
hydroph_interaction:ILE:82    NaN
hydroph_interaction:ILE:82     -1
Name: 75, dtype: object

>  <halogenbond:ILE:82>  (77) 
halogenbond:ILE:82    NaN
halogenbond:ILE:82     -1
Name: 75, dtype: object

>  <hbond:ILE:82>  (77) 
hbond:ILE:82    NaN
hbond:ILE:82     -1
Name: 75, dtype: object

>  <hbond:PHE:83>  (77) 
hbond:PHE:83    NaN
hbond:PHE:83     -1
Name: 75, dtype: object

>  <hydroph_interaction:PHE:83>  (77) 
hydroph_interaction:PHE:83    NaN
hydroph_interaction:PHE:83     -1
Name: 75, dtype: object

>  <halogenbond:PHE:83>  (77) 
halogenbond:PHE:83    NaN
halogenbond:PHE:83     -1
Name: 75, dtype: object

>  <pistack:PHE:83>  (77) 
pistack:PHE:83    NaN
pistack:PHE:83     -1
Name: 75, dtype: object

>  <pication:PHE:83>  (77) 
pication:PHE:83    NaN
pication:PHE:83     -1
Name: 75, dtype: object

>  <hydroph_interaction:VAL:84>  (77) 
hydroph_interaction:VAL:84    NaN
hydroph_interaction:VAL:84     -1
Name: 75, dtype: object

>  <halogenbond:VAL:84>  (77) 
halogenbond:VAL:84    NaN
halogenbond:VAL:84     -1
Name: 75, dtype: object

>  <hbond:VAL:84>  (77) 
hbond:VAL:84    NaN
hbond:VAL:84     -1
Name: 75, dtype: object

>  <hydroph_interaction:GLU:85>  (77) 
hydroph_interaction:GLU:85    NaN
hydroph_interaction:GLU:85     -1
Name: 75, dtype: object

>  <hbond:GLU:85>  (77) 
hbond:GLU:85    NaN
hbond:GLU:85     -1
Name: 75, dtype: object

>  <halogenbond:GLU:85>  (77) 
halogenbond:GLU:85    NaN
halogenbond:GLU:85     -1
Name: 75, dtype: object

>  <saltbridge:GLU:85>  (77) 
saltbridge:GLU:85    NaN
saltbridge:GLU:85     -1
Name: 75, dtype: object

>  <halogenbond:ALA:86>  (77) 
halogenbond:ALA:86    0.0
halogenbond:ALA:86      0
Name: 75, dtype: object

>  <hbond:ALA:86>  (77) 
hbond:ALA:86    0.0
hbond:ALA:86      0
Name: 75, dtype: object

>  <hydroph_interaction:ALA:86>  (77) 
hydroph_interaction:ALA:86    NaN
hydroph_interaction:ALA:86     -1
Name: 75, dtype: object

>  <hbond:SER:87>  (77) 
hbond:SER:87    0
hbond:SER:87    0
Name: 75, dtype: object

>  <halogenbond:SER:87>  (77) 
halogenbond:SER:87    NaN
halogenbond:SER:87     -1
Name: 75, dtype: object

>  <hbond:GLU:88>  (77) 
hbond:GLU:88    0.0
hbond:GLU:88      0
Name: 75, dtype: object

>  <hydroph_interaction:GLU:88>  (77) 
hydroph_interaction:GLU:88    0.0
hydroph_interaction:GLU:88      0
Name: 75, dtype: object

>  <halogenbond:GLU:88>  (77) 
halogenbond:GLU:88    NaN
halogenbond:GLU:88     -1
Name: 75, dtype: object

>  <saltbridge:GLU:88>  (77) 
saltbridge:GLU:88    0.0
saltbridge:GLU:88      0
Name: 75, dtype: object

>  <hydroph_interaction:TYR:89>  (77) 
hydroph_interaction:TYR:89    0.0
hydroph_interaction:TYR:89      0
Name: 75, dtype: object

>  <pistack:TYR:89>  (77) 
pistack:TYR:89    NaN
pistack:TYR:89     -1
Name: 75, dtype: object

>  <hbond:TYR:89>  (77) 
hbond:TYR:89    NaN
hbond:TYR:89     -1
Name: 75, dtype: object

>  <halogenbond:TYR:89>  (77) 
halogenbond:TYR:89    NaN
halogenbond:TYR:89     -1
Name: 75, dtype: object

>  <hydroph_interaction:TYR:90>  (77) 
hydroph_interaction:TYR:90    0.0
hydroph_interaction:TYR:90      0
Name: 75, dtype: object

>  <hbond:TYR:90>  (77) 
hbond:TYR:90    0.0
hbond:TYR:90      0
Name: 75, dtype: object

>  <pistack:TYR:90>  (77) 
pistack:TYR:90    NaN
pistack:TYR:90     -1
Name: 75, dtype: object

>  <halogenbond:TYR:90>  (77) 
halogenbond:TYR:90    NaN
halogenbond:TYR:90     -1
Name: 75, dtype: object

>  <pication:TYR:90>  (77) 
pication:TYR:90    NaN
pication:TYR:90     -1
Name: 75, dtype: object

>  <hbond:PRO:91>  (77) 
hbond:PRO:91    NaN
hbond:PRO:91     -1
Name: 75, dtype: object

>  <hydroph_interaction:PRO:91>  (77) 
hydroph_interaction:PRO:91    NaN
hydroph_interaction:PRO:91     -1
Name: 75, dtype: object

>  <halogenbond:PRO:91>  (77) 
halogenbond:PRO:91    NaN
halogenbond:PRO:91     -1
Name: 75, dtype: object

>  <hbond:ALA:92>  (77) 
hbond:ALA:92    NaN
hbond:ALA:92     -1
Name: 75, dtype: object

>  <hydroph_interaction:ALA:92>  (77) 
hydroph_interaction:ALA:92    NaN
hydroph_interaction:ALA:92     -1
Name: 75, dtype: object

>  <saltbridge:ARG:93>  (77) 
saltbridge:ARG:93    NaN
saltbridge:ARG:93     -1
Name: 75, dtype: object

>  <hbond:ARG:93>  (77) 
hbond:ARG:93    0.0
hbond:ARG:93      0
Name: 75, dtype: object

>  <hydroph_interaction:ARG:93>  (77) 
hydroph_interaction:ARG:93    NaN
hydroph_interaction:ARG:93     -1
Name: 75, dtype: object

>  <halogenbond:ARG:93>  (77) 
halogenbond:ARG:93    NaN
halogenbond:ARG:93     -1
Name: 75, dtype: object

>  <pication:ARG:93>  (77) 
pication:ARG:93    NaN
pication:ARG:93     -1
Name: 75, dtype: object

>  <hydroph_interaction:TYR:94>  (77) 
hydroph_interaction:TYR:94    NaN
hydroph_interaction:TYR:94     -1
Name: 75, dtype: object

>  <pistack:TYR:94>  (77) 
pistack:TYR:94    NaN
pistack:TYR:94     -1
Name: 75, dtype: object

>  <hbond:TYR:94>  (77) 
hbond:TYR:94    NaN
hbond:TYR:94     -1
Name: 75, dtype: object

>  <hbond:GLN:95>  (77) 
hbond:GLN:95    0.0
hbond:GLN:95      0
Name: 75, dtype: object

>  <hydroph_interaction:GLN:95>  (77) 
hydroph_interaction:GLN:95    NaN
hydroph_interaction:GLN:95     -1
Name: 75, dtype: object

>  <halogenbond:GLN:95>  (77) 
halogenbond:GLN:95    NaN
halogenbond:GLN:95     -1
Name: 75, dtype: object

>  <hbond:SER:96>  (77) 
hbond:SER:96    NaN
hbond:SER:96     -1
Name: 75, dtype: object

>  <halogenbond:HIS:97>  (77) 
halogenbond:HIS:97    NaN
halogenbond:HIS:97     -1
Name: 75, dtype: object

>  <hydroph_interaction:LEU:98>  (77) 
hydroph_interaction:LEU:98    NaN
hydroph_interaction:LEU:98     -1
Name: 75, dtype: object

>  <hbond:LEU:98>  (77) 
hbond:LEU:98    NaN
hbond:LEU:98     -1
Name: 75, dtype: object

>  <halogenbond:LEU:98>  (77) 
halogenbond:LEU:98    NaN
halogenbond:LEU:98     -1
Name: 75, dtype: object

>  <hbond:MET:99>  (77) 
hbond:MET:99    NaN
hbond:MET:99     -1
Name: 75, dtype: object

>  <hydroph_interaction:MET:99>  (77) 
hydroph_interaction:MET:99    NaN
hydroph_interaction:MET:99     -1
Name: 75, dtype: object

>  <halogenbond:MET:99>  (77) 
halogenbond:MET:99    NaN
halogenbond:MET:99     -1
Name: 75, dtype: object

>  <hydroph_interaction:LEU:100>  (77) 
hydroph_interaction:LEU:100    NaN
hydroph_interaction:LEU:100     -1
Name: 75, dtype: object

>  <hbond:LEU:100>  (77) 
hbond:LEU:100    NaN
hbond:LEU:100     -1
Name: 75, dtype: object

>  <hbond:ALA:101>  (77) 
hbond:ALA:101    NaN
hbond:ALA:101     -1
Name: 75, dtype: object

>  <hydroph_interaction:ALA:101>  (77) 
hydroph_interaction:ALA:101    NaN
hydroph_interaction:ALA:101     -1
Name: 75, dtype: object

>  <hydroph_interaction:VAL:102>  (77) 
hydroph_interaction:VAL:102    NaN
hydroph_interaction:VAL:102     -1
Name: 75, dtype: object

>  <hbond:VAL:102>  (77) 
hbond:VAL:102    NaN
hbond:VAL:102     -1
Name: 75, dtype: object

>  <hbond:GLY:103>  (77) 
hbond:GLY:103    NaN
hbond:GLY:103     -1
Name: 75, dtype: object

>  <halogenbond:GLY:103>  (77) 
halogenbond:GLY:103    NaN
halogenbond:GLY:103     -1
Name: 75, dtype: object

>  <hbond:HIS:104>  (77) 
hbond:HIS:104    0.0
hbond:HIS:104      0
Name: 75, dtype: object

>  <saltbridge:HIS:104>  (77) 
saltbridge:HIS:104    NaN
saltbridge:HIS:104     -1
Name: 75, dtype: object

>  <pication:HIS:104>  (77) 
pication:HIS:104    NaN
pication:HIS:104     -1
Name: 75, dtype: object

>  <halogenbond:HIS:104>  (77) 
halogenbond:HIS:104    NaN
halogenbond:HIS:104     -1
Name: 75, dtype: object

>  <hydroph_interaction:HIS:104>  (77) 
hydroph_interaction:HIS:104    0.0
hydroph_interaction:HIS:104      0
Name: 75, dtype: object

>  <pistack:HIS:104>  (77) 
pistack:HIS:104    NaN
pistack:HIS:104     -1
Name: 75, dtype: object

>  <halogenbond:SER:105>  (77) 
halogenbond:SER:105    0.0
halogenbond:SER:105      0
Name: 75, dtype: object

>  <hbond:SER:105>  (77) 
hbond:SER:105    0.0
hbond:SER:105      0
Name: 75, dtype: object

>  <hbond:GLU:106>  (77) 
hbond:GLU:106    0.0
hbond:GLU:106      0
Name: 75, dtype: object

>  <hydroph_interaction:GLU:106>  (77) 
hydroph_interaction:GLU:106    0.0
hydroph_interaction:GLU:106      0
Name: 75, dtype: object

>  <saltbridge:GLU:106>  (77) 
saltbridge:GLU:106    NaN
saltbridge:GLU:106     -1
Name: 75, dtype: object

>  <halogenbond:GLU:106>  (77) 
halogenbond:GLU:106    NaN
halogenbond:GLU:106     -1
Name: 75, dtype: object

>  <hydroph_interaction:PRO:107>  (77) 
hydroph_interaction:PRO:107    0
hydroph_interaction:PRO:107    0
Name: 75, dtype: object

>  <hbond:PRO:107>  (77) 
hbond:PRO:107    0.0
hbond:PRO:107      0
Name: 75, dtype: object

>  <halogenbond:PRO:107>  (77) 
halogenbond:PRO:107    NaN
halogenbond:PRO:107     -1
Name: 75, dtype: object

>  <hbond:GLY:108>  (77) 
hbond:GLY:108    NaN
hbond:GLY:108     -1
Name: 75, dtype: object

>  <halogenbond:GLY:108>  (77) 
halogenbond:GLY:108    NaN
halogenbond:GLY:108     -1
Name: 75, dtype: object

>  <hbond:ASP:109>  (77) 
hbond:ASP:109    0.0
hbond:ASP:109      0
Name: 75, dtype: object

>  <hydroph_interaction:ASP:109>  (77) 
hydroph_interaction:ASP:109    0.0
hydroph_interaction:ASP:109      0
Name: 75, dtype: object

>  <saltbridge:ASP:109>  (77) 
saltbridge:ASP:109    NaN
saltbridge:ASP:109     -1
Name: 75, dtype: object

>  <halogenbond:CYS:110>  (77) 
halogenbond:CYS:110    0.0
halogenbond:CYS:110      0
Name: 75, dtype: object

>  <hbond:CYS:110>  (77) 
hbond:CYS:110    0.0
hbond:CYS:110      0
Name: 75, dtype: object

>  <hbond:GLY:111>  (77) 
hbond:GLY:111    NaN
hbond:GLY:111     -1
Name: 75, dtype: object

>  <hbond:GLY:112>  (77) 
hbond:GLY:112    NaN
hbond:GLY:112     -1
Name: 75, dtype: object

>  <hbond:ILE:113>  (77) 
hbond:ILE:113    NaN
hbond:ILE:113     -1
Name: 75, dtype: object

>  <hydroph_interaction:LEU:114>  (77) 
hydroph_interaction:LEU:114    NaN
hydroph_interaction:LEU:114     -1
Name: 75, dtype: object

>  <hbond:LEU:114>  (77) 
hbond:LEU:114    NaN
hbond:LEU:114     -1
Name: 75, dtype: object

>  <hydroph_interaction:ILE:123>  (77) 
hydroph_interaction:ILE:123    NaN
hydroph_interaction:ILE:123     -1
Name: 75, dtype: object

>  <hbond:ILE:123>  (77) 
hbond:ILE:123    NaN
hbond:ILE:123     -1
Name: 75, dtype: object

>  <hydroph_interaction:VAL:124>  (77) 
hydroph_interaction:VAL:124    1.0
hydroph_interaction:VAL:124      1
Name: 75, dtype: object

>  <hbond:VAL:124>  (77) 
hbond:VAL:124    NaN
hbond:VAL:124     -1
Name: 75, dtype: object

>  <halogenbond:VAL:124>  (77) 
halogenbond:VAL:124    NaN
halogenbond:VAL:124     -1
Name: 75, dtype: object

>  <hbond:SER:125>  (77) 
hbond:SER:125    2
hbond:SER:125    2
Name: 75, dtype: object

>  <halogenbond:SER:125>  (77) 
halogenbond:SER:125    0.0
halogenbond:SER:125      0
Name: 75, dtype: object

>  <hydroph_interaction:THR:126>  (77) 
hydroph_interaction:THR:126    NaN
hydroph_interaction:THR:126     -1
Name: 75, dtype: object

>  <hbond:THR:126>  (77) 
hbond:THR:126    0.0
hbond:THR:126      0
Name: 75, dtype: object

>  <halogenbond:THR:126>  (77) 
halogenbond:THR:126    NaN
halogenbond:THR:126     -1
Name: 75, dtype: object

>  <hbond:GLY:127>  (77) 
hbond:GLY:127    1
hbond:GLY:127    1
Name: 75, dtype: object

>  <halogenbond:GLY:127>  (77) 
halogenbond:GLY:127    NaN
halogenbond:GLY:127     -1
Name: 75, dtype: object

>  <hydroph_interaction:GLY:127>  (77) 
hydroph_interaction:GLY:127    NaN
hydroph_interaction:GLY:127     -1
Name: 75, dtype: object

>  <hbond:GLY:128>  (77) 
hbond:GLY:128    NaN
hbond:GLY:128     -1
Name: 75, dtype: object

>  <halogenbond:GLY:128>  (77) 
halogenbond:GLY:128    NaN
halogenbond:GLY:128     -1
Name: 75, dtype: object

>  <hydroph_interaction:GLY:128>  (77) 
hydroph_interaction:GLY:128    NaN
hydroph_interaction:GLY:128     -1
Name: 75, dtype: object

>  <hbond:ASN:129>  (77) 
hbond:ASN:129    NaN
hbond:ASN:129     -1
Name: 75, dtype: object

>  <hydroph_interaction:ASN:129>  (77) 
hydroph_interaction:ASN:129    NaN
hydroph_interaction:ASN:129     -1
Name: 75, dtype: object

>  <halogenbond:ASN:129>  (77) 
halogenbond:ASN:129    NaN
halogenbond:ASN:129     -1
Name: 75, dtype: object

>  <hbond:GLY:130>  (77) 
hbond:GLY:130    0.0
hbond:GLY:130      0
Name: 75, dtype: object

>  <hbond:LEU:131>  (77) 
hbond:LEU:131    NaN
hbond:LEU:131     -1
Name: 75, dtype: object

>  <hydroph_interaction:LEU:131>  (77) 
hydroph_interaction:LEU:131    NaN
hydroph_interaction:LEU:131     -1
Name: 75, dtype: object

>  <halogenbond:LEU:131>  (77) 
halogenbond:LEU:131    NaN
halogenbond:LEU:131     -1
Name: 75, dtype: object

>  <hydroph_interaction:VAL:132>  (77) 
hydroph_interaction:VAL:132    NaN
hydroph_interaction:VAL:132     -1
Name: 75, dtype: object

>  <hbond:VAL:132>  (77) 
hbond:VAL:132    NaN
hbond:VAL:132     -1
Name: 75, dtype: object

>  <hbond:GLY:133>  (77) 
hbond:GLY:133    NaN
hbond:GLY:133     -1
Name: 75, dtype: object

>  <halogenbond:GLY:133>  (77) 
halogenbond:GLY:133    NaN
halogenbond:GLY:133     -1
Name: 75, dtype: object

>  <hydroph_interaction:PHE:134>  (77) 
hydroph_interaction:PHE:134    NaN
hydroph_interaction:PHE:134     -1
Name: 75, dtype: object

>  <hbond:PHE:134>  (77) 
hbond:PHE:134    NaN
hbond:PHE:134     -1
Name: 75, dtype: object

>  <pistack:PHE:134>  (77) 
pistack:PHE:134    NaN
pistack:PHE:134     -1
Name: 75, dtype: object

>  <pication:PHE:134>  (77) 
pication:PHE:134    NaN
pication:PHE:134     -1
Name: 75, dtype: object

>  <halogenbond:PHE:134>  (77) 
halogenbond:PHE:134    NaN
halogenbond:PHE:134     -1
Name: 75, dtype: object

>  <hydroph_interaction:ALA:135>  (77) 
hydroph_interaction:ALA:135    NaN
hydroph_interaction:ALA:135     -1
Name: 75, dtype: object

>  <hbond:ALA:135>  (77) 
hbond:ALA:135    NaN
hbond:ALA:135     -1
Name: 75, dtype: object

$$$$
PV_006952226746
     RDKit          3D

 16 17  0  0  0  0  0  0  0  0999 V2000
   30.7900    8.2838    8.2004 C   0  0  0  0  0  0  0  0  0  0  0  0
   31.3723    9.4956    7.5841 C   0  0  0  0  0  0  0  0  0  0  0  0
   32.2864    9.5004    6.5290 C   0  0  0  0  0  0  0  0  0  0  0  0
   32.8117   10.6344    5.9833 N   0  0  0  0  0  0  0  0  0  0  0  0
   32.3909   11.7976    6.5505 C   0  0  0  0  0  0  0  0  0  0  0  0
   32.9289   12.9250    6.0204 O   0  0  0  0  0  0  0  0  0  0  0  0
   31.4886   11.8712    7.6074 C   0  0  0  0  0  0  0  0  0  0  0  0
   31.0375   13.1160    8.2932 C   0  0  0  0  0  0  0  0  0  0  0  0
   32.0239   13.9107    9.0881 C   0  0  0  0  0  0  0  0  0  0  0  0
   31.7252   15.0638    9.9736 C   0  0  0  0  0  0  0  0  0  0  0  0
   32.5105   16.3418   10.0109 C   0  0  0  0  0  0  0  0  0  0  0  0
   32.2214   17.3182   10.9179 C   0  0  0  0  0  0  0  0  0  0  0  0
   31.1823   17.1099   11.7864 C   0  0  0  0  0  0  0  0  0  0  0  0
   30.4345   15.9565   11.7417 C   0  0  0  0  0  0  0  0  0  0  0  0
   30.6834   14.9481   10.8616 C   0  0  0  0  0  0  0  0  0  0  0  0
   30.9918   10.6911    8.0948 C   0  0  0  0  0  0  0  0  0  0  0  0
  1  2  1  0
  2  3  2  0
  3  4  1  0
  4  5  2  0
  5  6  1  0
  5  7  1  0
  7  8  1  0
  8  9  2  0
  9 10  1  0
 10 11  2  0
 11 12  1  0
 12 13  2  0
 13 14  1  0
 14 15  2  0
  7 16  2  0
 16  2  1  0
 15 10  1  0
A    1
 C1 
A    2
 C2 
A    3
 C3 
A    4
 N1 
A    5
 C4 
A    6
 O1 
A    7
 C5 
A    8
 C6 
A    9
 C7 
A   10
 C8 
A   11
 C9 
A   12
 C10
A   13
 C11
A   14
 C12
A   15
 C13
A   16
 C14
M  END
>  <ref_pdb>  (78) 
Ax0310a

>  <ref_mols>  (78) 
Ax0416a,Ax0556a

>  <original SMILES>  (78) 
Cc1cnc(O)c(/C=C/c2ccccc2)c1

>  <rationale>  (78) 
info halogenbond:D39+Q95+E106+E88+T126+H104+Y64+C65+S87+N129+F83+R93+L131+I82+G128+P91+N19+H21+V84+Y90+Y89+H97+L81+F134+L98+R20+G103+S66+S67+S7+G108+R38+V124+M99+S36; hbond:G127+H21+Y90+Q95+D39+G108+G103+G128+G130+L131+N129+N19+H104+R68+V124+R93+P91+F83+S7+S66+G112+V132+R20+Y89+S77+A135+Y63+A92+A101+M99+F134+L100+I82+Y64+S36+L98+V84+L81+Y94+S80+R38+S37+V102+G8+I123+G111+I113+L114+C65+L22+S96; hydroph_interaction:V84+V124+Y90+T126+N129+D39+N19+L40+I123+A135+Q95+I82+L100+L131+F83+R93+R20+A86+V74+P91+A101+F76+M99+L114+A92+Y94+Y72+Y64+V18+V102+W28+G127+G128+L81; pication:H104+R93+Y63+F134+Y90+R68+F83+R20; pistack:Y89+Y90+H104+F134+Y63+F83+Y94; saltbridge:D39+H21+R93+H104+E106+D109+E85+E88+R68+R20; 

>  <intxn_cluster>  (78) 
-1

>  <intxn_cluster_rank>  (78) 
-1

>  <N_interactions>  (78) 
6

>  <∆∆G>  (78) 
-10.030031

>  <$/mg>  (78) 
163.0

>  <comRMSD>  (78) 
0.601274

>  <N_rotatable_bonds>  (78) 
4

>  <deep_P1_sidechain>  (78) 
nan

>  <farthest_distance_to_substrate>  (78) 
2.411295

>  <hbond:SER:7>  (78) 
hbond:SER:7    NaN
hbond:SER:7     -1
Name: 76, dtype: object

>  <halogenbond:SER:7>  (78) 
halogenbond:SER:7    NaN
halogenbond:SER:7     -1
Name: 76, dtype: object

>  <hbond:GLY:8>  (78) 
hbond:GLY:8    NaN
hbond:GLY:8     -1
Name: 76, dtype: object

>  <hydroph_interaction:VAL:18>  (78) 
hydroph_interaction:VAL:18    NaN
hydroph_interaction:VAL:18     -1
Name: 76, dtype: object

>  <hbond:ASN:19>  (78) 
hbond:ASN:19    NaN
hbond:ASN:19     -1
Name: 76, dtype: object

>  <hydroph_interaction:ASN:19>  (78) 
hydroph_interaction:ASN:19    NaN
hydroph_interaction:ASN:19     -1
Name: 76, dtype: object

>  <halogenbond:ASN:19>  (78) 
halogenbond:ASN:19    NaN
halogenbond:ASN:19     -1
Name: 76, dtype: object

>  <hbond:ARG:20>  (78) 
hbond:ARG:20    NaN
hbond:ARG:20     -1
Name: 76, dtype: object

>  <hydroph_interaction:ARG:20>  (78) 
hydroph_interaction:ARG:20    NaN
hydroph_interaction:ARG:20     -1
Name: 76, dtype: object

>  <saltbridge:ARG:20>  (78) 
saltbridge:ARG:20    NaN
saltbridge:ARG:20     -1
Name: 76, dtype: object

>  <halogenbond:ARG:20>  (78) 
halogenbond:ARG:20    NaN
halogenbond:ARG:20     -1
Name: 76, dtype: object

>  <pication:ARG:20>  (78) 
pication:ARG:20    NaN
pication:ARG:20     -1
Name: 76, dtype: object

>  <hbond:HIS:21>  (78) 
hbond:HIS:21    NaN
hbond:HIS:21     -1
Name: 76, dtype: object

>  <hydroph_interaction:HIS:21>  (78) 
hydroph_interaction:HIS:21    0.0
hydroph_interaction:HIS:21      0
Name: 76, dtype: object

>  <pistack:HIS:21>  (78) 
pistack:HIS:21    0.0
pistack:HIS:21      0
Name: 76, dtype: object

>  <pication:HIS:21>  (78) 
pication:HIS:21    0.0
pication:HIS:21      0
Name: 76, dtype: object

>  <saltbridge:HIS:21>  (78) 
saltbridge:HIS:21    NaN
saltbridge:HIS:21     -1
Name: 76, dtype: object

>  <halogenbond:HIS:21>  (78) 
halogenbond:HIS:21    NaN
halogenbond:HIS:21     -1
Name: 76, dtype: object

>  <hydroph_interaction:LEU:22>  (78) 
hydroph_interaction:LEU:22    0.0
hydroph_interaction:LEU:22      0
Name: 76, dtype: object

>  <hbond:LEU:22>  (78) 
hbond:LEU:22    NaN
hbond:LEU:22     -1
Name: 76, dtype: object

>  <hydroph_interaction:TRP:28>  (78) 
hydroph_interaction:TRP:28    NaN
hydroph_interaction:TRP:28     -1
Name: 76, dtype: object

>  <hbond:SER:36>  (78) 
hbond:SER:36    NaN
hbond:SER:36     -1
Name: 76, dtype: object

>  <halogenbond:SER:36>  (78) 
halogenbond:SER:36    NaN
halogenbond:SER:36     -1
Name: 76, dtype: object

>  <hbond:SER:37>  (78) 
hbond:SER:37    NaN
hbond:SER:37     -1
Name: 76, dtype: object

>  <hbond:ARG:38>  (78) 
hbond:ARG:38    NaN
hbond:ARG:38     -1
Name: 76, dtype: object

>  <halogenbond:ARG:38>  (78) 
halogenbond:ARG:38    NaN
halogenbond:ARG:38     -1
Name: 76, dtype: object

>  <saltbridge:ASP:39>  (78) 
saltbridge:ASP:39    NaN
saltbridge:ASP:39     -1
Name: 76, dtype: object

>  <halogenbond:ASP:39>  (78) 
halogenbond:ASP:39    NaN
halogenbond:ASP:39     -1
Name: 76, dtype: object

>  <hbond:ASP:39>  (78) 
hbond:ASP:39    NaN
hbond:ASP:39     -1
Name: 76, dtype: object

>  <hydroph_interaction:ASP:39>  (78) 
hydroph_interaction:ASP:39    NaN
hydroph_interaction:ASP:39     -1
Name: 76, dtype: object

>  <hydroph_interaction:LEU:40>  (78) 
hydroph_interaction:LEU:40    NaN
hydroph_interaction:LEU:40     -1
Name: 76, dtype: object

>  <hydroph_interaction:TYR:63>  (78) 
hydroph_interaction:TYR:63    0.0
hydroph_interaction:TYR:63      0
Name: 76, dtype: object

>  <hbond:TYR:63>  (78) 
hbond:TYR:63    NaN
hbond:TYR:63     -1
Name: 76, dtype: object

>  <pistack:TYR:63>  (78) 
pistack:TYR:63    NaN
pistack:TYR:63     -1
Name: 76, dtype: object

>  <pication:TYR:63>  (78) 
pication:TYR:63    NaN
pication:TYR:63     -1
Name: 76, dtype: object

>  <halogenbond:TYR:64>  (78) 
halogenbond:TYR:64    NaN
halogenbond:TYR:64     -1
Name: 76, dtype: object

>  <hbond:TYR:64>  (78) 
hbond:TYR:64    NaN
hbond:TYR:64     -1
Name: 76, dtype: object

>  <hydroph_interaction:TYR:64>  (78) 
hydroph_interaction:TYR:64    NaN
hydroph_interaction:TYR:64     -1
Name: 76, dtype: object

>  <halogenbond:CYS:65>  (78) 
halogenbond:CYS:65    NaN
halogenbond:CYS:65     -1
Name: 76, dtype: object

>  <hbond:CYS:65>  (78) 
hbond:CYS:65    NaN
hbond:CYS:65     -1
Name: 76, dtype: object

>  <hbond:SER:66>  (78) 
hbond:SER:66    NaN
hbond:SER:66     -1
Name: 76, dtype: object

>  <halogenbond:SER:66>  (78) 
halogenbond:SER:66    NaN
halogenbond:SER:66     -1
Name: 76, dtype: object

>  <hbond:SER:67>  (78) 
hbond:SER:67    0.0
hbond:SER:67      0
Name: 76, dtype: object

>  <halogenbond:SER:67>  (78) 
halogenbond:SER:67    NaN
halogenbond:SER:67     -1
Name: 76, dtype: object

>  <hbond:ARG:68>  (78) 
hbond:ARG:68    NaN
hbond:ARG:68     -1
Name: 76, dtype: object

>  <saltbridge:ARG:68>  (78) 
saltbridge:ARG:68    NaN
saltbridge:ARG:68     -1
Name: 76, dtype: object

>  <hydroph_interaction:ARG:68>  (78) 
hydroph_interaction:ARG:68    0.0
hydroph_interaction:ARG:68      0
Name: 76, dtype: object

>  <pication:ARG:68>  (78) 
pication:ARG:68    NaN
pication:ARG:68     -1
Name: 76, dtype: object

>  <hydroph_interaction:TYR:72>  (78) 
hydroph_interaction:TYR:72    NaN
hydroph_interaction:TYR:72     -1
Name: 76, dtype: object

>  <hydroph_interaction:VAL:74>  (78) 
hydroph_interaction:VAL:74    NaN
hydroph_interaction:VAL:74     -1
Name: 76, dtype: object

>  <hydroph_interaction:PHE:76>  (78) 
hydroph_interaction:PHE:76    NaN
hydroph_interaction:PHE:76     -1
Name: 76, dtype: object

>  <hbond:SER:77>  (78) 
hbond:SER:77    NaN
hbond:SER:77     -1
Name: 76, dtype: object

>  <hbond:SER:80>  (78) 
hbond:SER:80    NaN
hbond:SER:80     -1
Name: 76, dtype: object

>  <hbond:LEU:81>  (78) 
hbond:LEU:81    NaN
hbond:LEU:81     -1
Name: 76, dtype: object

>  <halogenbond:LEU:81>  (78) 
halogenbond:LEU:81    NaN
halogenbond:LEU:81     -1
Name: 76, dtype: object

>  <hydroph_interaction:LEU:81>  (78) 
hydroph_interaction:LEU:81    NaN
hydroph_interaction:LEU:81     -1
Name: 76, dtype: object

>  <hydroph_interaction:ILE:82>  (78) 
hydroph_interaction:ILE:82    NaN
hydroph_interaction:ILE:82     -1
Name: 76, dtype: object

>  <halogenbond:ILE:82>  (78) 
halogenbond:ILE:82    NaN
halogenbond:ILE:82     -1
Name: 76, dtype: object

>  <hbond:ILE:82>  (78) 
hbond:ILE:82    NaN
hbond:ILE:82     -1
Name: 76, dtype: object

>  <hbond:PHE:83>  (78) 
hbond:PHE:83    NaN
hbond:PHE:83     -1
Name: 76, dtype: object

>  <hydroph_interaction:PHE:83>  (78) 
hydroph_interaction:PHE:83    NaN
hydroph_interaction:PHE:83     -1
Name: 76, dtype: object

>  <halogenbond:PHE:83>  (78) 
halogenbond:PHE:83    NaN
halogenbond:PHE:83     -1
Name: 76, dtype: object

>  <pistack:PHE:83>  (78) 
pistack:PHE:83    NaN
pistack:PHE:83     -1
Name: 76, dtype: object

>  <pication:PHE:83>  (78) 
pication:PHE:83    NaN
pication:PHE:83     -1
Name: 76, dtype: object

>  <hydroph_interaction:VAL:84>  (78) 
hydroph_interaction:VAL:84    1.0
hydroph_interaction:VAL:84      1
Name: 76, dtype: object

>  <halogenbond:VAL:84>  (78) 
halogenbond:VAL:84    NaN
halogenbond:VAL:84     -1
Name: 76, dtype: object

>  <hbond:VAL:84>  (78) 
hbond:VAL:84    NaN
hbond:VAL:84     -1
Name: 76, dtype: object

>  <hydroph_interaction:GLU:85>  (78) 
hydroph_interaction:GLU:85    0.0
hydroph_interaction:GLU:85      0
Name: 76, dtype: object

>  <hbond:GLU:85>  (78) 
hbond:GLU:85    0.0
hbond:GLU:85      0
Name: 76, dtype: object

>  <halogenbond:GLU:85>  (78) 
halogenbond:GLU:85    0.0
halogenbond:GLU:85      0
Name: 76, dtype: object

>  <saltbridge:GLU:85>  (78) 
saltbridge:GLU:85    NaN
saltbridge:GLU:85     -1
Name: 76, dtype: object

>  <halogenbond:ALA:86>  (78) 
halogenbond:ALA:86    0.0
halogenbond:ALA:86      0
Name: 76, dtype: object

>  <hbond:ALA:86>  (78) 
hbond:ALA:86    0.0
hbond:ALA:86      0
Name: 76, dtype: object

>  <hydroph_interaction:ALA:86>  (78) 
hydroph_interaction:ALA:86    NaN
hydroph_interaction:ALA:86     -1
Name: 76, dtype: object

>  <hbond:SER:87>  (78) 
hbond:SER:87    0
hbond:SER:87    0
Name: 76, dtype: object

>  <halogenbond:SER:87>  (78) 
halogenbond:SER:87    NaN
halogenbond:SER:87     -1
Name: 76, dtype: object

>  <hbond:GLU:88>  (78) 
hbond:GLU:88    0.0
hbond:GLU:88      0
Name: 76, dtype: object

>  <hydroph_interaction:GLU:88>  (78) 
hydroph_interaction:GLU:88    0.0
hydroph_interaction:GLU:88      0
Name: 76, dtype: object

>  <halogenbond:GLU:88>  (78) 
halogenbond:GLU:88    NaN
halogenbond:GLU:88     -1
Name: 76, dtype: object

>  <saltbridge:GLU:88>  (78) 
saltbridge:GLU:88    NaN
saltbridge:GLU:88     -1
Name: 76, dtype: object

>  <hydroph_interaction:TYR:89>  (78) 
hydroph_interaction:TYR:89    0.0
hydroph_interaction:TYR:89      0
Name: 76, dtype: object

>  <pistack:TYR:89>  (78) 
pistack:TYR:89    NaN
pistack:TYR:89     -1
Name: 76, dtype: object

>  <hbond:TYR:89>  (78) 
hbond:TYR:89    NaN
hbond:TYR:89     -1
Name: 76, dtype: object

>  <halogenbond:TYR:89>  (78) 
halogenbond:TYR:89    NaN
halogenbond:TYR:89     -1
Name: 76, dtype: object

>  <hydroph_interaction:TYR:90>  (78) 
hydroph_interaction:TYR:90    2.0
hydroph_interaction:TYR:90      2
Name: 76, dtype: object

>  <hbond:TYR:90>  (78) 
hbond:TYR:90    NaN
hbond:TYR:90     -1
Name: 76, dtype: object

>  <pistack:TYR:90>  (78) 
pistack:TYR:90    NaN
pistack:TYR:90     -1
Name: 76, dtype: object

>  <halogenbond:TYR:90>  (78) 
halogenbond:TYR:90    NaN
halogenbond:TYR:90     -1
Name: 76, dtype: object

>  <pication:TYR:90>  (78) 
pication:TYR:90    NaN
pication:TYR:90     -1
Name: 76, dtype: object

>  <hbond:PRO:91>  (78) 
hbond:PRO:91    NaN
hbond:PRO:91     -1
Name: 76, dtype: object

>  <hydroph_interaction:PRO:91>  (78) 
hydroph_interaction:PRO:91    NaN
hydroph_interaction:PRO:91     -1
Name: 76, dtype: object

>  <halogenbond:PRO:91>  (78) 
halogenbond:PRO:91    NaN
halogenbond:PRO:91     -1
Name: 76, dtype: object

>  <hbond:ALA:92>  (78) 
hbond:ALA:92    NaN
hbond:ALA:92     -1
Name: 76, dtype: object

>  <hydroph_interaction:ALA:92>  (78) 
hydroph_interaction:ALA:92    NaN
hydroph_interaction:ALA:92     -1
Name: 76, dtype: object

>  <saltbridge:ARG:93>  (78) 
saltbridge:ARG:93    NaN
saltbridge:ARG:93     -1
Name: 76, dtype: object

>  <hbond:ARG:93>  (78) 
hbond:ARG:93    NaN
hbond:ARG:93     -1
Name: 76, dtype: object

>  <hydroph_interaction:ARG:93>  (78) 
hydroph_interaction:ARG:93    NaN
hydroph_interaction:ARG:93     -1
Name: 76, dtype: object

>  <halogenbond:ARG:93>  (78) 
halogenbond:ARG:93    NaN
halogenbond:ARG:93     -1
Name: 76, dtype: object

>  <pication:ARG:93>  (78) 
pication:ARG:93    NaN
pication:ARG:93     -1
Name: 76, dtype: object

>  <hydroph_interaction:TYR:94>  (78) 
hydroph_interaction:TYR:94    NaN
hydroph_interaction:TYR:94     -1
Name: 76, dtype: object

>  <pistack:TYR:94>  (78) 
pistack:TYR:94    NaN
pistack:TYR:94     -1
Name: 76, dtype: object

>  <hbond:TYR:94>  (78) 
hbond:TYR:94    NaN
hbond:TYR:94     -1
Name: 76, dtype: object

>  <hbond:GLN:95>  (78) 
hbond:GLN:95    NaN
hbond:GLN:95     -1
Name: 76, dtype: object

>  <hydroph_interaction:GLN:95>  (78) 
hydroph_interaction:GLN:95    NaN
hydroph_interaction:GLN:95     -1
Name: 76, dtype: object

>  <halogenbond:GLN:95>  (78) 
halogenbond:GLN:95    NaN
halogenbond:GLN:95     -1
Name: 76, dtype: object

>  <hbond:SER:96>  (78) 
hbond:SER:96    NaN
hbond:SER:96     -1
Name: 76, dtype: object

>  <halogenbond:HIS:97>  (78) 
halogenbond:HIS:97    NaN
halogenbond:HIS:97     -1
Name: 76, dtype: object

>  <hydroph_interaction:LEU:98>  (78) 
hydroph_interaction:LEU:98    0.0
hydroph_interaction:LEU:98      0
Name: 76, dtype: object

>  <hbond:LEU:98>  (78) 
hbond:LEU:98    NaN
hbond:LEU:98     -1
Name: 76, dtype: object

>  <halogenbond:LEU:98>  (78) 
halogenbond:LEU:98    NaN
halogenbond:LEU:98     -1
Name: 76, dtype: object

>  <hbond:MET:99>  (78) 
hbond:MET:99    NaN
hbond:MET:99     -1
Name: 76, dtype: object

>  <hydroph_interaction:MET:99>  (78) 
hydroph_interaction:MET:99    NaN
hydroph_interaction:MET:99     -1
Name: 76, dtype: object

>  <halogenbond:MET:99>  (78) 
halogenbond:MET:99    NaN
halogenbond:MET:99     -1
Name: 76, dtype: object

>  <hydroph_interaction:LEU:100>  (78) 
hydroph_interaction:LEU:100    NaN
hydroph_interaction:LEU:100     -1
Name: 76, dtype: object

>  <hbond:LEU:100>  (78) 
hbond:LEU:100    NaN
hbond:LEU:100     -1
Name: 76, dtype: object

>  <hbond:ALA:101>  (78) 
hbond:ALA:101    NaN
hbond:ALA:101     -1
Name: 76, dtype: object

>  <hydroph_interaction:ALA:101>  (78) 
hydroph_interaction:ALA:101    NaN
hydroph_interaction:ALA:101     -1
Name: 76, dtype: object

>  <hydroph_interaction:VAL:102>  (78) 
hydroph_interaction:VAL:102    NaN
hydroph_interaction:VAL:102     -1
Name: 76, dtype: object

>  <hbond:VAL:102>  (78) 
hbond:VAL:102    NaN
hbond:VAL:102     -1
Name: 76, dtype: object

>  <hbond:GLY:103>  (78) 
hbond:GLY:103    NaN
hbond:GLY:103     -1
Name: 76, dtype: object

>  <halogenbond:GLY:103>  (78) 
halogenbond:GLY:103    NaN
halogenbond:GLY:103     -1
Name: 76, dtype: object

>  <hbond:HIS:104>  (78) 
hbond:HIS:104    NaN
hbond:HIS:104     -1
Name: 76, dtype: object

>  <saltbridge:HIS:104>  (78) 
saltbridge:HIS:104    NaN
saltbridge:HIS:104     -1
Name: 76, dtype: object

>  <pication:HIS:104>  (78) 
pication:HIS:104    NaN
pication:HIS:104     -1
Name: 76, dtype: object

>  <halogenbond:HIS:104>  (78) 
halogenbond:HIS:104    NaN
halogenbond:HIS:104     -1
Name: 76, dtype: object

>  <hydroph_interaction:HIS:104>  (78) 
hydroph_interaction:HIS:104    0.0
hydroph_interaction:HIS:104      0
Name: 76, dtype: object

>  <pistack:HIS:104>  (78) 
pistack:HIS:104    NaN
pistack:HIS:104     -1
Name: 76, dtype: object

>  <halogenbond:SER:105>  (78) 
halogenbond:SER:105    0.0
halogenbond:SER:105      0
Name: 76, dtype: object

>  <hbond:SER:105>  (78) 
hbond:SER:105    0.0
hbond:SER:105      0
Name: 76, dtype: object

>  <hbond:GLU:106>  (78) 
hbond:GLU:106    0.0
hbond:GLU:106      0
Name: 76, dtype: object

>  <hydroph_interaction:GLU:106>  (78) 
hydroph_interaction:GLU:106    0.0
hydroph_interaction:GLU:106      0
Name: 76, dtype: object

>  <saltbridge:GLU:106>  (78) 
saltbridge:GLU:106    NaN
saltbridge:GLU:106     -1
Name: 76, dtype: object

>  <halogenbond:GLU:106>  (78) 
halogenbond:GLU:106    NaN
halogenbond:GLU:106     -1
Name: 76, dtype: object

>  <hydroph_interaction:PRO:107>  (78) 
hydroph_interaction:PRO:107    0
hydroph_interaction:PRO:107    0
Name: 76, dtype: object

>  <hbond:PRO:107>  (78) 
hbond:PRO:107    0.0
hbond:PRO:107      0
Name: 76, dtype: object

>  <halogenbond:PRO:107>  (78) 
halogenbond:PRO:107    0.0
halogenbond:PRO:107      0
Name: 76, dtype: object

>  <hbond:GLY:108>  (78) 
hbond:GLY:108    NaN
hbond:GLY:108     -1
Name: 76, dtype: object

>  <halogenbond:GLY:108>  (78) 
halogenbond:GLY:108    NaN
halogenbond:GLY:108     -1
Name: 76, dtype: object

>  <hbond:ASP:109>  (78) 
hbond:ASP:109    0.0
hbond:ASP:109      0
Name: 76, dtype: object

>  <hydroph_interaction:ASP:109>  (78) 
hydroph_interaction:ASP:109    0.0
hydroph_interaction:ASP:109      0
Name: 76, dtype: object

>  <saltbridge:ASP:109>  (78) 
saltbridge:ASP:109    NaN
saltbridge:ASP:109     -1
Name: 76, dtype: object

>  <halogenbond:CYS:110>  (78) 
halogenbond:CYS:110    0.0
halogenbond:CYS:110      0
Name: 76, dtype: object

>  <hbond:CYS:110>  (78) 
hbond:CYS:110    0.0
hbond:CYS:110      0
Name: 76, dtype: object

>  <hbond:GLY:111>  (78) 
hbond:GLY:111    NaN
hbond:GLY:111     -1
Name: 76, dtype: object

>  <hbond:GLY:112>  (78) 
hbond:GLY:112    NaN
hbond:GLY:112     -1
Name: 76, dtype: object

>  <hbond:ILE:113>  (78) 
hbond:ILE:113    NaN
hbond:ILE:113     -1
Name: 76, dtype: object

>  <hydroph_interaction:LEU:114>  (78) 
hydroph_interaction:LEU:114    NaN
hydroph_interaction:LEU:114     -1
Name: 76, dtype: object

>  <hbond:LEU:114>  (78) 
hbond:LEU:114    NaN
hbond:LEU:114     -1
Name: 76, dtype: object

>  <hydroph_interaction:ILE:123>  (78) 
hydroph_interaction:ILE:123    NaN
hydroph_interaction:ILE:123     -1
Name: 76, dtype: object

>  <hbond:ILE:123>  (78) 
hbond:ILE:123    NaN
hbond:ILE:123     -1
Name: 76, dtype: object

>  <hydroph_interaction:VAL:124>  (78) 
hydroph_interaction:VAL:124    1.0
hydroph_interaction:VAL:124      1
Name: 76, dtype: object

>  <hbond:VAL:124>  (78) 
hbond:VAL:124    NaN
hbond:VAL:124     -1
Name: 76, dtype: object

>  <halogenbond:VAL:124>  (78) 
halogenbond:VAL:124    NaN
halogenbond:VAL:124     -1
Name: 76, dtype: object

>  <hbond:SER:125>  (78) 
hbond:SER:125    0
hbond:SER:125    0
Name: 76, dtype: object

>  <halogenbond:SER:125>  (78) 
halogenbond:SER:125    0.0
halogenbond:SER:125      0
Name: 76, dtype: object

>  <hydroph_interaction:THR:126>  (78) 
hydroph_interaction:THR:126    1.0
hydroph_interaction:THR:126      1
Name: 76, dtype: object

>  <hbond:THR:126>  (78) 
hbond:THR:126    0.0
hbond:THR:126      0
Name: 76, dtype: object

>  <halogenbond:THR:126>  (78) 
halogenbond:THR:126    NaN
halogenbond:THR:126     -1
Name: 76, dtype: object

>  <hbond:GLY:127>  (78) 
hbond:GLY:127    1
hbond:GLY:127    1
Name: 76, dtype: object

>  <halogenbond:GLY:127>  (78) 
halogenbond:GLY:127    0.0
halogenbond:GLY:127      0
Name: 76, dtype: object

>  <hydroph_interaction:GLY:127>  (78) 
hydroph_interaction:GLY:127    NaN
hydroph_interaction:GLY:127     -1
Name: 76, dtype: object

>  <hbond:GLY:128>  (78) 
hbond:GLY:128    NaN
hbond:GLY:128     -1
Name: 76, dtype: object

>  <halogenbond:GLY:128>  (78) 
halogenbond:GLY:128    NaN
halogenbond:GLY:128     -1
Name: 76, dtype: object

>  <hydroph_interaction:GLY:128>  (78) 
hydroph_interaction:GLY:128    NaN
hydroph_interaction:GLY:128     -1
Name: 76, dtype: object

>  <hbond:ASN:129>  (78) 
hbond:ASN:129    NaN
hbond:ASN:129     -1
Name: 76, dtype: object

>  <hydroph_interaction:ASN:129>  (78) 
hydroph_interaction:ASN:129    NaN
hydroph_interaction:ASN:129     -1
Name: 76, dtype: object

>  <halogenbond:ASN:129>  (78) 
halogenbond:ASN:129    NaN
halogenbond:ASN:129     -1
Name: 76, dtype: object

>  <hbond:GLY:130>  (78) 
hbond:GLY:130    NaN
hbond:GLY:130     -1
Name: 76, dtype: object

>  <hbond:LEU:131>  (78) 
hbond:LEU:131    NaN
hbond:LEU:131     -1
Name: 76, dtype: object

>  <hydroph_interaction:LEU:131>  (78) 
hydroph_interaction:LEU:131    NaN
hydroph_interaction:LEU:131     -1
Name: 76, dtype: object

>  <halogenbond:LEU:131>  (78) 
halogenbond:LEU:131    NaN
halogenbond:LEU:131     -1
Name: 76, dtype: object

>  <hydroph_interaction:VAL:132>  (78) 
hydroph_interaction:VAL:132    0.0
hydroph_interaction:VAL:132      0
Name: 76, dtype: object

>  <hbond:VAL:132>  (78) 
hbond:VAL:132    NaN
hbond:VAL:132     -1
Name: 76, dtype: object

>  <hbond:GLY:133>  (78) 
hbond:GLY:133    0.0
hbond:GLY:133      0
Name: 76, dtype: object

>  <halogenbond:GLY:133>  (78) 
halogenbond:GLY:133    0.0
halogenbond:GLY:133      0
Name: 76, dtype: object

>  <hydroph_interaction:PHE:134>  (78) 
hydroph_interaction:PHE:134    0.0
hydroph_interaction:PHE:134      0
Name: 76, dtype: object

>  <hbond:PHE:134>  (78) 
hbond:PHE:134    NaN
hbond:PHE:134     -1
Name: 76, dtype: object

>  <pistack:PHE:134>  (78) 
pistack:PHE:134    NaN
pistack:PHE:134     -1
Name: 76, dtype: object

>  <pication:PHE:134>  (78) 
pication:PHE:134    NaN
pication:PHE:134     -1
Name: 76, dtype: object

>  <halogenbond:PHE:134>  (78) 
halogenbond:PHE:134    NaN
halogenbond:PHE:134     -1
Name: 76, dtype: object

>  <hydroph_interaction:ALA:135>  (78) 
hydroph_interaction:ALA:135    NaN
hydroph_interaction:ALA:135     -1
Name: 76, dtype: object

>  <hbond:ALA:135>  (78) 
hbond:ALA:135    NaN
hbond:ALA:135     -1
Name: 76, dtype: object

$$$$
PV_006183689828
     RDKit          3D

 15 16  0  0  0  0  0  0  0  0999 V2000
   30.8856    8.4383    8.6557 C   0  0  0  0  0  0  0  0  0  0  0  0
   31.0715    9.6690    7.9428 N   0  0  0  0  0  0  0  0  0  0  0  0
   30.2247   10.7101    8.2517 N   0  0  0  0  0  0  0  0  0  0  0  0
   30.6057   11.7144    7.4611 C   0  0  0  0  0  0  0  0  0  0  0  0
   29.8569   13.0444    7.5150 C   0  0  0  0  0  0  0  0  0  0  0  0
   29.7846   13.6196    8.8433 N   0  0  0  0  0  0  0  0  0  0  0  0
   28.9035   14.5479    9.2255 C   0  0  0  0  0  0  0  0  0  0  0  0
   28.2497   15.3864    8.5358 N   0  0  0  0  0  0  0  0  0  0  0  0
   28.7605   14.4944   10.5535 N   0  0  0  0  0  0  0  0  0  0  0  0
   31.7436   11.2773    6.6478 C   0  0  0  0  0  0  0  0  0  0  0  0
   32.4695   12.0101    5.6970 C   0  0  0  0  0  0  0  0  0  0  0  0
   33.5743   11.3000    5.0089 C   0  0  0  0  0  0  0  0  0  0  0  0
   33.8432    9.8956    5.3481 C   0  0  0  0  0  0  0  0  0  0  0  0
   33.0443    9.2758    6.3208 C   0  0  0  0  0  0  0  0  0  0  0  0
   32.0029    9.9641    6.9722 C   0  0  0  0  0  0  0  0  0  0  0  0
  1  2  1  0
  2  3  1  0
  3  4  2  0
  4  5  1  0
  5  6  1  0
  6  7  1  0
  7  8  2  3
  7  9  1  0
  4 10  1  0
 10 11  2  0
 11 12  1  0
 12 13  2  0
 13 14  1  0
 14 15  2  0
 15  2  1  0
 15 10  1  0
A    1
 C1 
A    2
 N1 
A    3
 N2 
A    4
 C2 
A    5
 C3 
A    6
 N3 
A    7
 C4 
A    8
 N4 
A    9
 N5 
A   10
 C5 
A   11
 C6 
A   12
 C7 
A   13
 C8 
A   14
 C9 
A   15
 C10
M  END
>  <ref_pdb>  (79) 
Ax0310a

>  <ref_mols>  (79) 
Ax0554a,Ax0451a

>  <original SMILES>  (79) 
Cn1nc(CNC(=N)N)c2ccccc21

>  <rationale>  (79) 
info halogenbond:C110+G127+D39+A86+S125+E85+Q95+E106+T126+H104+Y64+C65+S87+N129+F83+R93+L131+I82+G128+P91+N19+H21+V84+G133+Y90+Y89+H97+L81+F134+L98+R20+G103+S66+S67+S7+G108+R38+V124+M99+S36; hbond:S87+S125+E88+C110+E85+G108+G103+G128+G130+L131+N129+N19+H104+R68+V124+R93+P91+F83+S67+S7+S66+G112+G133+V132+R20+Y89+S77+A135+Y63+A92+A101+M99+F134+L100+I82+Y64+S36+L98+V84+L81+Y94+S80+R38+S37+V102+G8+I123+G111+I113+L114+C65+L22+S96; hydroph_interaction:P107+L22+E85+D109+N129+D39+N19+L40+I123+A135+Q95+I82+L100+L98+L131+F83+R93+V132+Y63+F134+H104+R20+A86+V74+P91+A101+F76+M99+L114+A92+Y94+R68+Y72+Y64+V18+V102+W28+G127+G128+L81; pication:H21+H104+R93+Y63+F134+Y90+R68+F83+R20; pistack:H21+Y89+Y90+H104+F134+Y63+F83+Y94; saltbridge:D39+R93+H104+E106+D109+E85+E88+R68+R20; 

>  <intxn_cluster>  (79) 
-1

>  <intxn_cluster_rank>  (79) 
-1

>  <N_interactions>  (79) 
6

>  <∆∆G>  (79) 
-7.915888

>  <$/mg>  (79) 
163.0

>  <comRMSD>  (79) 
0.561408

>  <N_rotatable_bonds>  (79) 
3

>  <deep_P1_sidechain>  (79) 
nan

>  <farthest_distance_to_substrate>  (79) 
2.658167

>  <hbond:SER:7>  (79) 
hbond:SER:7    NaN
hbond:SER:7     -1
Name: 77, dtype: object

>  <halogenbond:SER:7>  (79) 
halogenbond:SER:7    NaN
halogenbond:SER:7     -1
Name: 77, dtype: object

>  <hbond:GLY:8>  (79) 
hbond:GLY:8    NaN
hbond:GLY:8     -1
Name: 77, dtype: object

>  <hydroph_interaction:VAL:18>  (79) 
hydroph_interaction:VAL:18    NaN
hydroph_interaction:VAL:18     -1
Name: 77, dtype: object

>  <hbond:ASN:19>  (79) 
hbond:ASN:19    NaN
hbond:ASN:19     -1
Name: 77, dtype: object

>  <hydroph_interaction:ASN:19>  (79) 
hydroph_interaction:ASN:19    NaN
hydroph_interaction:ASN:19     -1
Name: 77, dtype: object

>  <halogenbond:ASN:19>  (79) 
halogenbond:ASN:19    NaN
halogenbond:ASN:19     -1
Name: 77, dtype: object

>  <hbond:ARG:20>  (79) 
hbond:ARG:20    NaN
hbond:ARG:20     -1
Name: 77, dtype: object

>  <hydroph_interaction:ARG:20>  (79) 
hydroph_interaction:ARG:20    NaN
hydroph_interaction:ARG:20     -1
Name: 77, dtype: object

>  <saltbridge:ARG:20>  (79) 
saltbridge:ARG:20    NaN
saltbridge:ARG:20     -1
Name: 77, dtype: object

>  <halogenbond:ARG:20>  (79) 
halogenbond:ARG:20    NaN
halogenbond:ARG:20     -1
Name: 77, dtype: object

>  <pication:ARG:20>  (79) 
pication:ARG:20    NaN
pication:ARG:20     -1
Name: 77, dtype: object

>  <hbond:HIS:21>  (79) 
hbond:HIS:21    0.0
hbond:HIS:21      0
Name: 77, dtype: object

>  <hydroph_interaction:HIS:21>  (79) 
hydroph_interaction:HIS:21    0.0
hydroph_interaction:HIS:21      0
Name: 77, dtype: object

>  <pistack:HIS:21>  (79) 
pistack:HIS:21    NaN
pistack:HIS:21     -1
Name: 77, dtype: object

>  <pication:HIS:21>  (79) 
pication:HIS:21    1.0
pication:HIS:21      1
Name: 77, dtype: object

>  <saltbridge:HIS:21>  (79) 
saltbridge:HIS:21    0.0
saltbridge:HIS:21      0
Name: 77, dtype: object

>  <halogenbond:HIS:21>  (79) 
halogenbond:HIS:21    NaN
halogenbond:HIS:21     -1
Name: 77, dtype: object

>  <hydroph_interaction:LEU:22>  (79) 
hydroph_interaction:LEU:22    NaN
hydroph_interaction:LEU:22     -1
Name: 77, dtype: object

>  <hbond:LEU:22>  (79) 
hbond:LEU:22    NaN
hbond:LEU:22     -1
Name: 77, dtype: object

>  <hydroph_interaction:TRP:28>  (79) 
hydroph_interaction:TRP:28    NaN
hydroph_interaction:TRP:28     -1
Name: 77, dtype: object

>  <hbond:SER:36>  (79) 
hbond:SER:36    NaN
hbond:SER:36     -1
Name: 77, dtype: object

>  <halogenbond:SER:36>  (79) 
halogenbond:SER:36    NaN
halogenbond:SER:36     -1
Name: 77, dtype: object

>  <hbond:SER:37>  (79) 
hbond:SER:37    NaN
hbond:SER:37     -1
Name: 77, dtype: object

>  <hbond:ARG:38>  (79) 
hbond:ARG:38    NaN
hbond:ARG:38     -1
Name: 77, dtype: object

>  <halogenbond:ARG:38>  (79) 
halogenbond:ARG:38    NaN
halogenbond:ARG:38     -1
Name: 77, dtype: object

>  <saltbridge:ASP:39>  (79) 
saltbridge:ASP:39    1.0
saltbridge:ASP:39      1
Name: 77, dtype: object

>  <halogenbond:ASP:39>  (79) 
halogenbond:ASP:39    NaN
halogenbond:ASP:39     -1
Name: 77, dtype: object

>  <hbond:ASP:39>  (79) 
hbond:ASP:39    0.0
hbond:ASP:39      0
Name: 77, dtype: object

>  <hydroph_interaction:ASP:39>  (79) 
hydroph_interaction:ASP:39    NaN
hydroph_interaction:ASP:39     -1
Name: 77, dtype: object

>  <hydroph_interaction:LEU:40>  (79) 
hydroph_interaction:LEU:40    NaN
hydroph_interaction:LEU:40     -1
Name: 77, dtype: object

>  <hydroph_interaction:TYR:63>  (79) 
hydroph_interaction:TYR:63    NaN
hydroph_interaction:TYR:63     -1
Name: 77, dtype: object

>  <hbond:TYR:63>  (79) 
hbond:TYR:63    NaN
hbond:TYR:63     -1
Name: 77, dtype: object

>  <pistack:TYR:63>  (79) 
pistack:TYR:63    NaN
pistack:TYR:63     -1
Name: 77, dtype: object

>  <pication:TYR:63>  (79) 
pication:TYR:63    NaN
pication:TYR:63     -1
Name: 77, dtype: object

>  <halogenbond:TYR:64>  (79) 
halogenbond:TYR:64    NaN
halogenbond:TYR:64     -1
Name: 77, dtype: object

>  <hbond:TYR:64>  (79) 
hbond:TYR:64    NaN
hbond:TYR:64     -1
Name: 77, dtype: object

>  <hydroph_interaction:TYR:64>  (79) 
hydroph_interaction:TYR:64    NaN
hydroph_interaction:TYR:64     -1
Name: 77, dtype: object

>  <halogenbond:CYS:65>  (79) 
halogenbond:CYS:65    NaN
halogenbond:CYS:65     -1
Name: 77, dtype: object

>  <hbond:CYS:65>  (79) 
hbond:CYS:65    NaN
hbond:CYS:65     -1
Name: 77, dtype: object

>  <hbond:SER:66>  (79) 
hbond:SER:66    NaN
hbond:SER:66     -1
Name: 77, dtype: object

>  <halogenbond:SER:66>  (79) 
halogenbond:SER:66    NaN
halogenbond:SER:66     -1
Name: 77, dtype: object

>  <hbond:SER:67>  (79) 
hbond:SER:67    NaN
hbond:SER:67     -1
Name: 77, dtype: object

>  <halogenbond:SER:67>  (79) 
halogenbond:SER:67    NaN
halogenbond:SER:67     -1
Name: 77, dtype: object

>  <hbond:ARG:68>  (79) 
hbond:ARG:68    NaN
hbond:ARG:68     -1
Name: 77, dtype: object

>  <saltbridge:ARG:68>  (79) 
saltbridge:ARG:68    NaN
saltbridge:ARG:68     -1
Name: 77, dtype: object

>  <hydroph_interaction:ARG:68>  (79) 
hydroph_interaction:ARG:68    NaN
hydroph_interaction:ARG:68     -1
Name: 77, dtype: object

>  <pication:ARG:68>  (79) 
pication:ARG:68    NaN
pication:ARG:68     -1
Name: 77, dtype: object

>  <hydroph_interaction:TYR:72>  (79) 
hydroph_interaction:TYR:72    NaN
hydroph_interaction:TYR:72     -1
Name: 77, dtype: object

>  <hydroph_interaction:VAL:74>  (79) 
hydroph_interaction:VAL:74    NaN
hydroph_interaction:VAL:74     -1
Name: 77, dtype: object

>  <hydroph_interaction:PHE:76>  (79) 
hydroph_interaction:PHE:76    NaN
hydroph_interaction:PHE:76     -1
Name: 77, dtype: object

>  <hbond:SER:77>  (79) 
hbond:SER:77    NaN
hbond:SER:77     -1
Name: 77, dtype: object

>  <hbond:SER:80>  (79) 
hbond:SER:80    NaN
hbond:SER:80     -1
Name: 77, dtype: object

>  <hbond:LEU:81>  (79) 
hbond:LEU:81    NaN
hbond:LEU:81     -1
Name: 77, dtype: object

>  <halogenbond:LEU:81>  (79) 
halogenbond:LEU:81    NaN
halogenbond:LEU:81     -1
Name: 77, dtype: object

>  <hydroph_interaction:LEU:81>  (79) 
hydroph_interaction:LEU:81    NaN
hydroph_interaction:LEU:81     -1
Name: 77, dtype: object

>  <hydroph_interaction:ILE:82>  (79) 
hydroph_interaction:ILE:82    NaN
hydroph_interaction:ILE:82     -1
Name: 77, dtype: object

>  <halogenbond:ILE:82>  (79) 
halogenbond:ILE:82    NaN
halogenbond:ILE:82     -1
Name: 77, dtype: object

>  <hbond:ILE:82>  (79) 
hbond:ILE:82    NaN
hbond:ILE:82     -1
Name: 77, dtype: object

>  <hbond:PHE:83>  (79) 
hbond:PHE:83    NaN
hbond:PHE:83     -1
Name: 77, dtype: object

>  <hydroph_interaction:PHE:83>  (79) 
hydroph_interaction:PHE:83    NaN
hydroph_interaction:PHE:83     -1
Name: 77, dtype: object

>  <halogenbond:PHE:83>  (79) 
halogenbond:PHE:83    NaN
halogenbond:PHE:83     -1
Name: 77, dtype: object

>  <pistack:PHE:83>  (79) 
pistack:PHE:83    NaN
pistack:PHE:83     -1
Name: 77, dtype: object

>  <pication:PHE:83>  (79) 
pication:PHE:83    NaN
pication:PHE:83     -1
Name: 77, dtype: object

>  <hydroph_interaction:VAL:84>  (79) 
hydroph_interaction:VAL:84    0.0
hydroph_interaction:VAL:84      0
Name: 77, dtype: object

>  <halogenbond:VAL:84>  (79) 
halogenbond:VAL:84    NaN
halogenbond:VAL:84     -1
Name: 77, dtype: object

>  <hbond:VAL:84>  (79) 
hbond:VAL:84    NaN
hbond:VAL:84     -1
Name: 77, dtype: object

>  <hydroph_interaction:GLU:85>  (79) 
hydroph_interaction:GLU:85    NaN
hydroph_interaction:GLU:85     -1
Name: 77, dtype: object

>  <hbond:GLU:85>  (79) 
hbond:GLU:85    NaN
hbond:GLU:85     -1
Name: 77, dtype: object

>  <halogenbond:GLU:85>  (79) 
halogenbond:GLU:85    NaN
halogenbond:GLU:85     -1
Name: 77, dtype: object

>  <saltbridge:GLU:85>  (79) 
saltbridge:GLU:85    NaN
saltbridge:GLU:85     -1
Name: 77, dtype: object

>  <halogenbond:ALA:86>  (79) 
halogenbond:ALA:86    NaN
halogenbond:ALA:86     -1
Name: 77, dtype: object

>  <hbond:ALA:86>  (79) 
hbond:ALA:86    0.0
hbond:ALA:86      0
Name: 77, dtype: object

>  <hydroph_interaction:ALA:86>  (79) 
hydroph_interaction:ALA:86    NaN
hydroph_interaction:ALA:86     -1
Name: 77, dtype: object

>  <hbond:SER:87>  (79) 
hbond:SER:87    1
hbond:SER:87    1
Name: 77, dtype: object

>  <halogenbond:SER:87>  (79) 
halogenbond:SER:87    NaN
halogenbond:SER:87     -1
Name: 77, dtype: object

>  <hbond:GLU:88>  (79) 
hbond:GLU:88    1.0
hbond:GLU:88      1
Name: 77, dtype: object

>  <hydroph_interaction:GLU:88>  (79) 
hydroph_interaction:GLU:88    0.0
hydroph_interaction:GLU:88      0
Name: 77, dtype: object

>  <halogenbond:GLU:88>  (79) 
halogenbond:GLU:88    0.0
halogenbond:GLU:88      0
Name: 77, dtype: object

>  <saltbridge:GLU:88>  (79) 
saltbridge:GLU:88    NaN
saltbridge:GLU:88     -1
Name: 77, dtype: object

>  <hydroph_interaction:TYR:89>  (79) 
hydroph_interaction:TYR:89    0.0
hydroph_interaction:TYR:89      0
Name: 77, dtype: object

>  <pistack:TYR:89>  (79) 
pistack:TYR:89    NaN
pistack:TYR:89     -1
Name: 77, dtype: object

>  <hbond:TYR:89>  (79) 
hbond:TYR:89    NaN
hbond:TYR:89     -1
Name: 77, dtype: object

>  <halogenbond:TYR:89>  (79) 
halogenbond:TYR:89    NaN
halogenbond:TYR:89     -1
Name: 77, dtype: object

>  <hydroph_interaction:TYR:90>  (79) 
hydroph_interaction:TYR:90    0.0
hydroph_interaction:TYR:90      0
Name: 77, dtype: object

>  <hbond:TYR:90>  (79) 
hbond:TYR:90    0.0
hbond:TYR:90      0
Name: 77, dtype: object

>  <pistack:TYR:90>  (79) 
pistack:TYR:90    NaN
pistack:TYR:90     -1
Name: 77, dtype: object

>  <halogenbond:TYR:90>  (79) 
halogenbond:TYR:90    NaN
halogenbond:TYR:90     -1
Name: 77, dtype: object

>  <pication:TYR:90>  (79) 
pication:TYR:90    NaN
pication:TYR:90     -1
Name: 77, dtype: object

>  <hbond:PRO:91>  (79) 
hbond:PRO:91    NaN
hbond:PRO:91     -1
Name: 77, dtype: object

>  <hydroph_interaction:PRO:91>  (79) 
hydroph_interaction:PRO:91    NaN
hydroph_interaction:PRO:91     -1
Name: 77, dtype: object

>  <halogenbond:PRO:91>  (79) 
halogenbond:PRO:91    NaN
halogenbond:PRO:91     -1
Name: 77, dtype: object

>  <hbond:ALA:92>  (79) 
hbond:ALA:92    NaN
hbond:ALA:92     -1
Name: 77, dtype: object

>  <hydroph_interaction:ALA:92>  (79) 
hydroph_interaction:ALA:92    NaN
hydroph_interaction:ALA:92     -1
Name: 77, dtype: object

>  <saltbridge:ARG:93>  (79) 
saltbridge:ARG:93    NaN
saltbridge:ARG:93     -1
Name: 77, dtype: object

>  <hbond:ARG:93>  (79) 
hbond:ARG:93    NaN
hbond:ARG:93     -1
Name: 77, dtype: object

>  <hydroph_interaction:ARG:93>  (79) 
hydroph_interaction:ARG:93    NaN
hydroph_interaction:ARG:93     -1
Name: 77, dtype: object

>  <halogenbond:ARG:93>  (79) 
halogenbond:ARG:93    NaN
halogenbond:ARG:93     -1
Name: 77, dtype: object

>  <pication:ARG:93>  (79) 
pication:ARG:93    NaN
pication:ARG:93     -1
Name: 77, dtype: object

>  <hydroph_interaction:TYR:94>  (79) 
hydroph_interaction:TYR:94    NaN
hydroph_interaction:TYR:94     -1
Name: 77, dtype: object

>  <pistack:TYR:94>  (79) 
pistack:TYR:94    NaN
pistack:TYR:94     -1
Name: 77, dtype: object

>  <hbond:TYR:94>  (79) 
hbond:TYR:94    NaN
hbond:TYR:94     -1
Name: 77, dtype: object

>  <hbond:GLN:95>  (79) 
hbond:GLN:95    0.0
hbond:GLN:95      0
Name: 77, dtype: object

>  <hydroph_interaction:GLN:95>  (79) 
hydroph_interaction:GLN:95    NaN
hydroph_interaction:GLN:95     -1
Name: 77, dtype: object

>  <halogenbond:GLN:95>  (79) 
halogenbond:GLN:95    NaN
halogenbond:GLN:95     -1
Name: 77, dtype: object

>  <hbond:SER:96>  (79) 
hbond:SER:96    NaN
hbond:SER:96     -1
Name: 77, dtype: object

>  <halogenbond:HIS:97>  (79) 
halogenbond:HIS:97    NaN
halogenbond:HIS:97     -1
Name: 77, dtype: object

>  <hydroph_interaction:LEU:98>  (79) 
hydroph_interaction:LEU:98    NaN
hydroph_interaction:LEU:98     -1
Name: 77, dtype: object

>  <hbond:LEU:98>  (79) 
hbond:LEU:98    NaN
hbond:LEU:98     -1
Name: 77, dtype: object

>  <halogenbond:LEU:98>  (79) 
halogenbond:LEU:98    NaN
halogenbond:LEU:98     -1
Name: 77, dtype: object

>  <hbond:MET:99>  (79) 
hbond:MET:99    NaN
hbond:MET:99     -1
Name: 77, dtype: object

>  <hydroph_interaction:MET:99>  (79) 
hydroph_interaction:MET:99    NaN
hydroph_interaction:MET:99     -1
Name: 77, dtype: object

>  <halogenbond:MET:99>  (79) 
halogenbond:MET:99    NaN
halogenbond:MET:99     -1
Name: 77, dtype: object

>  <hydroph_interaction:LEU:100>  (79) 
hydroph_interaction:LEU:100    NaN
hydroph_interaction:LEU:100     -1
Name: 77, dtype: object

>  <hbond:LEU:100>  (79) 
hbond:LEU:100    NaN
hbond:LEU:100     -1
Name: 77, dtype: object

>  <hbond:ALA:101>  (79) 
hbond:ALA:101    NaN
hbond:ALA:101     -1
Name: 77, dtype: object

>  <hydroph_interaction:ALA:101>  (79) 
hydroph_interaction:ALA:101    NaN
hydroph_interaction:ALA:101     -1
Name: 77, dtype: object

>  <hydroph_interaction:VAL:102>  (79) 
hydroph_interaction:VAL:102    NaN
hydroph_interaction:VAL:102     -1
Name: 77, dtype: object

>  <hbond:VAL:102>  (79) 
hbond:VAL:102    NaN
hbond:VAL:102     -1
Name: 77, dtype: object

>  <hbond:GLY:103>  (79) 
hbond:GLY:103    NaN
hbond:GLY:103     -1
Name: 77, dtype: object

>  <halogenbond:GLY:103>  (79) 
halogenbond:GLY:103    NaN
halogenbond:GLY:103     -1
Name: 77, dtype: object

>  <hbond:HIS:104>  (79) 
hbond:HIS:104    NaN
hbond:HIS:104     -1
Name: 77, dtype: object

>  <saltbridge:HIS:104>  (79) 
saltbridge:HIS:104    NaN
saltbridge:HIS:104     -1
Name: 77, dtype: object

>  <pication:HIS:104>  (79) 
pication:HIS:104    NaN
pication:HIS:104     -1
Name: 77, dtype: object

>  <halogenbond:HIS:104>  (79) 
halogenbond:HIS:104    NaN
halogenbond:HIS:104     -1
Name: 77, dtype: object

>  <hydroph_interaction:HIS:104>  (79) 
hydroph_interaction:HIS:104    NaN
hydroph_interaction:HIS:104     -1
Name: 77, dtype: object

>  <pistack:HIS:104>  (79) 
pistack:HIS:104    NaN
pistack:HIS:104     -1
Name: 77, dtype: object

>  <halogenbond:SER:105>  (79) 
halogenbond:SER:105    0.0
halogenbond:SER:105      0
Name: 77, dtype: object

>  <hbond:SER:105>  (79) 
hbond:SER:105    0.0
hbond:SER:105      0
Name: 77, dtype: object

>  <hbond:GLU:106>  (79) 
hbond:GLU:106    0.0
hbond:GLU:106      0
Name: 77, dtype: object

>  <hydroph_interaction:GLU:106>  (79) 
hydroph_interaction:GLU:106    0.0
hydroph_interaction:GLU:106      0
Name: 77, dtype: object

>  <saltbridge:GLU:106>  (79) 
saltbridge:GLU:106    NaN
saltbridge:GLU:106     -1
Name: 77, dtype: object

>  <halogenbond:GLU:106>  (79) 
halogenbond:GLU:106    NaN
halogenbond:GLU:106     -1
Name: 77, dtype: object

>  <hydroph_interaction:PRO:107>  (79) 
hydroph_interaction:PRO:107    1
hydroph_interaction:PRO:107    1
Name: 77, dtype: object

>  <hbond:PRO:107>  (79) 
hbond:PRO:107    0.0
hbond:PRO:107      0
Name: 77, dtype: object

>  <halogenbond:PRO:107>  (79) 
halogenbond:PRO:107    0.0
halogenbond:PRO:107      0
Name: 77, dtype: object

>  <hbond:GLY:108>  (79) 
hbond:GLY:108    NaN
hbond:GLY:108     -1
Name: 77, dtype: object

>  <halogenbond:GLY:108>  (79) 
halogenbond:GLY:108    NaN
halogenbond:GLY:108     -1
Name: 77, dtype: object

>  <hbond:ASP:109>  (79) 
hbond:ASP:109    0.0
hbond:ASP:109      0
Name: 77, dtype: object

>  <hydroph_interaction:ASP:109>  (79) 
hydroph_interaction:ASP:109    NaN
hydroph_interaction:ASP:109     -1
Name: 77, dtype: object

>  <saltbridge:ASP:109>  (79) 
saltbridge:ASP:109    NaN
saltbridge:ASP:109     -1
Name: 77, dtype: object

>  <halogenbond:CYS:110>  (79) 
halogenbond:CYS:110    NaN
halogenbond:CYS:110     -1
Name: 77, dtype: object

>  <hbond:CYS:110>  (79) 
hbond:CYS:110    NaN
hbond:CYS:110     -1
Name: 77, dtype: object

>  <hbond:GLY:111>  (79) 
hbond:GLY:111    NaN
hbond:GLY:111     -1
Name: 77, dtype: object

>  <hbond:GLY:112>  (79) 
hbond:GLY:112    NaN
hbond:GLY:112     -1
Name: 77, dtype: object

>  <hbond:ILE:113>  (79) 
hbond:ILE:113    NaN
hbond:ILE:113     -1
Name: 77, dtype: object

>  <hydroph_interaction:LEU:114>  (79) 
hydroph_interaction:LEU:114    NaN
hydroph_interaction:LEU:114     -1
Name: 77, dtype: object

>  <hbond:LEU:114>  (79) 
hbond:LEU:114    NaN
hbond:LEU:114     -1
Name: 77, dtype: object

>  <hydroph_interaction:ILE:123>  (79) 
hydroph_interaction:ILE:123    NaN
hydroph_interaction:ILE:123     -1
Name: 77, dtype: object

>  <hbond:ILE:123>  (79) 
hbond:ILE:123    NaN
hbond:ILE:123     -1
Name: 77, dtype: object

>  <hydroph_interaction:VAL:124>  (79) 
hydroph_interaction:VAL:124    0.0
hydroph_interaction:VAL:124      0
Name: 77, dtype: object

>  <hbond:VAL:124>  (79) 
hbond:VAL:124    NaN
hbond:VAL:124     -1
Name: 77, dtype: object

>  <halogenbond:VAL:124>  (79) 
halogenbond:VAL:124    NaN
halogenbond:VAL:124     -1
Name: 77, dtype: object

>  <hbond:SER:125>  (79) 
hbond:SER:125    1
hbond:SER:125    1
Name: 77, dtype: object

>  <halogenbond:SER:125>  (79) 
halogenbond:SER:125    NaN
halogenbond:SER:125     -1
Name: 77, dtype: object

>  <hydroph_interaction:THR:126>  (79) 
hydroph_interaction:THR:126    0.0
hydroph_interaction:THR:126      0
Name: 77, dtype: object

>  <hbond:THR:126>  (79) 
hbond:THR:126    0.0
hbond:THR:126      0
Name: 77, dtype: object

>  <halogenbond:THR:126>  (79) 
halogenbond:THR:126    NaN
halogenbond:THR:126     -1
Name: 77, dtype: object

>  <hbond:GLY:127>  (79) 
hbond:GLY:127    0
hbond:GLY:127    0
Name: 77, dtype: object

>  <halogenbond:GLY:127>  (79) 
halogenbond:GLY:127    NaN
halogenbond:GLY:127     -1
Name: 77, dtype: object

>  <hydroph_interaction:GLY:127>  (79) 
hydroph_interaction:GLY:127    NaN
hydroph_interaction:GLY:127     -1
Name: 77, dtype: object

>  <hbond:GLY:128>  (79) 
hbond:GLY:128    NaN
hbond:GLY:128     -1
Name: 77, dtype: object

>  <halogenbond:GLY:128>  (79) 
halogenbond:GLY:128    NaN
halogenbond:GLY:128     -1
Name: 77, dtype: object

>  <hydroph_interaction:GLY:128>  (79) 
hydroph_interaction:GLY:128    NaN
hydroph_interaction:GLY:128     -1
Name: 77, dtype: object

>  <hbond:ASN:129>  (79) 
hbond:ASN:129    NaN
hbond:ASN:129     -1
Name: 77, dtype: object

>  <hydroph_interaction:ASN:129>  (79) 
hydroph_interaction:ASN:129    NaN
hydroph_interaction:ASN:129     -1
Name: 77, dtype: object

>  <halogenbond:ASN:129>  (79) 
halogenbond:ASN:129    NaN
halogenbond:ASN:129     -1
Name: 77, dtype: object

>  <hbond:GLY:130>  (79) 
hbond:GLY:130    NaN
hbond:GLY:130     -1
Name: 77, dtype: object

>  <hbond:LEU:131>  (79) 
hbond:LEU:131    NaN
hbond:LEU:131     -1
Name: 77, dtype: object

>  <hydroph_interaction:LEU:131>  (79) 
hydroph_interaction:LEU:131    NaN
hydroph_interaction:LEU:131     -1
Name: 77, dtype: object

>  <halogenbond:LEU:131>  (79) 
halogenbond:LEU:131    NaN
halogenbond:LEU:131     -1
Name: 77, dtype: object

>  <hydroph_interaction:VAL:132>  (79) 
hydroph_interaction:VAL:132    NaN
hydroph_interaction:VAL:132     -1
Name: 77, dtype: object

>  <hbond:VAL:132>  (79) 
hbond:VAL:132    NaN
hbond:VAL:132     -1
Name: 77, dtype: object

>  <hbond:GLY:133>  (79) 
hbond:GLY:133    NaN
hbond:GLY:133     -1
Name: 77, dtype: object

>  <halogenbond:GLY:133>  (79) 
halogenbond:GLY:133    NaN
halogenbond:GLY:133     -1
Name: 77, dtype: object

>  <hydroph_interaction:PHE:134>  (79) 
hydroph_interaction:PHE:134    NaN
hydroph_interaction:PHE:134     -1
Name: 77, dtype: object

>  <hbond:PHE:134>  (79) 
hbond:PHE:134    NaN
hbond:PHE:134     -1
Name: 77, dtype: object

>  <pistack:PHE:134>  (79) 
pistack:PHE:134    NaN
pistack:PHE:134     -1
Name: 77, dtype: object

>  <pication:PHE:134>  (79) 
pication:PHE:134    NaN
pication:PHE:134     -1
Name: 77, dtype: object

>  <halogenbond:PHE:134>  (79) 
halogenbond:PHE:134    NaN
halogenbond:PHE:134     -1
Name: 77, dtype: object

>  <hydroph_interaction:ALA:135>  (79) 
hydroph_interaction:ALA:135    NaN
hydroph_interaction:ALA:135     -1
Name: 77, dtype: object

>  <hbond:ALA:135>  (79) 
hbond:ALA:135    NaN
hbond:ALA:135     -1
Name: 77, dtype: object

$$$$
PV_002829057922
     RDKit          3D

 18 20  0  0  0  0  0  0  0  0999 V2000
   27.3526   15.8451    9.4253 C   0  0  0  0  0  0  0  0  0  0  0  0
   28.6353   15.6837    8.7027 C   0  0  2  0  0  0  0  0  0  0  0  0
   28.5846   14.7199    7.7919 C   0  0  0  0  0  0  0  0  0  0  0  0
   29.5890   13.9411    8.3733 C   0  0  1  0  0  0  0  0  0  0  0  0
   30.8528   13.8434    7.7169 O   0  0  0  0  0  0  0  0  0  0  0  0
   30.8332   13.2794    6.5111 C   0  0  0  0  0  0  0  0  0  0  0  0
   30.5409   13.7362    5.4157 O   0  0  0  0  0  0  0  0  0  0  0  0
   31.2332   11.9492    6.7495 C   0  0  0  0  0  0  0  0  0  0  0  0
   30.3940   11.2669    7.6817 C   0  0  0  0  0  0  0  0  0  0  0  0
   30.7212    9.9992    7.9234 C   0  0  0  0  0  0  0  0  0  0  0  0
   31.8675    9.1717    7.3305 C   0  0  0  0  0  0  0  0  0  0  0  0
   32.6335    9.9093    6.4581 C   0  0  0  0  0  0  0  0  0  0  0  0
   32.3150   11.3578    6.1573 C   0  0  0  0  0  0  0  0  0  0  0  0
   33.3358   12.2158    5.0735 Cl  0  0  0  0  0  0  0  0  0  0  0  0
   31.8867    7.9508    7.7734 O   0  0  0  0  0  0  0  0  0  0  0  0
   30.7477    8.0014    8.6903 C   0  0  0  0  0  0  0  0  0  0  0  0
   30.0342    9.2294    8.7712 O   0  0  0  0  0  0  0  0  0  0  0  0
   29.6313   15.1027    9.4736 C   0  0  0  0  0  0  0  0  0  0  0  0
  2  1  1  1
  2  3  1  0
  3  4  1  0
  4  5  1  6
  5  6  1  0
  6  7  2  0
  6  8  1  0
  8  9  2  0
  9 10  1  0
 10 11  2  0
 11 12  1  0
 12 13  2  0
 13 14  1  0
 11 15  1  0
 15 16  1  0
 16 17  1  0
  4 18  1  0
 18  2  1  0
 13  8  1  0
 17 10  1  0
A    1
 C1 
A    2
 C2 
A    3
 C3 
A    4
 C4 
A    5
 O1 
A    6
 C5 
A    7
 O2 
A    8
 C6 
A    9
 C7 
A   10
 C8 
A   11
 C9 
A   12
 C10
A   13
 C11
A   14
CL1 
A   15
 O3 
A   16
 C12
A   17
 O4 
A   18
 C13
M  END
>  <ref_pdb>  (80) 
Ax0310a

>  <ref_mols>  (80) 
Ax0310a,Ax0528a,Ax0556a

>  <original SMILES>  (80) 
CC1CC(OC(=O)c2cc3c(cc2Cl)OCO3)C1

>  <rationale>  (80) 
info halogenbond:G127+D39+A86+E85+Q95+E106+E88+T126+P107+H104+Y64+C65+S87+N129+F83+R93+L131+I82+G128+P91+N19+H21+V84+G133+Y90+Y89+H97+L81+F134+L98+R20+G103+S66+S67+S7+G108+R38+V124+M99+S36; hbond:E88+P107+Q95+D39+A86+C110+D109+E85+G108+G103+G130+L131+N19+R68+V124+R93+P91+F83+S67+S7+S66+G112+G133+V132+R20+Y89+S77+A135+Y63+A92+A101+M99+F134+L100+I82+Y64+S36+L98+V84+L81+Y94+S80+R38+S37+V102+G8+I123+G111+I113+L114+C65+L22+S96; hydroph_interaction:V84+Y90+Y89+T126+H21+P107+L22+E85+E88+D109+N129+D39+N19+L40+I123+A135+Q95+I82+L100+L98+L131+F83+R93+V132+Y63+F134+H104+R20+A86+V74+P91+A101+F76+M99+L114+A92+Y94+R68+Y72+Y64+V18+V102+W28+G127+G128+L81; pication:H104+R93+Y63+F134+Y90+R68+F83+R20; pistack:H21+Y89+Y90+H104+F134+Y63+F83+Y94; saltbridge:R93+H104+E106+D109+E85+E88+R68+R20; 

>  <intxn_cluster>  (80) 
-1

>  <intxn_cluster_rank>  (80) 
-1

>  <N_interactions>  (80) 
5

>  <∆∆G>  (80) 
-7.434015

>  <$/mg>  (80) 
0.0

>  <comRMSD>  (80) 
0.968074

>  <N_rotatable_bonds>  (80) 
3

>  <deep_P1_sidechain>  (80) 
nan

>  <farthest_distance_to_substrate>  (80) 
2.647321

>  <hbond:SER:7>  (80) 
hbond:SER:7    NaN
hbond:SER:7     -1
Name: 78, dtype: object

>  <halogenbond:SER:7>  (80) 
halogenbond:SER:7    NaN
halogenbond:SER:7     -1
Name: 78, dtype: object

>  <hbond:GLY:8>  (80) 
hbond:GLY:8    NaN
hbond:GLY:8     -1
Name: 78, dtype: object

>  <hydroph_interaction:VAL:18>  (80) 
hydroph_interaction:VAL:18    NaN
hydroph_interaction:VAL:18     -1
Name: 78, dtype: object

>  <hbond:ASN:19>  (80) 
hbond:ASN:19    NaN
hbond:ASN:19     -1
Name: 78, dtype: object

>  <hydroph_interaction:ASN:19>  (80) 
hydroph_interaction:ASN:19    NaN
hydroph_interaction:ASN:19     -1
Name: 78, dtype: object

>  <halogenbond:ASN:19>  (80) 
halogenbond:ASN:19    NaN
halogenbond:ASN:19     -1
Name: 78, dtype: object

>  <hbond:ARG:20>  (80) 
hbond:ARG:20    NaN
hbond:ARG:20     -1
Name: 78, dtype: object

>  <hydroph_interaction:ARG:20>  (80) 
hydroph_interaction:ARG:20    NaN
hydroph_interaction:ARG:20     -1
Name: 78, dtype: object

>  <saltbridge:ARG:20>  (80) 
saltbridge:ARG:20    NaN
saltbridge:ARG:20     -1
Name: 78, dtype: object

>  <halogenbond:ARG:20>  (80) 
halogenbond:ARG:20    NaN
halogenbond:ARG:20     -1
Name: 78, dtype: object

>  <pication:ARG:20>  (80) 
pication:ARG:20    NaN
pication:ARG:20     -1
Name: 78, dtype: object

>  <hbond:HIS:21>  (80) 
hbond:HIS:21    0.0
hbond:HIS:21      0
Name: 78, dtype: object

>  <hydroph_interaction:HIS:21>  (80) 
hydroph_interaction:HIS:21    1.0
hydroph_interaction:HIS:21      1
Name: 78, dtype: object

>  <pistack:HIS:21>  (80) 
pistack:HIS:21    NaN
pistack:HIS:21     -1
Name: 78, dtype: object

>  <pication:HIS:21>  (80) 
pication:HIS:21    0.0
pication:HIS:21      0
Name: 78, dtype: object

>  <saltbridge:HIS:21>  (80) 
saltbridge:HIS:21    0.0
saltbridge:HIS:21      0
Name: 78, dtype: object

>  <halogenbond:HIS:21>  (80) 
halogenbond:HIS:21    NaN
halogenbond:HIS:21     -1
Name: 78, dtype: object

>  <hydroph_interaction:LEU:22>  (80) 
hydroph_interaction:LEU:22    NaN
hydroph_interaction:LEU:22     -1
Name: 78, dtype: object

>  <hbond:LEU:22>  (80) 
hbond:LEU:22    NaN
hbond:LEU:22     -1
Name: 78, dtype: object

>  <hydroph_interaction:TRP:28>  (80) 
hydroph_interaction:TRP:28    NaN
hydroph_interaction:TRP:28     -1
Name: 78, dtype: object

>  <hbond:SER:36>  (80) 
hbond:SER:36    NaN
hbond:SER:36     -1
Name: 78, dtype: object

>  <halogenbond:SER:36>  (80) 
halogenbond:SER:36    NaN
halogenbond:SER:36     -1
Name: 78, dtype: object

>  <hbond:SER:37>  (80) 
hbond:SER:37    NaN
hbond:SER:37     -1
Name: 78, dtype: object

>  <hbond:ARG:38>  (80) 
hbond:ARG:38    NaN
hbond:ARG:38     -1
Name: 78, dtype: object

>  <halogenbond:ARG:38>  (80) 
halogenbond:ARG:38    NaN
halogenbond:ARG:38     -1
Name: 78, dtype: object

>  <saltbridge:ASP:39>  (80) 
saltbridge:ASP:39    0.0
saltbridge:ASP:39      0
Name: 78, dtype: object

>  <halogenbond:ASP:39>  (80) 
halogenbond:ASP:39    NaN
halogenbond:ASP:39     -1
Name: 78, dtype: object

>  <hbond:ASP:39>  (80) 
hbond:ASP:39    NaN
hbond:ASP:39     -1
Name: 78, dtype: object

>  <hydroph_interaction:ASP:39>  (80) 
hydroph_interaction:ASP:39    NaN
hydroph_interaction:ASP:39     -1
Name: 78, dtype: object

>  <hydroph_interaction:LEU:40>  (80) 
hydroph_interaction:LEU:40    NaN
hydroph_interaction:LEU:40     -1
Name: 78, dtype: object

>  <hydroph_interaction:TYR:63>  (80) 
hydroph_interaction:TYR:63    NaN
hydroph_interaction:TYR:63     -1
Name: 78, dtype: object

>  <hbond:TYR:63>  (80) 
hbond:TYR:63    NaN
hbond:TYR:63     -1
Name: 78, dtype: object

>  <pistack:TYR:63>  (80) 
pistack:TYR:63    NaN
pistack:TYR:63     -1
Name: 78, dtype: object

>  <pication:TYR:63>  (80) 
pication:TYR:63    NaN
pication:TYR:63     -1
Name: 78, dtype: object

>  <halogenbond:TYR:64>  (80) 
halogenbond:TYR:64    NaN
halogenbond:TYR:64     -1
Name: 78, dtype: object

>  <hbond:TYR:64>  (80) 
hbond:TYR:64    NaN
hbond:TYR:64     -1
Name: 78, dtype: object

>  <hydroph_interaction:TYR:64>  (80) 
hydroph_interaction:TYR:64    NaN
hydroph_interaction:TYR:64     -1
Name: 78, dtype: object

>  <halogenbond:CYS:65>  (80) 
halogenbond:CYS:65    NaN
halogenbond:CYS:65     -1
Name: 78, dtype: object

>  <hbond:CYS:65>  (80) 
hbond:CYS:65    NaN
hbond:CYS:65     -1
Name: 78, dtype: object

>  <hbond:SER:66>  (80) 
hbond:SER:66    NaN
hbond:SER:66     -1
Name: 78, dtype: object

>  <halogenbond:SER:66>  (80) 
halogenbond:SER:66    NaN
halogenbond:SER:66     -1
Name: 78, dtype: object

>  <hbond:SER:67>  (80) 
hbond:SER:67    NaN
hbond:SER:67     -1
Name: 78, dtype: object

>  <halogenbond:SER:67>  (80) 
halogenbond:SER:67    NaN
halogenbond:SER:67     -1
Name: 78, dtype: object

>  <hbond:ARG:68>  (80) 
hbond:ARG:68    NaN
hbond:ARG:68     -1
Name: 78, dtype: object

>  <saltbridge:ARG:68>  (80) 
saltbridge:ARG:68    NaN
saltbridge:ARG:68     -1
Name: 78, dtype: object

>  <hydroph_interaction:ARG:68>  (80) 
hydroph_interaction:ARG:68    NaN
hydroph_interaction:ARG:68     -1
Name: 78, dtype: object

>  <pication:ARG:68>  (80) 
pication:ARG:68    NaN
pication:ARG:68     -1
Name: 78, dtype: object

>  <hydroph_interaction:TYR:72>  (80) 
hydroph_interaction:TYR:72    NaN
hydroph_interaction:TYR:72     -1
Name: 78, dtype: object

>  <hydroph_interaction:VAL:74>  (80) 
hydroph_interaction:VAL:74    NaN
hydroph_interaction:VAL:74     -1
Name: 78, dtype: object

>  <hydroph_interaction:PHE:76>  (80) 
hydroph_interaction:PHE:76    NaN
hydroph_interaction:PHE:76     -1
Name: 78, dtype: object

>  <hbond:SER:77>  (80) 
hbond:SER:77    NaN
hbond:SER:77     -1
Name: 78, dtype: object

>  <hbond:SER:80>  (80) 
hbond:SER:80    NaN
hbond:SER:80     -1
Name: 78, dtype: object

>  <hbond:LEU:81>  (80) 
hbond:LEU:81    NaN
hbond:LEU:81     -1
Name: 78, dtype: object

>  <halogenbond:LEU:81>  (80) 
halogenbond:LEU:81    NaN
halogenbond:LEU:81     -1
Name: 78, dtype: object

>  <hydroph_interaction:LEU:81>  (80) 
hydroph_interaction:LEU:81    NaN
hydroph_interaction:LEU:81     -1
Name: 78, dtype: object

>  <hydroph_interaction:ILE:82>  (80) 
hydroph_interaction:ILE:82    NaN
hydroph_interaction:ILE:82     -1
Name: 78, dtype: object

>  <halogenbond:ILE:82>  (80) 
halogenbond:ILE:82    NaN
halogenbond:ILE:82     -1
Name: 78, dtype: object

>  <hbond:ILE:82>  (80) 
hbond:ILE:82    NaN
hbond:ILE:82     -1
Name: 78, dtype: object

>  <hbond:PHE:83>  (80) 
hbond:PHE:83    NaN
hbond:PHE:83     -1
Name: 78, dtype: object

>  <hydroph_interaction:PHE:83>  (80) 
hydroph_interaction:PHE:83    NaN
hydroph_interaction:PHE:83     -1
Name: 78, dtype: object

>  <halogenbond:PHE:83>  (80) 
halogenbond:PHE:83    NaN
halogenbond:PHE:83     -1
Name: 78, dtype: object

>  <pistack:PHE:83>  (80) 
pistack:PHE:83    NaN
pistack:PHE:83     -1
Name: 78, dtype: object

>  <pication:PHE:83>  (80) 
pication:PHE:83    NaN
pication:PHE:83     -1
Name: 78, dtype: object

>  <hydroph_interaction:VAL:84>  (80) 
hydroph_interaction:VAL:84    NaN
hydroph_interaction:VAL:84     -1
Name: 78, dtype: object

>  <halogenbond:VAL:84>  (80) 
halogenbond:VAL:84    NaN
halogenbond:VAL:84     -1
Name: 78, dtype: object

>  <hbond:VAL:84>  (80) 
hbond:VAL:84    NaN
hbond:VAL:84     -1
Name: 78, dtype: object

>  <hydroph_interaction:GLU:85>  (80) 
hydroph_interaction:GLU:85    NaN
hydroph_interaction:GLU:85     -1
Name: 78, dtype: object

>  <hbond:GLU:85>  (80) 
hbond:GLU:85    NaN
hbond:GLU:85     -1
Name: 78, dtype: object

>  <halogenbond:GLU:85>  (80) 
halogenbond:GLU:85    NaN
halogenbond:GLU:85     -1
Name: 78, dtype: object

>  <saltbridge:GLU:85>  (80) 
saltbridge:GLU:85    NaN
saltbridge:GLU:85     -1
Name: 78, dtype: object

>  <halogenbond:ALA:86>  (80) 
halogenbond:ALA:86    NaN
halogenbond:ALA:86     -1
Name: 78, dtype: object

>  <hbond:ALA:86>  (80) 
hbond:ALA:86    NaN
hbond:ALA:86     -1
Name: 78, dtype: object

>  <hydroph_interaction:ALA:86>  (80) 
hydroph_interaction:ALA:86    NaN
hydroph_interaction:ALA:86     -1
Name: 78, dtype: object

>  <hbond:SER:87>  (80) 
hbond:SER:87    0
hbond:SER:87    0
Name: 78, dtype: object

>  <halogenbond:SER:87>  (80) 
halogenbond:SER:87    NaN
halogenbond:SER:87     -1
Name: 78, dtype: object

>  <hbond:GLU:88>  (80) 
hbond:GLU:88    1.0
hbond:GLU:88      1
Name: 78, dtype: object

>  <hydroph_interaction:GLU:88>  (80) 
hydroph_interaction:GLU:88    NaN
hydroph_interaction:GLU:88     -1
Name: 78, dtype: object

>  <halogenbond:GLU:88>  (80) 
halogenbond:GLU:88    NaN
halogenbond:GLU:88     -1
Name: 78, dtype: object

>  <saltbridge:GLU:88>  (80) 
saltbridge:GLU:88    NaN
saltbridge:GLU:88     -1
Name: 78, dtype: object

>  <hydroph_interaction:TYR:89>  (80) 
hydroph_interaction:TYR:89    1.0
hydroph_interaction:TYR:89      1
Name: 78, dtype: object

>  <pistack:TYR:89>  (80) 
pistack:TYR:89    NaN
pistack:TYR:89     -1
Name: 78, dtype: object

>  <hbond:TYR:89>  (80) 
hbond:TYR:89    NaN
hbond:TYR:89     -1
Name: 78, dtype: object

>  <halogenbond:TYR:89>  (80) 
halogenbond:TYR:89    NaN
halogenbond:TYR:89     -1
Name: 78, dtype: object

>  <hydroph_interaction:TYR:90>  (80) 
hydroph_interaction:TYR:90    1.0
hydroph_interaction:TYR:90      1
Name: 78, dtype: object

>  <hbond:TYR:90>  (80) 
hbond:TYR:90    0.0
hbond:TYR:90      0
Name: 78, dtype: object

>  <pistack:TYR:90>  (80) 
pistack:TYR:90    NaN
pistack:TYR:90     -1
Name: 78, dtype: object

>  <halogenbond:TYR:90>  (80) 
halogenbond:TYR:90    NaN
halogenbond:TYR:90     -1
Name: 78, dtype: object

>  <pication:TYR:90>  (80) 
pication:TYR:90    NaN
pication:TYR:90     -1
Name: 78, dtype: object

>  <hbond:PRO:91>  (80) 
hbond:PRO:91    NaN
hbond:PRO:91     -1
Name: 78, dtype: object

>  <hydroph_interaction:PRO:91>  (80) 
hydroph_interaction:PRO:91    NaN
hydroph_interaction:PRO:91     -1
Name: 78, dtype: object

>  <halogenbond:PRO:91>  (80) 
halogenbond:PRO:91    NaN
halogenbond:PRO:91     -1
Name: 78, dtype: object

>  <hbond:ALA:92>  (80) 
hbond:ALA:92    NaN
hbond:ALA:92     -1
Name: 78, dtype: object

>  <hydroph_interaction:ALA:92>  (80) 
hydroph_interaction:ALA:92    NaN
hydroph_interaction:ALA:92     -1
Name: 78, dtype: object

>  <saltbridge:ARG:93>  (80) 
saltbridge:ARG:93    NaN
saltbridge:ARG:93     -1
Name: 78, dtype: object

>  <hbond:ARG:93>  (80) 
hbond:ARG:93    NaN
hbond:ARG:93     -1
Name: 78, dtype: object

>  <hydroph_interaction:ARG:93>  (80) 
hydroph_interaction:ARG:93    NaN
hydroph_interaction:ARG:93     -1
Name: 78, dtype: object

>  <halogenbond:ARG:93>  (80) 
halogenbond:ARG:93    NaN
halogenbond:ARG:93     -1
Name: 78, dtype: object

>  <pication:ARG:93>  (80) 
pication:ARG:93    NaN
pication:ARG:93     -1
Name: 78, dtype: object

>  <hydroph_interaction:TYR:94>  (80) 
hydroph_interaction:TYR:94    NaN
hydroph_interaction:TYR:94     -1
Name: 78, dtype: object

>  <pistack:TYR:94>  (80) 
pistack:TYR:94    NaN
pistack:TYR:94     -1
Name: 78, dtype: object

>  <hbond:TYR:94>  (80) 
hbond:TYR:94    NaN
hbond:TYR:94     -1
Name: 78, dtype: object

>  <hbond:GLN:95>  (80) 
hbond:GLN:95    NaN
hbond:GLN:95     -1
Name: 78, dtype: object

>  <hydroph_interaction:GLN:95>  (80) 
hydroph_interaction:GLN:95    NaN
hydroph_interaction:GLN:95     -1
Name: 78, dtype: object

>  <halogenbond:GLN:95>  (80) 
halogenbond:GLN:95    NaN
halogenbond:GLN:95     -1
Name: 78, dtype: object

>  <hbond:SER:96>  (80) 
hbond:SER:96    NaN
hbond:SER:96     -1
Name: 78, dtype: object

>  <halogenbond:HIS:97>  (80) 
halogenbond:HIS:97    NaN
halogenbond:HIS:97     -1
Name: 78, dtype: object

>  <hydroph_interaction:LEU:98>  (80) 
hydroph_interaction:LEU:98    NaN
hydroph_interaction:LEU:98     -1
Name: 78, dtype: object

>  <hbond:LEU:98>  (80) 
hbond:LEU:98    NaN
hbond:LEU:98     -1
Name: 78, dtype: object

>  <halogenbond:LEU:98>  (80) 
halogenbond:LEU:98    NaN
halogenbond:LEU:98     -1
Name: 78, dtype: object

>  <hbond:MET:99>  (80) 
hbond:MET:99    NaN
hbond:MET:99     -1
Name: 78, dtype: object

>  <hydroph_interaction:MET:99>  (80) 
hydroph_interaction:MET:99    NaN
hydroph_interaction:MET:99     -1
Name: 78, dtype: object

>  <halogenbond:MET:99>  (80) 
halogenbond:MET:99    NaN
halogenbond:MET:99     -1
Name: 78, dtype: object

>  <hydroph_interaction:LEU:100>  (80) 
hydroph_interaction:LEU:100    NaN
hydroph_interaction:LEU:100     -1
Name: 78, dtype: object

>  <hbond:LEU:100>  (80) 
hbond:LEU:100    NaN
hbond:LEU:100     -1
Name: 78, dtype: object

>  <hbond:ALA:101>  (80) 
hbond:ALA:101    NaN
hbond:ALA:101     -1
Name: 78, dtype: object

>  <hydroph_interaction:ALA:101>  (80) 
hydroph_interaction:ALA:101    NaN
hydroph_interaction:ALA:101     -1
Name: 78, dtype: object

>  <hydroph_interaction:VAL:102>  (80) 
hydroph_interaction:VAL:102    NaN
hydroph_interaction:VAL:102     -1
Name: 78, dtype: object

>  <hbond:VAL:102>  (80) 
hbond:VAL:102    NaN
hbond:VAL:102     -1
Name: 78, dtype: object

>  <hbond:GLY:103>  (80) 
hbond:GLY:103    NaN
hbond:GLY:103     -1
Name: 78, dtype: object

>  <halogenbond:GLY:103>  (80) 
halogenbond:GLY:103    NaN
halogenbond:GLY:103     -1
Name: 78, dtype: object

>  <hbond:HIS:104>  (80) 
hbond:HIS:104    0.0
hbond:HIS:104      0
Name: 78, dtype: object

>  <saltbridge:HIS:104>  (80) 
saltbridge:HIS:104    NaN
saltbridge:HIS:104     -1
Name: 78, dtype: object

>  <pication:HIS:104>  (80) 
pication:HIS:104    NaN
pication:HIS:104     -1
Name: 78, dtype: object

>  <halogenbond:HIS:104>  (80) 
halogenbond:HIS:104    NaN
halogenbond:HIS:104     -1
Name: 78, dtype: object

>  <hydroph_interaction:HIS:104>  (80) 
hydroph_interaction:HIS:104    NaN
hydroph_interaction:HIS:104     -1
Name: 78, dtype: object

>  <pistack:HIS:104>  (80) 
pistack:HIS:104    NaN
pistack:HIS:104     -1
Name: 78, dtype: object

>  <halogenbond:SER:105>  (80) 
halogenbond:SER:105    0.0
halogenbond:SER:105      0
Name: 78, dtype: object

>  <hbond:SER:105>  (80) 
hbond:SER:105    0.0
hbond:SER:105      0
Name: 78, dtype: object

>  <hbond:GLU:106>  (80) 
hbond:GLU:106    0.0
hbond:GLU:106      0
Name: 78, dtype: object

>  <hydroph_interaction:GLU:106>  (80) 
hydroph_interaction:GLU:106    0.0
hydroph_interaction:GLU:106      0
Name: 78, dtype: object

>  <saltbridge:GLU:106>  (80) 
saltbridge:GLU:106    NaN
saltbridge:GLU:106     -1
Name: 78, dtype: object

>  <halogenbond:GLU:106>  (80) 
halogenbond:GLU:106    NaN
halogenbond:GLU:106     -1
Name: 78, dtype: object

>  <hydroph_interaction:PRO:107>  (80) 
hydroph_interaction:PRO:107    1
hydroph_interaction:PRO:107    1
Name: 78, dtype: object

>  <hbond:PRO:107>  (80) 
hbond:PRO:107    NaN
hbond:PRO:107     -1
Name: 78, dtype: object

>  <halogenbond:PRO:107>  (80) 
halogenbond:PRO:107    NaN
halogenbond:PRO:107     -1
Name: 78, dtype: object

>  <hbond:GLY:108>  (80) 
hbond:GLY:108    NaN
hbond:GLY:108     -1
Name: 78, dtype: object

>  <halogenbond:GLY:108>  (80) 
halogenbond:GLY:108    NaN
halogenbond:GLY:108     -1
Name: 78, dtype: object

>  <hbond:ASP:109>  (80) 
hbond:ASP:109    NaN
hbond:ASP:109     -1
Name: 78, dtype: object

>  <hydroph_interaction:ASP:109>  (80) 
hydroph_interaction:ASP:109    NaN
hydroph_interaction:ASP:109     -1
Name: 78, dtype: object

>  <saltbridge:ASP:109>  (80) 
saltbridge:ASP:109    NaN
saltbridge:ASP:109     -1
Name: 78, dtype: object

>  <halogenbond:CYS:110>  (80) 
halogenbond:CYS:110    0.0
halogenbond:CYS:110      0
Name: 78, dtype: object

>  <hbond:CYS:110>  (80) 
hbond:CYS:110    NaN
hbond:CYS:110     -1
Name: 78, dtype: object

>  <hbond:GLY:111>  (80) 
hbond:GLY:111    NaN
hbond:GLY:111     -1
Name: 78, dtype: object

>  <hbond:GLY:112>  (80) 
hbond:GLY:112    NaN
hbond:GLY:112     -1
Name: 78, dtype: object

>  <hbond:ILE:113>  (80) 
hbond:ILE:113    NaN
hbond:ILE:113     -1
Name: 78, dtype: object

>  <hydroph_interaction:LEU:114>  (80) 
hydroph_interaction:LEU:114    NaN
hydroph_interaction:LEU:114     -1
Name: 78, dtype: object

>  <hbond:LEU:114>  (80) 
hbond:LEU:114    NaN
hbond:LEU:114     -1
Name: 78, dtype: object

>  <hydroph_interaction:ILE:123>  (80) 
hydroph_interaction:ILE:123    NaN
hydroph_interaction:ILE:123     -1
Name: 78, dtype: object

>  <hbond:ILE:123>  (80) 
hbond:ILE:123    NaN
hbond:ILE:123     -1
Name: 78, dtype: object

>  <hydroph_interaction:VAL:124>  (80) 
hydroph_interaction:VAL:124    0.0
hydroph_interaction:VAL:124      0
Name: 78, dtype: object

>  <hbond:VAL:124>  (80) 
hbond:VAL:124    NaN
hbond:VAL:124     -1
Name: 78, dtype: object

>  <halogenbond:VAL:124>  (80) 
halogenbond:VAL:124    NaN
halogenbond:VAL:124     -1
Name: 78, dtype: object

>  <hbond:SER:125>  (80) 
hbond:SER:125    0
hbond:SER:125    0
Name: 78, dtype: object

>  <halogenbond:SER:125>  (80) 
halogenbond:SER:125    0.0
halogenbond:SER:125      0
Name: 78, dtype: object

>  <hydroph_interaction:THR:126>  (80) 
hydroph_interaction:THR:126    NaN
hydroph_interaction:THR:126     -1
Name: 78, dtype: object

>  <hbond:THR:126>  (80) 
hbond:THR:126    0.0
hbond:THR:126      0
Name: 78, dtype: object

>  <halogenbond:THR:126>  (80) 
halogenbond:THR:126    NaN
halogenbond:THR:126     -1
Name: 78, dtype: object

>  <hbond:GLY:127>  (80) 
hbond:GLY:127    0
hbond:GLY:127    0
Name: 78, dtype: object

>  <halogenbond:GLY:127>  (80) 
halogenbond:GLY:127    NaN
halogenbond:GLY:127     -1
Name: 78, dtype: object

>  <hydroph_interaction:GLY:127>  (80) 
hydroph_interaction:GLY:127    NaN
hydroph_interaction:GLY:127     -1
Name: 78, dtype: object

>  <hbond:GLY:128>  (80) 
hbond:GLY:128    0.0
hbond:GLY:128      0
Name: 78, dtype: object

>  <halogenbond:GLY:128>  (80) 
halogenbond:GLY:128    NaN
halogenbond:GLY:128     -1
Name: 78, dtype: object

>  <hydroph_interaction:GLY:128>  (80) 
hydroph_interaction:GLY:128    NaN
hydroph_interaction:GLY:128     -1
Name: 78, dtype: object

>  <hbond:ASN:129>  (80) 
hbond:ASN:129    0.0
hbond:ASN:129      0
Name: 78, dtype: object

>  <hydroph_interaction:ASN:129>  (80) 
hydroph_interaction:ASN:129    NaN
hydroph_interaction:ASN:129     -1
Name: 78, dtype: object

>  <halogenbond:ASN:129>  (80) 
halogenbond:ASN:129    NaN
halogenbond:ASN:129     -1
Name: 78, dtype: object

>  <hbond:GLY:130>  (80) 
hbond:GLY:130    NaN
hbond:GLY:130     -1
Name: 78, dtype: object

>  <hbond:LEU:131>  (80) 
hbond:LEU:131    NaN
hbond:LEU:131     -1
Name: 78, dtype: object

>  <hydroph_interaction:LEU:131>  (80) 
hydroph_interaction:LEU:131    NaN
hydroph_interaction:LEU:131     -1
Name: 78, dtype: object

>  <halogenbond:LEU:131>  (80) 
halogenbond:LEU:131    NaN
halogenbond:LEU:131     -1
Name: 78, dtype: object

>  <hydroph_interaction:VAL:132>  (80) 
hydroph_interaction:VAL:132    NaN
hydroph_interaction:VAL:132     -1
Name: 78, dtype: object

>  <hbond:VAL:132>  (80) 
hbond:VAL:132    NaN
hbond:VAL:132     -1
Name: 78, dtype: object

>  <hbond:GLY:133>  (80) 
hbond:GLY:133    NaN
hbond:GLY:133     -1
Name: 78, dtype: object

>  <halogenbond:GLY:133>  (80) 
halogenbond:GLY:133    NaN
halogenbond:GLY:133     -1
Name: 78, dtype: object

>  <hydroph_interaction:PHE:134>  (80) 
hydroph_interaction:PHE:134    NaN
hydroph_interaction:PHE:134     -1
Name: 78, dtype: object

>  <hbond:PHE:134>  (80) 
hbond:PHE:134    NaN
hbond:PHE:134     -1
Name: 78, dtype: object

>  <pistack:PHE:134>  (80) 
pistack:PHE:134    NaN
pistack:PHE:134     -1
Name: 78, dtype: object

>  <pication:PHE:134>  (80) 
pication:PHE:134    NaN
pication:PHE:134     -1
Name: 78, dtype: object

>  <halogenbond:PHE:134>  (80) 
halogenbond:PHE:134    NaN
halogenbond:PHE:134     -1
Name: 78, dtype: object

>  <hydroph_interaction:ALA:135>  (80) 
hydroph_interaction:ALA:135    NaN
hydroph_interaction:ALA:135     -1
Name: 78, dtype: object

>  <hbond:ALA:135>  (80) 
hbond:ALA:135    NaN
hbond:ALA:135     -1
Name: 78, dtype: object

$$$$
PV_002149752150
     RDKit          3D

 13 13  0  0  0  0  0  0  0  0999 V2000
   30.8099   15.2946   10.4178 C   0  0  0  0  0  0  0  0  0  0  0  0
   30.1437   14.4550    9.3193 C   0  0  0  0  0  0  0  0  0  0  0  0
   31.1392   13.7335    8.5321 N   0  0  0  0  0  0  0  0  0  0  0  0
   30.8384   13.1400    7.3478 C   0  0  2  0  0  0  0  0  0  0  0  0
   29.3556   13.2864    6.9215 C   0  0  0  0  0  0  0  0  0  0  0  0
   31.2454   11.6867    7.3504 C   0  0  0  0  0  0  0  0  0  0  0  0
   32.2743   11.2789    6.5155 C   0  0  0  0  0  0  0  0  0  0  0  0
   32.6693    9.9600    6.4785 C   0  0  0  0  0  0  0  0  0  0  0  0
   33.7161    9.5765    5.6306 C   0  0  0  0  0  0  0  0  0  0  0  0
   32.0208    9.0339    7.2906 C   0  0  0  0  0  0  0  0  0  0  0  0
   31.0010    9.4186    8.1341 C   0  0  0  0  0  0  0  0  0  0  0  0
   30.3405    8.4095    8.9993 C   0  0  0  0  0  0  0  0  0  0  0  0
   30.6105   10.7499    8.1625 C   0  0  0  0  0  0  0  0  0  0  0  0
  1  2  1  0
  2  3  1  0
  3  4  1  0
  4  5  1  1
  4  6  1  0
  6  7  2  0
  7  8  1  0
  8  9  1  0
  8 10  2  0
 10 11  1  0
 11 12  1  0
 11 13  2  0
 13  6  1  0
A    1
 C1 
A    2
 C2 
A    3
 N1 
A    4
 C3 
A    5
 C4 
A    6
 C5 
A    7
 C6 
A    8
 C7 
A    9
 C8 
A   10
 C9 
A   11
 C10
A   12
 C11
A   13
 C12
M  END
>  <ref_pdb>  (81) 
Ax0310a

>  <ref_mols>  (81) 
Ax0451a,Ax0739a

>  <original SMILES>  (81) 
CCNC(C)c1cc(C)cc(C)c1

>  <rationale>  (81) 
info halogenbond:C110+G127+D39+S125+E85+Q95+E106+E88+T126+P107+H104+Y64+C65+S87+N129+F83+R93+L131+I82+G128+P91+N19+H21+V84+G133+Y90+Y89+H97+L81+F134+L98+R20+G103+S66+S67+S7+G108+R38+V124+M99+S36; hbond:S87+S125+Q95+A86+E85+G108+G103+G128+G130+L131+N129+N19+H104+R68+V124+R93+P91+F83+S67+S7+S66+G112+V132+R20+Y89+S77+A135+Y63+A92+A101+M99+F134+L100+I82+Y64+S36+L98+V84+L81+Y94+S80+R38+S37+V102+G8+I123+G111+I113+L114+C65+L22+S96; hydroph_interaction:V124+Y90+T126+H21+P107+L22+E106+N129+D39+N19+L40+I123+A135+Q95+I82+L100+L98+L131+F83+R93+V132+Y63+F134+H104+R20+A86+V74+P91+A101+F76+M99+L114+A92+Y94+R68+Y72+Y64+V18+V102+W28+G127+G128+L81; pication:H104+R93+Y63+F134+Y90+R68+F83+R20; pistack:H21+Y89+Y90+H104+F134+Y63+F83+Y94; saltbridge:D39+R93+H104+E106+D109+E85+E88+R68+R20; 

>  <intxn_cluster>  (81) 
-1

>  <intxn_cluster_rank>  (81) 
-1

>  <N_interactions>  (81) 
6

>  <∆∆G>  (81) 
-12.819818

>  <$/mg>  (81) 
163.0

>  <comRMSD>  (81) 
0.956177

>  <N_rotatable_bonds>  (81) 
7

>  <deep_P1_sidechain>  (81) 
nan

>  <farthest_distance_to_substrate>  (81) 
2.517293

>  <hbond:SER:7>  (81) 
hbond:SER:7    NaN
hbond:SER:7     -1
Name: 79, dtype: object

>  <halogenbond:SER:7>  (81) 
halogenbond:SER:7    NaN
halogenbond:SER:7     -1
Name: 79, dtype: object

>  <hbond:GLY:8>  (81) 
hbond:GLY:8    NaN
hbond:GLY:8     -1
Name: 79, dtype: object

>  <hydroph_interaction:VAL:18>  (81) 
hydroph_interaction:VAL:18    NaN
hydroph_interaction:VAL:18     -1
Name: 79, dtype: object

>  <hbond:ASN:19>  (81) 
hbond:ASN:19    NaN
hbond:ASN:19     -1
Name: 79, dtype: object

>  <hydroph_interaction:ASN:19>  (81) 
hydroph_interaction:ASN:19    NaN
hydroph_interaction:ASN:19     -1
Name: 79, dtype: object

>  <halogenbond:ASN:19>  (81) 
halogenbond:ASN:19    NaN
halogenbond:ASN:19     -1
Name: 79, dtype: object

>  <hbond:ARG:20>  (81) 
hbond:ARG:20    NaN
hbond:ARG:20     -1
Name: 79, dtype: object

>  <hydroph_interaction:ARG:20>  (81) 
hydroph_interaction:ARG:20    NaN
hydroph_interaction:ARG:20     -1
Name: 79, dtype: object

>  <saltbridge:ARG:20>  (81) 
saltbridge:ARG:20    NaN
saltbridge:ARG:20     -1
Name: 79, dtype: object

>  <halogenbond:ARG:20>  (81) 
halogenbond:ARG:20    NaN
halogenbond:ARG:20     -1
Name: 79, dtype: object

>  <pication:ARG:20>  (81) 
pication:ARG:20    NaN
pication:ARG:20     -1
Name: 79, dtype: object

>  <hbond:HIS:21>  (81) 
hbond:HIS:21    0.0
hbond:HIS:21      0
Name: 79, dtype: object

>  <hydroph_interaction:HIS:21>  (81) 
hydroph_interaction:HIS:21    NaN
hydroph_interaction:HIS:21     -1
Name: 79, dtype: object

>  <pistack:HIS:21>  (81) 
pistack:HIS:21    NaN
pistack:HIS:21     -1
Name: 79, dtype: object

>  <pication:HIS:21>  (81) 
pication:HIS:21    0.0
pication:HIS:21      0
Name: 79, dtype: object

>  <saltbridge:HIS:21>  (81) 
saltbridge:HIS:21    0.0
saltbridge:HIS:21      0
Name: 79, dtype: object

>  <halogenbond:HIS:21>  (81) 
halogenbond:HIS:21    NaN
halogenbond:HIS:21     -1
Name: 79, dtype: object

>  <hydroph_interaction:LEU:22>  (81) 
hydroph_interaction:LEU:22    NaN
hydroph_interaction:LEU:22     -1
Name: 79, dtype: object

>  <hbond:LEU:22>  (81) 
hbond:LEU:22    NaN
hbond:LEU:22     -1
Name: 79, dtype: object

>  <hydroph_interaction:TRP:28>  (81) 
hydroph_interaction:TRP:28    NaN
hydroph_interaction:TRP:28     -1
Name: 79, dtype: object

>  <hbond:SER:36>  (81) 
hbond:SER:36    NaN
hbond:SER:36     -1
Name: 79, dtype: object

>  <halogenbond:SER:36>  (81) 
halogenbond:SER:36    NaN
halogenbond:SER:36     -1
Name: 79, dtype: object

>  <hbond:SER:37>  (81) 
hbond:SER:37    NaN
hbond:SER:37     -1
Name: 79, dtype: object

>  <hbond:ARG:38>  (81) 
hbond:ARG:38    NaN
hbond:ARG:38     -1
Name: 79, dtype: object

>  <halogenbond:ARG:38>  (81) 
halogenbond:ARG:38    NaN
halogenbond:ARG:38     -1
Name: 79, dtype: object

>  <saltbridge:ASP:39>  (81) 
saltbridge:ASP:39    NaN
saltbridge:ASP:39     -1
Name: 79, dtype: object

>  <halogenbond:ASP:39>  (81) 
halogenbond:ASP:39    NaN
halogenbond:ASP:39     -1
Name: 79, dtype: object

>  <hbond:ASP:39>  (81) 
hbond:ASP:39    0.0
hbond:ASP:39      0
Name: 79, dtype: object

>  <hydroph_interaction:ASP:39>  (81) 
hydroph_interaction:ASP:39    NaN
hydroph_interaction:ASP:39     -1
Name: 79, dtype: object

>  <hydroph_interaction:LEU:40>  (81) 
hydroph_interaction:LEU:40    NaN
hydroph_interaction:LEU:40     -1
Name: 79, dtype: object

>  <hydroph_interaction:TYR:63>  (81) 
hydroph_interaction:TYR:63    NaN
hydroph_interaction:TYR:63     -1
Name: 79, dtype: object

>  <hbond:TYR:63>  (81) 
hbond:TYR:63    NaN
hbond:TYR:63     -1
Name: 79, dtype: object

>  <pistack:TYR:63>  (81) 
pistack:TYR:63    NaN
pistack:TYR:63     -1
Name: 79, dtype: object

>  <pication:TYR:63>  (81) 
pication:TYR:63    NaN
pication:TYR:63     -1
Name: 79, dtype: object

>  <halogenbond:TYR:64>  (81) 
halogenbond:TYR:64    NaN
halogenbond:TYR:64     -1
Name: 79, dtype: object

>  <hbond:TYR:64>  (81) 
hbond:TYR:64    NaN
hbond:TYR:64     -1
Name: 79, dtype: object

>  <hydroph_interaction:TYR:64>  (81) 
hydroph_interaction:TYR:64    NaN
hydroph_interaction:TYR:64     -1
Name: 79, dtype: object

>  <halogenbond:CYS:65>  (81) 
halogenbond:CYS:65    NaN
halogenbond:CYS:65     -1
Name: 79, dtype: object

>  <hbond:CYS:65>  (81) 
hbond:CYS:65    NaN
hbond:CYS:65     -1
Name: 79, dtype: object

>  <hbond:SER:66>  (81) 
hbond:SER:66    NaN
hbond:SER:66     -1
Name: 79, dtype: object

>  <halogenbond:SER:66>  (81) 
halogenbond:SER:66    NaN
halogenbond:SER:66     -1
Name: 79, dtype: object

>  <hbond:SER:67>  (81) 
hbond:SER:67    NaN
hbond:SER:67     -1
Name: 79, dtype: object

>  <halogenbond:SER:67>  (81) 
halogenbond:SER:67    NaN
halogenbond:SER:67     -1
Name: 79, dtype: object

>  <hbond:ARG:68>  (81) 
hbond:ARG:68    NaN
hbond:ARG:68     -1
Name: 79, dtype: object

>  <saltbridge:ARG:68>  (81) 
saltbridge:ARG:68    NaN
saltbridge:ARG:68     -1
Name: 79, dtype: object

>  <hydroph_interaction:ARG:68>  (81) 
hydroph_interaction:ARG:68    NaN
hydroph_interaction:ARG:68     -1
Name: 79, dtype: object

>  <pication:ARG:68>  (81) 
pication:ARG:68    NaN
pication:ARG:68     -1
Name: 79, dtype: object

>  <hydroph_interaction:TYR:72>  (81) 
hydroph_interaction:TYR:72    NaN
hydroph_interaction:TYR:72     -1
Name: 79, dtype: object

>  <hydroph_interaction:VAL:74>  (81) 
hydroph_interaction:VAL:74    NaN
hydroph_interaction:VAL:74     -1
Name: 79, dtype: object

>  <hydroph_interaction:PHE:76>  (81) 
hydroph_interaction:PHE:76    NaN
hydroph_interaction:PHE:76     -1
Name: 79, dtype: object

>  <hbond:SER:77>  (81) 
hbond:SER:77    NaN
hbond:SER:77     -1
Name: 79, dtype: object

>  <hbond:SER:80>  (81) 
hbond:SER:80    NaN
hbond:SER:80     -1
Name: 79, dtype: object

>  <hbond:LEU:81>  (81) 
hbond:LEU:81    NaN
hbond:LEU:81     -1
Name: 79, dtype: object

>  <halogenbond:LEU:81>  (81) 
halogenbond:LEU:81    NaN
halogenbond:LEU:81     -1
Name: 79, dtype: object

>  <hydroph_interaction:LEU:81>  (81) 
hydroph_interaction:LEU:81    NaN
hydroph_interaction:LEU:81     -1
Name: 79, dtype: object

>  <hydroph_interaction:ILE:82>  (81) 
hydroph_interaction:ILE:82    NaN
hydroph_interaction:ILE:82     -1
Name: 79, dtype: object

>  <halogenbond:ILE:82>  (81) 
halogenbond:ILE:82    NaN
halogenbond:ILE:82     -1
Name: 79, dtype: object

>  <hbond:ILE:82>  (81) 
hbond:ILE:82    NaN
hbond:ILE:82     -1
Name: 79, dtype: object

>  <hbond:PHE:83>  (81) 
hbond:PHE:83    NaN
hbond:PHE:83     -1
Name: 79, dtype: object

>  <hydroph_interaction:PHE:83>  (81) 
hydroph_interaction:PHE:83    NaN
hydroph_interaction:PHE:83     -1
Name: 79, dtype: object

>  <halogenbond:PHE:83>  (81) 
halogenbond:PHE:83    NaN
halogenbond:PHE:83     -1
Name: 79, dtype: object

>  <pistack:PHE:83>  (81) 
pistack:PHE:83    NaN
pistack:PHE:83     -1
Name: 79, dtype: object

>  <pication:PHE:83>  (81) 
pication:PHE:83    NaN
pication:PHE:83     -1
Name: 79, dtype: object

>  <hydroph_interaction:VAL:84>  (81) 
hydroph_interaction:VAL:84    0.0
hydroph_interaction:VAL:84      0
Name: 79, dtype: object

>  <halogenbond:VAL:84>  (81) 
halogenbond:VAL:84    NaN
halogenbond:VAL:84     -1
Name: 79, dtype: object

>  <hbond:VAL:84>  (81) 
hbond:VAL:84    NaN
hbond:VAL:84     -1
Name: 79, dtype: object

>  <hydroph_interaction:GLU:85>  (81) 
hydroph_interaction:GLU:85    0.0
hydroph_interaction:GLU:85      0
Name: 79, dtype: object

>  <hbond:GLU:85>  (81) 
hbond:GLU:85    NaN
hbond:GLU:85     -1
Name: 79, dtype: object

>  <halogenbond:GLU:85>  (81) 
halogenbond:GLU:85    NaN
halogenbond:GLU:85     -1
Name: 79, dtype: object

>  <saltbridge:GLU:85>  (81) 
saltbridge:GLU:85    NaN
saltbridge:GLU:85     -1
Name: 79, dtype: object

>  <halogenbond:ALA:86>  (81) 
halogenbond:ALA:86    0.0
halogenbond:ALA:86      0
Name: 79, dtype: object

>  <hbond:ALA:86>  (81) 
hbond:ALA:86    NaN
hbond:ALA:86     -1
Name: 79, dtype: object

>  <hydroph_interaction:ALA:86>  (81) 
hydroph_interaction:ALA:86    NaN
hydroph_interaction:ALA:86     -1
Name: 79, dtype: object

>  <hbond:SER:87>  (81) 
hbond:SER:87    1
hbond:SER:87    1
Name: 79, dtype: object

>  <halogenbond:SER:87>  (81) 
halogenbond:SER:87    NaN
halogenbond:SER:87     -1
Name: 79, dtype: object

>  <hbond:GLU:88>  (81) 
hbond:GLU:88    0.0
hbond:GLU:88      0
Name: 79, dtype: object

>  <hydroph_interaction:GLU:88>  (81) 
hydroph_interaction:GLU:88    0.0
hydroph_interaction:GLU:88      0
Name: 79, dtype: object

>  <halogenbond:GLU:88>  (81) 
halogenbond:GLU:88    NaN
halogenbond:GLU:88     -1
Name: 79, dtype: object

>  <saltbridge:GLU:88>  (81) 
saltbridge:GLU:88    NaN
saltbridge:GLU:88     -1
Name: 79, dtype: object

>  <hydroph_interaction:TYR:89>  (81) 
hydroph_interaction:TYR:89    0.0
hydroph_interaction:TYR:89      0
Name: 79, dtype: object

>  <pistack:TYR:89>  (81) 
pistack:TYR:89    NaN
pistack:TYR:89     -1
Name: 79, dtype: object

>  <hbond:TYR:89>  (81) 
hbond:TYR:89    NaN
hbond:TYR:89     -1
Name: 79, dtype: object

>  <halogenbond:TYR:89>  (81) 
halogenbond:TYR:89    NaN
halogenbond:TYR:89     -1
Name: 79, dtype: object

>  <hydroph_interaction:TYR:90>  (81) 
hydroph_interaction:TYR:90    1.0
hydroph_interaction:TYR:90      1
Name: 79, dtype: object

>  <hbond:TYR:90>  (81) 
hbond:TYR:90    0.0
hbond:TYR:90      0
Name: 79, dtype: object

>  <pistack:TYR:90>  (81) 
pistack:TYR:90    NaN
pistack:TYR:90     -1
Name: 79, dtype: object

>  <halogenbond:TYR:90>  (81) 
halogenbond:TYR:90    NaN
halogenbond:TYR:90     -1
Name: 79, dtype: object

>  <pication:TYR:90>  (81) 
pication:TYR:90    NaN
pication:TYR:90     -1
Name: 79, dtype: object

>  <hbond:PRO:91>  (81) 
hbond:PRO:91    NaN
hbond:PRO:91     -1
Name: 79, dtype: object

>  <hydroph_interaction:PRO:91>  (81) 
hydroph_interaction:PRO:91    NaN
hydroph_interaction:PRO:91     -1
Name: 79, dtype: object

>  <halogenbond:PRO:91>  (81) 
halogenbond:PRO:91    NaN
halogenbond:PRO:91     -1
Name: 79, dtype: object

>  <hbond:ALA:92>  (81) 
hbond:ALA:92    NaN
hbond:ALA:92     -1
Name: 79, dtype: object

>  <hydroph_interaction:ALA:92>  (81) 
hydroph_interaction:ALA:92    NaN
hydroph_interaction:ALA:92     -1
Name: 79, dtype: object

>  <saltbridge:ARG:93>  (81) 
saltbridge:ARG:93    NaN
saltbridge:ARG:93     -1
Name: 79, dtype: object

>  <hbond:ARG:93>  (81) 
hbond:ARG:93    NaN
hbond:ARG:93     -1
Name: 79, dtype: object

>  <hydroph_interaction:ARG:93>  (81) 
hydroph_interaction:ARG:93    NaN
hydroph_interaction:ARG:93     -1
Name: 79, dtype: object

>  <halogenbond:ARG:93>  (81) 
halogenbond:ARG:93    NaN
halogenbond:ARG:93     -1
Name: 79, dtype: object

>  <pication:ARG:93>  (81) 
pication:ARG:93    NaN
pication:ARG:93     -1
Name: 79, dtype: object

>  <hydroph_interaction:TYR:94>  (81) 
hydroph_interaction:TYR:94    NaN
hydroph_interaction:TYR:94     -1
Name: 79, dtype: object

>  <pistack:TYR:94>  (81) 
pistack:TYR:94    NaN
pistack:TYR:94     -1
Name: 79, dtype: object

>  <hbond:TYR:94>  (81) 
hbond:TYR:94    NaN
hbond:TYR:94     -1
Name: 79, dtype: object

>  <hbond:GLN:95>  (81) 
hbond:GLN:95    NaN
hbond:GLN:95     -1
Name: 79, dtype: object

>  <hydroph_interaction:GLN:95>  (81) 
hydroph_interaction:GLN:95    NaN
hydroph_interaction:GLN:95     -1
Name: 79, dtype: object

>  <halogenbond:GLN:95>  (81) 
halogenbond:GLN:95    NaN
halogenbond:GLN:95     -1
Name: 79, dtype: object

>  <hbond:SER:96>  (81) 
hbond:SER:96    NaN
hbond:SER:96     -1
Name: 79, dtype: object

>  <halogenbond:HIS:97>  (81) 
halogenbond:HIS:97    NaN
halogenbond:HIS:97     -1
Name: 79, dtype: object

>  <hydroph_interaction:LEU:98>  (81) 
hydroph_interaction:LEU:98    NaN
hydroph_interaction:LEU:98     -1
Name: 79, dtype: object

>  <hbond:LEU:98>  (81) 
hbond:LEU:98    NaN
hbond:LEU:98     -1
Name: 79, dtype: object

>  <halogenbond:LEU:98>  (81) 
halogenbond:LEU:98    NaN
halogenbond:LEU:98     -1
Name: 79, dtype: object

>  <hbond:MET:99>  (81) 
hbond:MET:99    NaN
hbond:MET:99     -1
Name: 79, dtype: object

>  <hydroph_interaction:MET:99>  (81) 
hydroph_interaction:MET:99    NaN
hydroph_interaction:MET:99     -1
Name: 79, dtype: object

>  <halogenbond:MET:99>  (81) 
halogenbond:MET:99    NaN
halogenbond:MET:99     -1
Name: 79, dtype: object

>  <hydroph_interaction:LEU:100>  (81) 
hydroph_interaction:LEU:100    NaN
hydroph_interaction:LEU:100     -1
Name: 79, dtype: object

>  <hbond:LEU:100>  (81) 
hbond:LEU:100    NaN
hbond:LEU:100     -1
Name: 79, dtype: object

>  <hbond:ALA:101>  (81) 
hbond:ALA:101    NaN
hbond:ALA:101     -1
Name: 79, dtype: object

>  <hydroph_interaction:ALA:101>  (81) 
hydroph_interaction:ALA:101    NaN
hydroph_interaction:ALA:101     -1
Name: 79, dtype: object

>  <hydroph_interaction:VAL:102>  (81) 
hydroph_interaction:VAL:102    NaN
hydroph_interaction:VAL:102     -1
Name: 79, dtype: object

>  <hbond:VAL:102>  (81) 
hbond:VAL:102    NaN
hbond:VAL:102     -1
Name: 79, dtype: object

>  <hbond:GLY:103>  (81) 
hbond:GLY:103    NaN
hbond:GLY:103     -1
Name: 79, dtype: object

>  <halogenbond:GLY:103>  (81) 
halogenbond:GLY:103    NaN
halogenbond:GLY:103     -1
Name: 79, dtype: object

>  <hbond:HIS:104>  (81) 
hbond:HIS:104    NaN
hbond:HIS:104     -1
Name: 79, dtype: object

>  <saltbridge:HIS:104>  (81) 
saltbridge:HIS:104    NaN
saltbridge:HIS:104     -1
Name: 79, dtype: object

>  <pication:HIS:104>  (81) 
pication:HIS:104    NaN
pication:HIS:104     -1
Name: 79, dtype: object

>  <halogenbond:HIS:104>  (81) 
halogenbond:HIS:104    NaN
halogenbond:HIS:104     -1
Name: 79, dtype: object

>  <hydroph_interaction:HIS:104>  (81) 
hydroph_interaction:HIS:104    NaN
hydroph_interaction:HIS:104     -1
Name: 79, dtype: object

>  <pistack:HIS:104>  (81) 
pistack:HIS:104    NaN
pistack:HIS:104     -1
Name: 79, dtype: object

>  <halogenbond:SER:105>  (81) 
halogenbond:SER:105    0.0
halogenbond:SER:105      0
Name: 79, dtype: object

>  <hbond:SER:105>  (81) 
hbond:SER:105    0.0
hbond:SER:105      0
Name: 79, dtype: object

>  <hbond:GLU:106>  (81) 
hbond:GLU:106    0.0
hbond:GLU:106      0
Name: 79, dtype: object

>  <hydroph_interaction:GLU:106>  (81) 
hydroph_interaction:GLU:106    NaN
hydroph_interaction:GLU:106     -1
Name: 79, dtype: object

>  <saltbridge:GLU:106>  (81) 
saltbridge:GLU:106    NaN
saltbridge:GLU:106     -1
Name: 79, dtype: object

>  <halogenbond:GLU:106>  (81) 
halogenbond:GLU:106    NaN
halogenbond:GLU:106     -1
Name: 79, dtype: object

>  <hydroph_interaction:PRO:107>  (81) 
hydroph_interaction:PRO:107    1
hydroph_interaction:PRO:107    1
Name: 79, dtype: object

>  <hbond:PRO:107>  (81) 
hbond:PRO:107    0.0
hbond:PRO:107      0
Name: 79, dtype: object

>  <halogenbond:PRO:107>  (81) 
halogenbond:PRO:107    NaN
halogenbond:PRO:107     -1
Name: 79, dtype: object

>  <hbond:GLY:108>  (81) 
hbond:GLY:108    NaN
hbond:GLY:108     -1
Name: 79, dtype: object

>  <halogenbond:GLY:108>  (81) 
halogenbond:GLY:108    NaN
halogenbond:GLY:108     -1
Name: 79, dtype: object

>  <hbond:ASP:109>  (81) 
hbond:ASP:109    0.0
hbond:ASP:109      0
Name: 79, dtype: object

>  <hydroph_interaction:ASP:109>  (81) 
hydroph_interaction:ASP:109    0.0
hydroph_interaction:ASP:109      0
Name: 79, dtype: object

>  <saltbridge:ASP:109>  (81) 
saltbridge:ASP:109    NaN
saltbridge:ASP:109     -1
Name: 79, dtype: object

>  <halogenbond:CYS:110>  (81) 
halogenbond:CYS:110    NaN
halogenbond:CYS:110     -1
Name: 79, dtype: object

>  <hbond:CYS:110>  (81) 
hbond:CYS:110    0.0
hbond:CYS:110      0
Name: 79, dtype: object

>  <hbond:GLY:111>  (81) 
hbond:GLY:111    NaN
hbond:GLY:111     -1
Name: 79, dtype: object

>  <hbond:GLY:112>  (81) 
hbond:GLY:112    NaN
hbond:GLY:112     -1
Name: 79, dtype: object

>  <hbond:ILE:113>  (81) 
hbond:ILE:113    NaN
hbond:ILE:113     -1
Name: 79, dtype: object

>  <hydroph_interaction:LEU:114>  (81) 
hydroph_interaction:LEU:114    NaN
hydroph_interaction:LEU:114     -1
Name: 79, dtype: object

>  <hbond:LEU:114>  (81) 
hbond:LEU:114    NaN
hbond:LEU:114     -1
Name: 79, dtype: object

>  <hydroph_interaction:ILE:123>  (81) 
hydroph_interaction:ILE:123    NaN
hydroph_interaction:ILE:123     -1
Name: 79, dtype: object

>  <hbond:ILE:123>  (81) 
hbond:ILE:123    NaN
hbond:ILE:123     -1
Name: 79, dtype: object

>  <hydroph_interaction:VAL:124>  (81) 
hydroph_interaction:VAL:124    1.0
hydroph_interaction:VAL:124      1
Name: 79, dtype: object

>  <hbond:VAL:124>  (81) 
hbond:VAL:124    NaN
hbond:VAL:124     -1
Name: 79, dtype: object

>  <halogenbond:VAL:124>  (81) 
halogenbond:VAL:124    NaN
halogenbond:VAL:124     -1
Name: 79, dtype: object

>  <hbond:SER:125>  (81) 
hbond:SER:125    1
hbond:SER:125    1
Name: 79, dtype: object

>  <halogenbond:SER:125>  (81) 
halogenbond:SER:125    NaN
halogenbond:SER:125     -1
Name: 79, dtype: object

>  <hydroph_interaction:THR:126>  (81) 
hydroph_interaction:THR:126    1.0
hydroph_interaction:THR:126      1
Name: 79, dtype: object

>  <hbond:THR:126>  (81) 
hbond:THR:126    0.0
hbond:THR:126      0
Name: 79, dtype: object

>  <halogenbond:THR:126>  (81) 
halogenbond:THR:126    NaN
halogenbond:THR:126     -1
Name: 79, dtype: object

>  <hbond:GLY:127>  (81) 
hbond:GLY:127    0
hbond:GLY:127    0
Name: 79, dtype: object

>  <halogenbond:GLY:127>  (81) 
halogenbond:GLY:127    NaN
halogenbond:GLY:127     -1
Name: 79, dtype: object

>  <hydroph_interaction:GLY:127>  (81) 
hydroph_interaction:GLY:127    NaN
hydroph_interaction:GLY:127     -1
Name: 79, dtype: object

>  <hbond:GLY:128>  (81) 
hbond:GLY:128    NaN
hbond:GLY:128     -1
Name: 79, dtype: object

>  <halogenbond:GLY:128>  (81) 
halogenbond:GLY:128    NaN
halogenbond:GLY:128     -1
Name: 79, dtype: object

>  <hydroph_interaction:GLY:128>  (81) 
hydroph_interaction:GLY:128    NaN
hydroph_interaction:GLY:128     -1
Name: 79, dtype: object

>  <hbond:ASN:129>  (81) 
hbond:ASN:129    NaN
hbond:ASN:129     -1
Name: 79, dtype: object

>  <hydroph_interaction:ASN:129>  (81) 
hydroph_interaction:ASN:129    NaN
hydroph_interaction:ASN:129     -1
Name: 79, dtype: object

>  <halogenbond:ASN:129>  (81) 
halogenbond:ASN:129    NaN
halogenbond:ASN:129     -1
Name: 79, dtype: object

>  <hbond:GLY:130>  (81) 
hbond:GLY:130    NaN
hbond:GLY:130     -1
Name: 79, dtype: object

>  <hbond:LEU:131>  (81) 
hbond:LEU:131    NaN
hbond:LEU:131     -1
Name: 79, dtype: object

>  <hydroph_interaction:LEU:131>  (81) 
hydroph_interaction:LEU:131    NaN
hydroph_interaction:LEU:131     -1
Name: 79, dtype: object

>  <halogenbond:LEU:131>  (81) 
halogenbond:LEU:131    NaN
halogenbond:LEU:131     -1
Name: 79, dtype: object

>  <hydroph_interaction:VAL:132>  (81) 
hydroph_interaction:VAL:132    NaN
hydroph_interaction:VAL:132     -1
Name: 79, dtype: object

>  <hbond:VAL:132>  (81) 
hbond:VAL:132    NaN
hbond:VAL:132     -1
Name: 79, dtype: object

>  <hbond:GLY:133>  (81) 
hbond:GLY:133    0.0
hbond:GLY:133      0
Name: 79, dtype: object

>  <halogenbond:GLY:133>  (81) 
halogenbond:GLY:133    NaN
halogenbond:GLY:133     -1
Name: 79, dtype: object

>  <hydroph_interaction:PHE:134>  (81) 
hydroph_interaction:PHE:134    NaN
hydroph_interaction:PHE:134     -1
Name: 79, dtype: object

>  <hbond:PHE:134>  (81) 
hbond:PHE:134    NaN
hbond:PHE:134     -1
Name: 79, dtype: object

>  <pistack:PHE:134>  (81) 
pistack:PHE:134    NaN
pistack:PHE:134     -1
Name: 79, dtype: object

>  <pication:PHE:134>  (81) 
pication:PHE:134    NaN
pication:PHE:134     -1
Name: 79, dtype: object

>  <halogenbond:PHE:134>  (81) 
halogenbond:PHE:134    NaN
halogenbond:PHE:134     -1
Name: 79, dtype: object

>  <hydroph_interaction:ALA:135>  (81) 
hydroph_interaction:ALA:135    NaN
hydroph_interaction:ALA:135     -1
Name: 79, dtype: object

>  <hbond:ALA:135>  (81) 
hbond:ALA:135    NaN
hbond:ALA:135     -1
Name: 79, dtype: object

$$$$
Z1367108164
     RDKit          3D

 12 13  0  0  0  0  0  0  0  0999 V2000
   28.4546   14.0414    8.0513 C   0  0  0  0  0  0  0  0  0  0  0  0
   29.5088   13.3770    7.4462 N   0  0  0  0  0  0  0  0  0  0  0  0
   30.0052   12.4293    8.2978 C   0  0  0  0  0  0  0  0  0  0  0  0
   30.8431   11.3454    7.7283 C   0  0  0  0  0  0  0  0  0  0  0  0
   30.6404   10.0526    8.2007 C   0  0  0  0  0  0  0  0  0  0  0  0
   31.3793    9.0038    7.7185 C   0  0  0  0  0  0  0  0  0  0  0  0
   32.3492    9.2013    6.7516 C   0  0  0  0  0  0  0  0  0  0  0  0
   32.5663   10.4802    6.2737 C   0  0  0  0  0  0  0  0  0  0  0  0
   31.8172   11.5497    6.7549 C   0  0  0  0  0  0  0  0  0  0  0  0
   32.2695   12.6506    6.0847 N   0  0  0  0  0  0  0  0  0  0  0  0
   33.2594   12.3791    5.2099 N   0  0  0  0  0  0  0  0  0  0  0  0
   33.4358   11.0591    5.3291 C   0  0  0  0  0  0  0  0  0  0  0  0
  1  2  1  0
  2  3  1  0
  3  4  1  0
  4  5  2  0
  5  6  1  0
  6  7  2  0
  7  8  1  0
  8  9  2  0
  9 10  1  0
 10 11  1  0
 11 12  2  0
  9  4  1  0
 12  8  1  0
A    1
 C1 
A    2
 N1 
A    3
 C2 
A    4
 C3 
A    5
 C4 
A    6
 C5 
A    7
 C6 
A    8
 C7 
A    9
 C8 
A   10
 N2 
A   11
 N3 
A   12
 C9 
M  END
>  <ref_pdb>  (82) 
Ax0310a

>  <ref_mols>  (82) 
Ax0554a,Ax0739a

>  <original SMILES>  (82) 
CNCc1cccc2cn[nH]c12

>  <rationale>  (82) 
info halogenbond:C110+G127+D39+A86+S125+E85+Q95+E106+E88+T126+P107+H104+Y64+C65+S87+N129+F83+R93+L131+I82+G128+P91+N19+H21+V84+G133+Y90+Y89+H97+L81+F134+L98+R20+G103+S66+S67+S7+G108+R38+V124+M99+S36; hbond:S87+Y90+Q95+D39+A86+E85+G108+G103+G128+G130+L131+N129+N19+H104+R68+V124+R93+P91+F83+S67+S7+S66+G112+G133+V132+R20+Y89+S77+A135+Y63+A92+A101+M99+F134+L100+I82+Y64+S36+L98+V84+L81+Y94+S80+R38+S37+V102+G8+I123+G111+I113+L114+C65+L22+S96; hydroph_interaction:V84+T126+H21+P107+L22+E85+E106+N129+D39+N19+L40+I123+A135+Q95+I82+L100+L98+L131+F83+R93+V132+Y63+F134+H104+R20+A86+V74+P91+A101+F76+M99+L114+A92+Y94+R68+Y72+Y64+V18+V102+W28+G127+G128+L81; pication:H21+H104+R93+Y63+F134+Y90+R68+F83+R20; pistack:H21+Y89+Y90+H104+F134+Y63+F83+Y94; saltbridge:D39+R93+H104+E106+D109+E85+E88+R68+R20; 

>  <intxn_cluster>  (82) 
-1

>  <intxn_cluster_rank>  (82) 
-1

>  <N_interactions>  (82) 
3

>  <∆∆G>  (82) 
-7.886616

>  <$/mg>  (82) 
82.1

>  <comRMSD>  (82) 
0.825177

>  <N_rotatable_bonds>  (82) 
3

>  <deep_P1_sidechain>  (82) 
nan

>  <farthest_distance_to_substrate>  (82) 
2.464494

>  <hbond:SER:7>  (82) 
hbond:SER:7    NaN
hbond:SER:7     -1
Name: 80, dtype: object

>  <halogenbond:SER:7>  (82) 
halogenbond:SER:7    NaN
halogenbond:SER:7     -1
Name: 80, dtype: object

>  <hbond:GLY:8>  (82) 
hbond:GLY:8    NaN
hbond:GLY:8     -1
Name: 80, dtype: object

>  <hydroph_interaction:VAL:18>  (82) 
hydroph_interaction:VAL:18    NaN
hydroph_interaction:VAL:18     -1
Name: 80, dtype: object

>  <hbond:ASN:19>  (82) 
hbond:ASN:19    NaN
hbond:ASN:19     -1
Name: 80, dtype: object

>  <hydroph_interaction:ASN:19>  (82) 
hydroph_interaction:ASN:19    NaN
hydroph_interaction:ASN:19     -1
Name: 80, dtype: object

>  <halogenbond:ASN:19>  (82) 
halogenbond:ASN:19    NaN
halogenbond:ASN:19     -1
Name: 80, dtype: object

>  <hbond:ARG:20>  (82) 
hbond:ARG:20    NaN
hbond:ARG:20     -1
Name: 80, dtype: object

>  <hydroph_interaction:ARG:20>  (82) 
hydroph_interaction:ARG:20    NaN
hydroph_interaction:ARG:20     -1
Name: 80, dtype: object

>  <saltbridge:ARG:20>  (82) 
saltbridge:ARG:20    NaN
saltbridge:ARG:20     -1
Name: 80, dtype: object

>  <halogenbond:ARG:20>  (82) 
halogenbond:ARG:20    NaN
halogenbond:ARG:20     -1
Name: 80, dtype: object

>  <pication:ARG:20>  (82) 
pication:ARG:20    NaN
pication:ARG:20     -1
Name: 80, dtype: object

>  <hbond:HIS:21>  (82) 
hbond:HIS:21    0.0
hbond:HIS:21      0
Name: 80, dtype: object

>  <hydroph_interaction:HIS:21>  (82) 
hydroph_interaction:HIS:21    NaN
hydroph_interaction:HIS:21     -1
Name: 80, dtype: object

>  <pistack:HIS:21>  (82) 
pistack:HIS:21    NaN
pistack:HIS:21     -1
Name: 80, dtype: object

>  <pication:HIS:21>  (82) 
pication:HIS:21    NaN
pication:HIS:21     -1
Name: 80, dtype: object

>  <saltbridge:HIS:21>  (82) 
saltbridge:HIS:21    0.0
saltbridge:HIS:21      0
Name: 80, dtype: object

>  <halogenbond:HIS:21>  (82) 
halogenbond:HIS:21    NaN
halogenbond:HIS:21     -1
Name: 80, dtype: object

>  <hydroph_interaction:LEU:22>  (82) 
hydroph_interaction:LEU:22    NaN
hydroph_interaction:LEU:22     -1
Name: 80, dtype: object

>  <hbond:LEU:22>  (82) 
hbond:LEU:22    NaN
hbond:LEU:22     -1
Name: 80, dtype: object

>  <hydroph_interaction:TRP:28>  (82) 
hydroph_interaction:TRP:28    NaN
hydroph_interaction:TRP:28     -1
Name: 80, dtype: object

>  <hbond:SER:36>  (82) 
hbond:SER:36    NaN
hbond:SER:36     -1
Name: 80, dtype: object

>  <halogenbond:SER:36>  (82) 
halogenbond:SER:36    NaN
halogenbond:SER:36     -1
Name: 80, dtype: object

>  <hbond:SER:37>  (82) 
hbond:SER:37    NaN
hbond:SER:37     -1
Name: 80, dtype: object

>  <hbond:ARG:38>  (82) 
hbond:ARG:38    NaN
hbond:ARG:38     -1
Name: 80, dtype: object

>  <halogenbond:ARG:38>  (82) 
halogenbond:ARG:38    NaN
halogenbond:ARG:38     -1
Name: 80, dtype: object

>  <saltbridge:ASP:39>  (82) 
saltbridge:ASP:39    NaN
saltbridge:ASP:39     -1
Name: 80, dtype: object

>  <halogenbond:ASP:39>  (82) 
halogenbond:ASP:39    NaN
halogenbond:ASP:39     -1
Name: 80, dtype: object

>  <hbond:ASP:39>  (82) 
hbond:ASP:39    NaN
hbond:ASP:39     -1
Name: 80, dtype: object

>  <hydroph_interaction:ASP:39>  (82) 
hydroph_interaction:ASP:39    NaN
hydroph_interaction:ASP:39     -1
Name: 80, dtype: object

>  <hydroph_interaction:LEU:40>  (82) 
hydroph_interaction:LEU:40    NaN
hydroph_interaction:LEU:40     -1
Name: 80, dtype: object

>  <hydroph_interaction:TYR:63>  (82) 
hydroph_interaction:TYR:63    NaN
hydroph_interaction:TYR:63     -1
Name: 80, dtype: object

>  <hbond:TYR:63>  (82) 
hbond:TYR:63    NaN
hbond:TYR:63     -1
Name: 80, dtype: object

>  <pistack:TYR:63>  (82) 
pistack:TYR:63    NaN
pistack:TYR:63     -1
Name: 80, dtype: object

>  <pication:TYR:63>  (82) 
pication:TYR:63    NaN
pication:TYR:63     -1
Name: 80, dtype: object

>  <halogenbond:TYR:64>  (82) 
halogenbond:TYR:64    NaN
halogenbond:TYR:64     -1
Name: 80, dtype: object

>  <hbond:TYR:64>  (82) 
hbond:TYR:64    NaN
hbond:TYR:64     -1
Name: 80, dtype: object

>  <hydroph_interaction:TYR:64>  (82) 
hydroph_interaction:TYR:64    NaN
hydroph_interaction:TYR:64     -1
Name: 80, dtype: object

>  <halogenbond:CYS:65>  (82) 
halogenbond:CYS:65    NaN
halogenbond:CYS:65     -1
Name: 80, dtype: object

>  <hbond:CYS:65>  (82) 
hbond:CYS:65    NaN
hbond:CYS:65     -1
Name: 80, dtype: object

>  <hbond:SER:66>  (82) 
hbond:SER:66    NaN
hbond:SER:66     -1
Name: 80, dtype: object

>  <halogenbond:SER:66>  (82) 
halogenbond:SER:66    NaN
halogenbond:SER:66     -1
Name: 80, dtype: object

>  <hbond:SER:67>  (82) 
hbond:SER:67    NaN
hbond:SER:67     -1
Name: 80, dtype: object

>  <halogenbond:SER:67>  (82) 
halogenbond:SER:67    NaN
halogenbond:SER:67     -1
Name: 80, dtype: object

>  <hbond:ARG:68>  (82) 
hbond:ARG:68    NaN
hbond:ARG:68     -1
Name: 80, dtype: object

>  <saltbridge:ARG:68>  (82) 
saltbridge:ARG:68    NaN
saltbridge:ARG:68     -1
Name: 80, dtype: object

>  <hydroph_interaction:ARG:68>  (82) 
hydroph_interaction:ARG:68    NaN
hydroph_interaction:ARG:68     -1
Name: 80, dtype: object

>  <pication:ARG:68>  (82) 
pication:ARG:68    NaN
pication:ARG:68     -1
Name: 80, dtype: object

>  <hydroph_interaction:TYR:72>  (82) 
hydroph_interaction:TYR:72    NaN
hydroph_interaction:TYR:72     -1
Name: 80, dtype: object

>  <hydroph_interaction:VAL:74>  (82) 
hydroph_interaction:VAL:74    NaN
hydroph_interaction:VAL:74     -1
Name: 80, dtype: object

>  <hydroph_interaction:PHE:76>  (82) 
hydroph_interaction:PHE:76    NaN
hydroph_interaction:PHE:76     -1
Name: 80, dtype: object

>  <hbond:SER:77>  (82) 
hbond:SER:77    NaN
hbond:SER:77     -1
Name: 80, dtype: object

>  <hbond:SER:80>  (82) 
hbond:SER:80    NaN
hbond:SER:80     -1
Name: 80, dtype: object

>  <hbond:LEU:81>  (82) 
hbond:LEU:81    NaN
hbond:LEU:81     -1
Name: 80, dtype: object

>  <halogenbond:LEU:81>  (82) 
halogenbond:LEU:81    NaN
halogenbond:LEU:81     -1
Name: 80, dtype: object

>  <hydroph_interaction:LEU:81>  (82) 
hydroph_interaction:LEU:81    NaN
hydroph_interaction:LEU:81     -1
Name: 80, dtype: object

>  <hydroph_interaction:ILE:82>  (82) 
hydroph_interaction:ILE:82    NaN
hydroph_interaction:ILE:82     -1
Name: 80, dtype: object

>  <halogenbond:ILE:82>  (82) 
halogenbond:ILE:82    NaN
halogenbond:ILE:82     -1
Name: 80, dtype: object

>  <hbond:ILE:82>  (82) 
hbond:ILE:82    NaN
hbond:ILE:82     -1
Name: 80, dtype: object

>  <hbond:PHE:83>  (82) 
hbond:PHE:83    NaN
hbond:PHE:83     -1
Name: 80, dtype: object

>  <hydroph_interaction:PHE:83>  (82) 
hydroph_interaction:PHE:83    NaN
hydroph_interaction:PHE:83     -1
Name: 80, dtype: object

>  <halogenbond:PHE:83>  (82) 
halogenbond:PHE:83    NaN
halogenbond:PHE:83     -1
Name: 80, dtype: object

>  <pistack:PHE:83>  (82) 
pistack:PHE:83    NaN
pistack:PHE:83     -1
Name: 80, dtype: object

>  <pication:PHE:83>  (82) 
pication:PHE:83    NaN
pication:PHE:83     -1
Name: 80, dtype: object

>  <hydroph_interaction:VAL:84>  (82) 
hydroph_interaction:VAL:84    NaN
hydroph_interaction:VAL:84     -1
Name: 80, dtype: object

>  <halogenbond:VAL:84>  (82) 
halogenbond:VAL:84    NaN
halogenbond:VAL:84     -1
Name: 80, dtype: object

>  <hbond:VAL:84>  (82) 
hbond:VAL:84    NaN
hbond:VAL:84     -1
Name: 80, dtype: object

>  <hydroph_interaction:GLU:85>  (82) 
hydroph_interaction:GLU:85    NaN
hydroph_interaction:GLU:85     -1
Name: 80, dtype: object

>  <hbond:GLU:85>  (82) 
hbond:GLU:85    NaN
hbond:GLU:85     -1
Name: 80, dtype: object

>  <halogenbond:GLU:85>  (82) 
halogenbond:GLU:85    NaN
halogenbond:GLU:85     -1
Name: 80, dtype: object

>  <saltbridge:GLU:85>  (82) 
saltbridge:GLU:85    NaN
saltbridge:GLU:85     -1
Name: 80, dtype: object

>  <halogenbond:ALA:86>  (82) 
halogenbond:ALA:86    NaN
halogenbond:ALA:86     -1
Name: 80, dtype: object

>  <hbond:ALA:86>  (82) 
hbond:ALA:86    NaN
hbond:ALA:86     -1
Name: 80, dtype: object

>  <hydroph_interaction:ALA:86>  (82) 
hydroph_interaction:ALA:86    NaN
hydroph_interaction:ALA:86     -1
Name: 80, dtype: object

>  <hbond:SER:87>  (82) 
hbond:SER:87    2
hbond:SER:87    2
Name: 80, dtype: object

>  <halogenbond:SER:87>  (82) 
halogenbond:SER:87    NaN
halogenbond:SER:87     -1
Name: 80, dtype: object

>  <hbond:GLU:88>  (82) 
hbond:GLU:88    0.0
hbond:GLU:88      0
Name: 80, dtype: object

>  <hydroph_interaction:GLU:88>  (82) 
hydroph_interaction:GLU:88    0.0
hydroph_interaction:GLU:88      0
Name: 80, dtype: object

>  <halogenbond:GLU:88>  (82) 
halogenbond:GLU:88    NaN
halogenbond:GLU:88     -1
Name: 80, dtype: object

>  <saltbridge:GLU:88>  (82) 
saltbridge:GLU:88    NaN
saltbridge:GLU:88     -1
Name: 80, dtype: object

>  <hydroph_interaction:TYR:89>  (82) 
hydroph_interaction:TYR:89    0.0
hydroph_interaction:TYR:89      0
Name: 80, dtype: object

>  <pistack:TYR:89>  (82) 
pistack:TYR:89    NaN
pistack:TYR:89     -1
Name: 80, dtype: object

>  <hbond:TYR:89>  (82) 
hbond:TYR:89    NaN
hbond:TYR:89     -1
Name: 80, dtype: object

>  <halogenbond:TYR:89>  (82) 
halogenbond:TYR:89    NaN
halogenbond:TYR:89     -1
Name: 80, dtype: object

>  <hydroph_interaction:TYR:90>  (82) 
hydroph_interaction:TYR:90    0.0
hydroph_interaction:TYR:90      0
Name: 80, dtype: object

>  <hbond:TYR:90>  (82) 
hbond:TYR:90    NaN
hbond:TYR:90     -1
Name: 80, dtype: object

>  <pistack:TYR:90>  (82) 
pistack:TYR:90    NaN
pistack:TYR:90     -1
Name: 80, dtype: object

>  <halogenbond:TYR:90>  (82) 
halogenbond:TYR:90    NaN
halogenbond:TYR:90     -1
Name: 80, dtype: object

>  <pication:TYR:90>  (82) 
pication:TYR:90    NaN
pication:TYR:90     -1
Name: 80, dtype: object

>  <hbond:PRO:91>  (82) 
hbond:PRO:91    NaN
hbond:PRO:91     -1
Name: 80, dtype: object

>  <hydroph_interaction:PRO:91>  (82) 
hydroph_interaction:PRO:91    NaN
hydroph_interaction:PRO:91     -1
Name: 80, dtype: object

>  <halogenbond:PRO:91>  (82) 
halogenbond:PRO:91    NaN
halogenbond:PRO:91     -1
Name: 80, dtype: object

>  <hbond:ALA:92>  (82) 
hbond:ALA:92    NaN
hbond:ALA:92     -1
Name: 80, dtype: object

>  <hydroph_interaction:ALA:92>  (82) 
hydroph_interaction:ALA:92    NaN
hydroph_interaction:ALA:92     -1
Name: 80, dtype: object

>  <saltbridge:ARG:93>  (82) 
saltbridge:ARG:93    NaN
saltbridge:ARG:93     -1
Name: 80, dtype: object

>  <hbond:ARG:93>  (82) 
hbond:ARG:93    NaN
hbond:ARG:93     -1
Name: 80, dtype: object

>  <hydroph_interaction:ARG:93>  (82) 
hydroph_interaction:ARG:93    NaN
hydroph_interaction:ARG:93     -1
Name: 80, dtype: object

>  <halogenbond:ARG:93>  (82) 
halogenbond:ARG:93    NaN
halogenbond:ARG:93     -1
Name: 80, dtype: object

>  <pication:ARG:93>  (82) 
pication:ARG:93    NaN
pication:ARG:93     -1
Name: 80, dtype: object

>  <hydroph_interaction:TYR:94>  (82) 
hydroph_interaction:TYR:94    NaN
hydroph_interaction:TYR:94     -1
Name: 80, dtype: object

>  <pistack:TYR:94>  (82) 
pistack:TYR:94    NaN
pistack:TYR:94     -1
Name: 80, dtype: object

>  <hbond:TYR:94>  (82) 
hbond:TYR:94    NaN
hbond:TYR:94     -1
Name: 80, dtype: object

>  <hbond:GLN:95>  (82) 
hbond:GLN:95    NaN
hbond:GLN:95     -1
Name: 80, dtype: object

>  <hydroph_interaction:GLN:95>  (82) 
hydroph_interaction:GLN:95    NaN
hydroph_interaction:GLN:95     -1
Name: 80, dtype: object

>  <halogenbond:GLN:95>  (82) 
halogenbond:GLN:95    NaN
halogenbond:GLN:95     -1
Name: 80, dtype: object

>  <hbond:SER:96>  (82) 
hbond:SER:96    NaN
hbond:SER:96     -1
Name: 80, dtype: object

>  <halogenbond:HIS:97>  (82) 
halogenbond:HIS:97    NaN
halogenbond:HIS:97     -1
Name: 80, dtype: object

>  <hydroph_interaction:LEU:98>  (82) 
hydroph_interaction:LEU:98    NaN
hydroph_interaction:LEU:98     -1
Name: 80, dtype: object

>  <hbond:LEU:98>  (82) 
hbond:LEU:98    NaN
hbond:LEU:98     -1
Name: 80, dtype: object

>  <halogenbond:LEU:98>  (82) 
halogenbond:LEU:98    NaN
halogenbond:LEU:98     -1
Name: 80, dtype: object

>  <hbond:MET:99>  (82) 
hbond:MET:99    NaN
hbond:MET:99     -1
Name: 80, dtype: object

>  <hydroph_interaction:MET:99>  (82) 
hydroph_interaction:MET:99    NaN
hydroph_interaction:MET:99     -1
Name: 80, dtype: object

>  <halogenbond:MET:99>  (82) 
halogenbond:MET:99    NaN
halogenbond:MET:99     -1
Name: 80, dtype: object

>  <hydroph_interaction:LEU:100>  (82) 
hydroph_interaction:LEU:100    NaN
hydroph_interaction:LEU:100     -1
Name: 80, dtype: object

>  <hbond:LEU:100>  (82) 
hbond:LEU:100    NaN
hbond:LEU:100     -1
Name: 80, dtype: object

>  <hbond:ALA:101>  (82) 
hbond:ALA:101    NaN
hbond:ALA:101     -1
Name: 80, dtype: object

>  <hydroph_interaction:ALA:101>  (82) 
hydroph_interaction:ALA:101    NaN
hydroph_interaction:ALA:101     -1
Name: 80, dtype: object

>  <hydroph_interaction:VAL:102>  (82) 
hydroph_interaction:VAL:102    NaN
hydroph_interaction:VAL:102     -1
Name: 80, dtype: object

>  <hbond:VAL:102>  (82) 
hbond:VAL:102    NaN
hbond:VAL:102     -1
Name: 80, dtype: object

>  <hbond:GLY:103>  (82) 
hbond:GLY:103    NaN
hbond:GLY:103     -1
Name: 80, dtype: object

>  <halogenbond:GLY:103>  (82) 
halogenbond:GLY:103    NaN
halogenbond:GLY:103     -1
Name: 80, dtype: object

>  <hbond:HIS:104>  (82) 
hbond:HIS:104    NaN
hbond:HIS:104     -1
Name: 80, dtype: object

>  <saltbridge:HIS:104>  (82) 
saltbridge:HIS:104    NaN
saltbridge:HIS:104     -1
Name: 80, dtype: object

>  <pication:HIS:104>  (82) 
pication:HIS:104    NaN
pication:HIS:104     -1
Name: 80, dtype: object

>  <halogenbond:HIS:104>  (82) 
halogenbond:HIS:104    NaN
halogenbond:HIS:104     -1
Name: 80, dtype: object

>  <hydroph_interaction:HIS:104>  (82) 
hydroph_interaction:HIS:104    NaN
hydroph_interaction:HIS:104     -1
Name: 80, dtype: object

>  <pistack:HIS:104>  (82) 
pistack:HIS:104    NaN
pistack:HIS:104     -1
Name: 80, dtype: object

>  <halogenbond:SER:105>  (82) 
halogenbond:SER:105    0.0
halogenbond:SER:105      0
Name: 80, dtype: object

>  <hbond:SER:105>  (82) 
hbond:SER:105    0.0
hbond:SER:105      0
Name: 80, dtype: object

>  <hbond:GLU:106>  (82) 
hbond:GLU:106    0.0
hbond:GLU:106      0
Name: 80, dtype: object

>  <hydroph_interaction:GLU:106>  (82) 
hydroph_interaction:GLU:106    NaN
hydroph_interaction:GLU:106     -1
Name: 80, dtype: object

>  <saltbridge:GLU:106>  (82) 
saltbridge:GLU:106    NaN
saltbridge:GLU:106     -1
Name: 80, dtype: object

>  <halogenbond:GLU:106>  (82) 
halogenbond:GLU:106    NaN
halogenbond:GLU:106     -1
Name: 80, dtype: object

>  <hydroph_interaction:PRO:107>  (82) 
hydroph_interaction:PRO:107    1
hydroph_interaction:PRO:107    1
Name: 80, dtype: object

>  <hbond:PRO:107>  (82) 
hbond:PRO:107    0.0
hbond:PRO:107      0
Name: 80, dtype: object

>  <halogenbond:PRO:107>  (82) 
halogenbond:PRO:107    NaN
halogenbond:PRO:107     -1
Name: 80, dtype: object

>  <hbond:GLY:108>  (82) 
hbond:GLY:108    NaN
hbond:GLY:108     -1
Name: 80, dtype: object

>  <halogenbond:GLY:108>  (82) 
halogenbond:GLY:108    NaN
halogenbond:GLY:108     -1
Name: 80, dtype: object

>  <hbond:ASP:109>  (82) 
hbond:ASP:109    0.0
hbond:ASP:109      0
Name: 80, dtype: object

>  <hydroph_interaction:ASP:109>  (82) 
hydroph_interaction:ASP:109    0.0
hydroph_interaction:ASP:109      0
Name: 80, dtype: object

>  <saltbridge:ASP:109>  (82) 
saltbridge:ASP:109    NaN
saltbridge:ASP:109     -1
Name: 80, dtype: object

>  <halogenbond:CYS:110>  (82) 
halogenbond:CYS:110    NaN
halogenbond:CYS:110     -1
Name: 80, dtype: object

>  <hbond:CYS:110>  (82) 
hbond:CYS:110    0.0
hbond:CYS:110      0
Name: 80, dtype: object

>  <hbond:GLY:111>  (82) 
hbond:GLY:111    NaN
hbond:GLY:111     -1
Name: 80, dtype: object

>  <hbond:GLY:112>  (82) 
hbond:GLY:112    NaN
hbond:GLY:112     -1
Name: 80, dtype: object

>  <hbond:ILE:113>  (82) 
hbond:ILE:113    NaN
hbond:ILE:113     -1
Name: 80, dtype: object

>  <hydroph_interaction:LEU:114>  (82) 
hydroph_interaction:LEU:114    NaN
hydroph_interaction:LEU:114     -1
Name: 80, dtype: object

>  <hbond:LEU:114>  (82) 
hbond:LEU:114    NaN
hbond:LEU:114     -1
Name: 80, dtype: object

>  <hydroph_interaction:ILE:123>  (82) 
hydroph_interaction:ILE:123    NaN
hydroph_interaction:ILE:123     -1
Name: 80, dtype: object

>  <hbond:ILE:123>  (82) 
hbond:ILE:123    NaN
hbond:ILE:123     -1
Name: 80, dtype: object

>  <hydroph_interaction:VAL:124>  (82) 
hydroph_interaction:VAL:124    0.0
hydroph_interaction:VAL:124      0
Name: 80, dtype: object

>  <hbond:VAL:124>  (82) 
hbond:VAL:124    NaN
hbond:VAL:124     -1
Name: 80, dtype: object

>  <halogenbond:VAL:124>  (82) 
halogenbond:VAL:124    NaN
halogenbond:VAL:124     -1
Name: 80, dtype: object

>  <hbond:SER:125>  (82) 
hbond:SER:125    0
hbond:SER:125    0
Name: 80, dtype: object

>  <halogenbond:SER:125>  (82) 
halogenbond:SER:125    NaN
halogenbond:SER:125     -1
Name: 80, dtype: object

>  <hydroph_interaction:THR:126>  (82) 
hydroph_interaction:THR:126    NaN
hydroph_interaction:THR:126     -1
Name: 80, dtype: object

>  <hbond:THR:126>  (82) 
hbond:THR:126    0.0
hbond:THR:126      0
Name: 80, dtype: object

>  <halogenbond:THR:126>  (82) 
halogenbond:THR:126    NaN
halogenbond:THR:126     -1
Name: 80, dtype: object

>  <hbond:GLY:127>  (82) 
hbond:GLY:127    0
hbond:GLY:127    0
Name: 80, dtype: object

>  <halogenbond:GLY:127>  (82) 
halogenbond:GLY:127    NaN
halogenbond:GLY:127     -1
Name: 80, dtype: object

>  <hydroph_interaction:GLY:127>  (82) 
hydroph_interaction:GLY:127    NaN
hydroph_interaction:GLY:127     -1
Name: 80, dtype: object

>  <hbond:GLY:128>  (82) 
hbond:GLY:128    NaN
hbond:GLY:128     -1
Name: 80, dtype: object

>  <halogenbond:GLY:128>  (82) 
halogenbond:GLY:128    NaN
halogenbond:GLY:128     -1
Name: 80, dtype: object

>  <hydroph_interaction:GLY:128>  (82) 
hydroph_interaction:GLY:128    NaN
hydroph_interaction:GLY:128     -1
Name: 80, dtype: object

>  <hbond:ASN:129>  (82) 
hbond:ASN:129    NaN
hbond:ASN:129     -1
Name: 80, dtype: object

>  <hydroph_interaction:ASN:129>  (82) 
hydroph_interaction:ASN:129    NaN
hydroph_interaction:ASN:129     -1
Name: 80, dtype: object

>  <halogenbond:ASN:129>  (82) 
halogenbond:ASN:129    NaN
halogenbond:ASN:129     -1
Name: 80, dtype: object

>  <hbond:GLY:130>  (82) 
hbond:GLY:130    NaN
hbond:GLY:130     -1
Name: 80, dtype: object

>  <hbond:LEU:131>  (82) 
hbond:LEU:131    NaN
hbond:LEU:131     -1
Name: 80, dtype: object

>  <hydroph_interaction:LEU:131>  (82) 
hydroph_interaction:LEU:131    NaN
hydroph_interaction:LEU:131     -1
Name: 80, dtype: object

>  <halogenbond:LEU:131>  (82) 
halogenbond:LEU:131    NaN
halogenbond:LEU:131     -1
Name: 80, dtype: object

>  <hydroph_interaction:VAL:132>  (82) 
hydroph_interaction:VAL:132    NaN
hydroph_interaction:VAL:132     -1
Name: 80, dtype: object

>  <hbond:VAL:132>  (82) 
hbond:VAL:132    NaN
hbond:VAL:132     -1
Name: 80, dtype: object

>  <hbond:GLY:133>  (82) 
hbond:GLY:133    NaN
hbond:GLY:133     -1
Name: 80, dtype: object

>  <halogenbond:GLY:133>  (82) 
halogenbond:GLY:133    NaN
halogenbond:GLY:133     -1
Name: 80, dtype: object

>  <hydroph_interaction:PHE:134>  (82) 
hydroph_interaction:PHE:134    NaN
hydroph_interaction:PHE:134     -1
Name: 80, dtype: object

>  <hbond:PHE:134>  (82) 
hbond:PHE:134    NaN
hbond:PHE:134     -1
Name: 80, dtype: object

>  <pistack:PHE:134>  (82) 
pistack:PHE:134    NaN
pistack:PHE:134     -1
Name: 80, dtype: object

>  <pication:PHE:134>  (82) 
pication:PHE:134    NaN
pication:PHE:134     -1
Name: 80, dtype: object

>  <halogenbond:PHE:134>  (82) 
halogenbond:PHE:134    NaN
halogenbond:PHE:134     -1
Name: 80, dtype: object

>  <hydroph_interaction:ALA:135>  (82) 
hydroph_interaction:ALA:135    NaN
hydroph_interaction:ALA:135     -1
Name: 80, dtype: object

>  <hbond:ALA:135>  (82) 
hbond:ALA:135    NaN
hbond:ALA:135     -1
Name: 80, dtype: object

$$$$
PV_002894369647
     RDKit          3D

 15 16  0  0  0  0  0  0  0  0999 V2000
   28.6451   14.7565    8.1961 C   0  0  0  0  0  0  0  0  0  0  0  0
   29.3266   13.5004    7.6816 C   0  0  0  0  0  0  0  0  0  0  0  0
   28.8892   13.1149    6.4408 C   0  0  0  0  0  0  0  0  0  0  0  0
   30.2586   12.8002    8.3275 C   0  0  0  0  0  0  0  0  0  0  0  0
   30.9067   11.5629    7.8401 C   0  0  0  0  0  0  0  0  0  0  0  0
   31.8890   11.5222    6.8721 C   0  0  0  0  0  0  0  0  0  0  0  0
   32.4022   12.7298    6.2111 C   0  0  0  0  0  0  0  0  0  0  0  0
   33.3477   12.7533    5.2724 N   0  0  0  0  0  0  0  0  0  0  0  0
   33.8443   11.5439    4.9403 C   0  0  0  0  0  0  0  0  0  0  0  0
   33.4362   10.3277    5.4995 C   0  0  0  0  0  0  0  0  0  0  0  0
   32.4525   10.3053    6.4728 C   0  0  0  0  0  0  0  0  0  0  0  0
   32.0024    9.1225    7.0694 C   0  0  0  0  0  0  0  0  0  0  0  0
   31.0098    9.1830    8.0428 C   0  0  0  0  0  0  0  0  0  0  0  0
   30.4414    8.0301    8.7534 C   0  0  0  0  0  0  0  0  0  0  0  0
   30.4909   10.3874    8.4025 C   0  0  0  0  0  0  0  0  0  0  0  0
  1  2  1  0
  2  3  1  0
  2  4  2  3
  4  5  1  0
  5  6  2  0
  6  7  1  0
  7  8  2  0
  8  9  1  0
  9 10  2  0
 10 11  1  0
 11 12  2  0
 12 13  1  0
 13 14  1  0
 13 15  2  0
 15  5  1  0
 11  6  1  0
A    1
 C1 
A    2
 C2 
A    3
 C3 
A    4
 C4 
A    5
 C5 
A    6
 C6 
A    7
 C7 
A    8
 N1 
A    9
 C8 
A   10
 C9 
A   11
 C10
A   12
 C11
A   13
 C12
A   14
 C13
A   15
 C14
M  END
>  <ref_pdb>  (83) 
Ax0310a

>  <ref_mols>  (83) 
Ax0554a,Ax0739a

>  <original SMILES>  (83) 
CC(C)=Cc1cc(C)cc2ccncc12

>  <rationale>  (83) 
info halogenbond:C110+G127+D39+A86+S125+E85+Q95+E106+E88+T126+P107+H104+Y64+C65+S87+N129+F83+R93+L131+I82+G128+P91+N19+H21+V84+G133+Y90+Y89+H97+L81+F134+L98+R20+G103+S66+S67+S7+G108+R38+V124+M99+S36; hbond:Y90+Q95+D39+A86+E85+G108+G103+G128+G130+L131+N129+N19+H104+R68+V124+R93+P91+F83+S67+S7+S66+G112+G133+V132+R20+Y89+S77+A135+Y63+A92+A101+M99+F134+L100+I82+Y64+S36+L98+V84+L81+Y94+S80+R38+S37+V102+G8+I123+G111+I113+L114+C65+L22+S96; hydroph_interaction:V84+V124+T126+H21+P107+L22+E85+E106+N129+D39+N19+L40+I123+A135+Q95+I82+L100+L98+L131+F83+R93+V132+Y63+F134+H104+R20+A86+V74+P91+A101+F76+M99+L114+A92+Y94+R68+Y72+Y64+V18+V102+W28+G127+G128+L81; pication:H21+H104+R93+Y63+F134+Y90+R68+F83+R20; pistack:H21+Y89+Y90+H104+F134+Y63+F83+Y94; saltbridge:D39+R93+H104+E106+D109+E85+E88+R68+R20; 

>  <intxn_cluster>  (83) 
-1

>  <intxn_cluster_rank>  (83) 
-1

>  <N_interactions>  (83) 
2

>  <∆∆G>  (83) 
-12.313433

>  <$/mg>  (83) 
163.0

>  <comRMSD>  (83) 
0.853598

>  <N_rotatable_bonds>  (83) 
4

>  <deep_P1_sidechain>  (83) 
nan

>  <farthest_distance_to_substrate>  (83) 
2.389974

>  <hbond:SER:7>  (83) 
hbond:SER:7    NaN
hbond:SER:7     -1
Name: 81, dtype: object

>  <halogenbond:SER:7>  (83) 
halogenbond:SER:7    NaN
halogenbond:SER:7     -1
Name: 81, dtype: object

>  <hbond:GLY:8>  (83) 
hbond:GLY:8    NaN
hbond:GLY:8     -1
Name: 81, dtype: object

>  <hydroph_interaction:VAL:18>  (83) 
hydroph_interaction:VAL:18    NaN
hydroph_interaction:VAL:18     -1
Name: 81, dtype: object

>  <hbond:ASN:19>  (83) 
hbond:ASN:19    NaN
hbond:ASN:19     -1
Name: 81, dtype: object

>  <hydroph_interaction:ASN:19>  (83) 
hydroph_interaction:ASN:19    NaN
hydroph_interaction:ASN:19     -1
Name: 81, dtype: object

>  <halogenbond:ASN:19>  (83) 
halogenbond:ASN:19    NaN
halogenbond:ASN:19     -1
Name: 81, dtype: object

>  <hbond:ARG:20>  (83) 
hbond:ARG:20    NaN
hbond:ARG:20     -1
Name: 81, dtype: object

>  <hydroph_interaction:ARG:20>  (83) 
hydroph_interaction:ARG:20    NaN
hydroph_interaction:ARG:20     -1
Name: 81, dtype: object

>  <saltbridge:ARG:20>  (83) 
saltbridge:ARG:20    NaN
saltbridge:ARG:20     -1
Name: 81, dtype: object

>  <halogenbond:ARG:20>  (83) 
halogenbond:ARG:20    NaN
halogenbond:ARG:20     -1
Name: 81, dtype: object

>  <pication:ARG:20>  (83) 
pication:ARG:20    NaN
pication:ARG:20     -1
Name: 81, dtype: object

>  <hbond:HIS:21>  (83) 
hbond:HIS:21    0.0
hbond:HIS:21      0
Name: 81, dtype: object

>  <hydroph_interaction:HIS:21>  (83) 
hydroph_interaction:HIS:21    NaN
hydroph_interaction:HIS:21     -1
Name: 81, dtype: object

>  <pistack:HIS:21>  (83) 
pistack:HIS:21    NaN
pistack:HIS:21     -1
Name: 81, dtype: object

>  <pication:HIS:21>  (83) 
pication:HIS:21    NaN
pication:HIS:21     -1
Name: 81, dtype: object

>  <saltbridge:HIS:21>  (83) 
saltbridge:HIS:21    0.0
saltbridge:HIS:21      0
Name: 81, dtype: object

>  <halogenbond:HIS:21>  (83) 
halogenbond:HIS:21    NaN
halogenbond:HIS:21     -1
Name: 81, dtype: object

>  <hydroph_interaction:LEU:22>  (83) 
hydroph_interaction:LEU:22    NaN
hydroph_interaction:LEU:22     -1
Name: 81, dtype: object

>  <hbond:LEU:22>  (83) 
hbond:LEU:22    NaN
hbond:LEU:22     -1
Name: 81, dtype: object

>  <hydroph_interaction:TRP:28>  (83) 
hydroph_interaction:TRP:28    NaN
hydroph_interaction:TRP:28     -1
Name: 81, dtype: object

>  <hbond:SER:36>  (83) 
hbond:SER:36    NaN
hbond:SER:36     -1
Name: 81, dtype: object

>  <halogenbond:SER:36>  (83) 
halogenbond:SER:36    NaN
halogenbond:SER:36     -1
Name: 81, dtype: object

>  <hbond:SER:37>  (83) 
hbond:SER:37    NaN
hbond:SER:37     -1
Name: 81, dtype: object

>  <hbond:ARG:38>  (83) 
hbond:ARG:38    NaN
hbond:ARG:38     -1
Name: 81, dtype: object

>  <halogenbond:ARG:38>  (83) 
halogenbond:ARG:38    NaN
halogenbond:ARG:38     -1
Name: 81, dtype: object

>  <saltbridge:ASP:39>  (83) 
saltbridge:ASP:39    NaN
saltbridge:ASP:39     -1
Name: 81, dtype: object

>  <halogenbond:ASP:39>  (83) 
halogenbond:ASP:39    NaN
halogenbond:ASP:39     -1
Name: 81, dtype: object

>  <hbond:ASP:39>  (83) 
hbond:ASP:39    NaN
hbond:ASP:39     -1
Name: 81, dtype: object

>  <hydroph_interaction:ASP:39>  (83) 
hydroph_interaction:ASP:39    NaN
hydroph_interaction:ASP:39     -1
Name: 81, dtype: object

>  <hydroph_interaction:LEU:40>  (83) 
hydroph_interaction:LEU:40    NaN
hydroph_interaction:LEU:40     -1
Name: 81, dtype: object

>  <hydroph_interaction:TYR:63>  (83) 
hydroph_interaction:TYR:63    NaN
hydroph_interaction:TYR:63     -1
Name: 81, dtype: object

>  <hbond:TYR:63>  (83) 
hbond:TYR:63    NaN
hbond:TYR:63     -1
Name: 81, dtype: object

>  <pistack:TYR:63>  (83) 
pistack:TYR:63    NaN
pistack:TYR:63     -1
Name: 81, dtype: object

>  <pication:TYR:63>  (83) 
pication:TYR:63    NaN
pication:TYR:63     -1
Name: 81, dtype: object

>  <halogenbond:TYR:64>  (83) 
halogenbond:TYR:64    NaN
halogenbond:TYR:64     -1
Name: 81, dtype: object

>  <hbond:TYR:64>  (83) 
hbond:TYR:64    NaN
hbond:TYR:64     -1
Name: 81, dtype: object

>  <hydroph_interaction:TYR:64>  (83) 
hydroph_interaction:TYR:64    NaN
hydroph_interaction:TYR:64     -1
Name: 81, dtype: object

>  <halogenbond:CYS:65>  (83) 
halogenbond:CYS:65    NaN
halogenbond:CYS:65     -1
Name: 81, dtype: object

>  <hbond:CYS:65>  (83) 
hbond:CYS:65    NaN
hbond:CYS:65     -1
Name: 81, dtype: object

>  <hbond:SER:66>  (83) 
hbond:SER:66    NaN
hbond:SER:66     -1
Name: 81, dtype: object

>  <halogenbond:SER:66>  (83) 
halogenbond:SER:66    NaN
halogenbond:SER:66     -1
Name: 81, dtype: object

>  <hbond:SER:67>  (83) 
hbond:SER:67    NaN
hbond:SER:67     -1
Name: 81, dtype: object

>  <halogenbond:SER:67>  (83) 
halogenbond:SER:67    NaN
halogenbond:SER:67     -1
Name: 81, dtype: object

>  <hbond:ARG:68>  (83) 
hbond:ARG:68    NaN
hbond:ARG:68     -1
Name: 81, dtype: object

>  <saltbridge:ARG:68>  (83) 
saltbridge:ARG:68    NaN
saltbridge:ARG:68     -1
Name: 81, dtype: object

>  <hydroph_interaction:ARG:68>  (83) 
hydroph_interaction:ARG:68    NaN
hydroph_interaction:ARG:68     -1
Name: 81, dtype: object

>  <pication:ARG:68>  (83) 
pication:ARG:68    NaN
pication:ARG:68     -1
Name: 81, dtype: object

>  <hydroph_interaction:TYR:72>  (83) 
hydroph_interaction:TYR:72    NaN
hydroph_interaction:TYR:72     -1
Name: 81, dtype: object

>  <hydroph_interaction:VAL:74>  (83) 
hydroph_interaction:VAL:74    NaN
hydroph_interaction:VAL:74     -1
Name: 81, dtype: object

>  <hydroph_interaction:PHE:76>  (83) 
hydroph_interaction:PHE:76    NaN
hydroph_interaction:PHE:76     -1
Name: 81, dtype: object

>  <hbond:SER:77>  (83) 
hbond:SER:77    NaN
hbond:SER:77     -1
Name: 81, dtype: object

>  <hbond:SER:80>  (83) 
hbond:SER:80    NaN
hbond:SER:80     -1
Name: 81, dtype: object

>  <hbond:LEU:81>  (83) 
hbond:LEU:81    NaN
hbond:LEU:81     -1
Name: 81, dtype: object

>  <halogenbond:LEU:81>  (83) 
halogenbond:LEU:81    NaN
halogenbond:LEU:81     -1
Name: 81, dtype: object

>  <hydroph_interaction:LEU:81>  (83) 
hydroph_interaction:LEU:81    NaN
hydroph_interaction:LEU:81     -1
Name: 81, dtype: object

>  <hydroph_interaction:ILE:82>  (83) 
hydroph_interaction:ILE:82    NaN
hydroph_interaction:ILE:82     -1
Name: 81, dtype: object

>  <halogenbond:ILE:82>  (83) 
halogenbond:ILE:82    NaN
halogenbond:ILE:82     -1
Name: 81, dtype: object

>  <hbond:ILE:82>  (83) 
hbond:ILE:82    NaN
hbond:ILE:82     -1
Name: 81, dtype: object

>  <hbond:PHE:83>  (83) 
hbond:PHE:83    NaN
hbond:PHE:83     -1
Name: 81, dtype: object

>  <hydroph_interaction:PHE:83>  (83) 
hydroph_interaction:PHE:83    NaN
hydroph_interaction:PHE:83     -1
Name: 81, dtype: object

>  <halogenbond:PHE:83>  (83) 
halogenbond:PHE:83    NaN
halogenbond:PHE:83     -1
Name: 81, dtype: object

>  <pistack:PHE:83>  (83) 
pistack:PHE:83    NaN
pistack:PHE:83     -1
Name: 81, dtype: object

>  <pication:PHE:83>  (83) 
pication:PHE:83    NaN
pication:PHE:83     -1
Name: 81, dtype: object

>  <hydroph_interaction:VAL:84>  (83) 
hydroph_interaction:VAL:84    NaN
hydroph_interaction:VAL:84     -1
Name: 81, dtype: object

>  <halogenbond:VAL:84>  (83) 
halogenbond:VAL:84    NaN
halogenbond:VAL:84     -1
Name: 81, dtype: object

>  <hbond:VAL:84>  (83) 
hbond:VAL:84    NaN
hbond:VAL:84     -1
Name: 81, dtype: object

>  <hydroph_interaction:GLU:85>  (83) 
hydroph_interaction:GLU:85    NaN
hydroph_interaction:GLU:85     -1
Name: 81, dtype: object

>  <hbond:GLU:85>  (83) 
hbond:GLU:85    NaN
hbond:GLU:85     -1
Name: 81, dtype: object

>  <halogenbond:GLU:85>  (83) 
halogenbond:GLU:85    NaN
halogenbond:GLU:85     -1
Name: 81, dtype: object

>  <saltbridge:GLU:85>  (83) 
saltbridge:GLU:85    NaN
saltbridge:GLU:85     -1
Name: 81, dtype: object

>  <halogenbond:ALA:86>  (83) 
halogenbond:ALA:86    NaN
halogenbond:ALA:86     -1
Name: 81, dtype: object

>  <hbond:ALA:86>  (83) 
hbond:ALA:86    NaN
hbond:ALA:86     -1
Name: 81, dtype: object

>  <hydroph_interaction:ALA:86>  (83) 
hydroph_interaction:ALA:86    NaN
hydroph_interaction:ALA:86     -1
Name: 81, dtype: object

>  <hbond:SER:87>  (83) 
hbond:SER:87    0
hbond:SER:87    0
Name: 81, dtype: object

>  <halogenbond:SER:87>  (83) 
halogenbond:SER:87    NaN
halogenbond:SER:87     -1
Name: 81, dtype: object

>  <hbond:GLU:88>  (83) 
hbond:GLU:88    0.0
hbond:GLU:88      0
Name: 81, dtype: object

>  <hydroph_interaction:GLU:88>  (83) 
hydroph_interaction:GLU:88    0.0
hydroph_interaction:GLU:88      0
Name: 81, dtype: object

>  <halogenbond:GLU:88>  (83) 
halogenbond:GLU:88    NaN
halogenbond:GLU:88     -1
Name: 81, dtype: object

>  <saltbridge:GLU:88>  (83) 
saltbridge:GLU:88    NaN
saltbridge:GLU:88     -1
Name: 81, dtype: object

>  <hydroph_interaction:TYR:89>  (83) 
hydroph_interaction:TYR:89    0.0
hydroph_interaction:TYR:89      0
Name: 81, dtype: object

>  <pistack:TYR:89>  (83) 
pistack:TYR:89    NaN
pistack:TYR:89     -1
Name: 81, dtype: object

>  <hbond:TYR:89>  (83) 
hbond:TYR:89    NaN
hbond:TYR:89     -1
Name: 81, dtype: object

>  <halogenbond:TYR:89>  (83) 
halogenbond:TYR:89    NaN
halogenbond:TYR:89     -1
Name: 81, dtype: object

>  <hydroph_interaction:TYR:90>  (83) 
hydroph_interaction:TYR:90    0.0
hydroph_interaction:TYR:90      0
Name: 81, dtype: object

>  <hbond:TYR:90>  (83) 
hbond:TYR:90    NaN
hbond:TYR:90     -1
Name: 81, dtype: object

>  <pistack:TYR:90>  (83) 
pistack:TYR:90    NaN
pistack:TYR:90     -1
Name: 81, dtype: object

>  <halogenbond:TYR:90>  (83) 
halogenbond:TYR:90    NaN
halogenbond:TYR:90     -1
Name: 81, dtype: object

>  <pication:TYR:90>  (83) 
pication:TYR:90    NaN
pication:TYR:90     -1
Name: 81, dtype: object

>  <hbond:PRO:91>  (83) 
hbond:PRO:91    NaN
hbond:PRO:91     -1
Name: 81, dtype: object

>  <hydroph_interaction:PRO:91>  (83) 
hydroph_interaction:PRO:91    NaN
hydroph_interaction:PRO:91     -1
Name: 81, dtype: object

>  <halogenbond:PRO:91>  (83) 
halogenbond:PRO:91    NaN
halogenbond:PRO:91     -1
Name: 81, dtype: object

>  <hbond:ALA:92>  (83) 
hbond:ALA:92    NaN
hbond:ALA:92     -1
Name: 81, dtype: object

>  <hydroph_interaction:ALA:92>  (83) 
hydroph_interaction:ALA:92    NaN
hydroph_interaction:ALA:92     -1
Name: 81, dtype: object

>  <saltbridge:ARG:93>  (83) 
saltbridge:ARG:93    NaN
saltbridge:ARG:93     -1
Name: 81, dtype: object

>  <hbond:ARG:93>  (83) 
hbond:ARG:93    NaN
hbond:ARG:93     -1
Name: 81, dtype: object

>  <hydroph_interaction:ARG:93>  (83) 
hydroph_interaction:ARG:93    NaN
hydroph_interaction:ARG:93     -1
Name: 81, dtype: object

>  <halogenbond:ARG:93>  (83) 
halogenbond:ARG:93    NaN
halogenbond:ARG:93     -1
Name: 81, dtype: object

>  <pication:ARG:93>  (83) 
pication:ARG:93    NaN
pication:ARG:93     -1
Name: 81, dtype: object

>  <hydroph_interaction:TYR:94>  (83) 
hydroph_interaction:TYR:94    NaN
hydroph_interaction:TYR:94     -1
Name: 81, dtype: object

>  <pistack:TYR:94>  (83) 
pistack:TYR:94    NaN
pistack:TYR:94     -1
Name: 81, dtype: object

>  <hbond:TYR:94>  (83) 
hbond:TYR:94    NaN
hbond:TYR:94     -1
Name: 81, dtype: object

>  <hbond:GLN:95>  (83) 
hbond:GLN:95    NaN
hbond:GLN:95     -1
Name: 81, dtype: object

>  <hydroph_interaction:GLN:95>  (83) 
hydroph_interaction:GLN:95    NaN
hydroph_interaction:GLN:95     -1
Name: 81, dtype: object

>  <halogenbond:GLN:95>  (83) 
halogenbond:GLN:95    NaN
halogenbond:GLN:95     -1
Name: 81, dtype: object

>  <hbond:SER:96>  (83) 
hbond:SER:96    NaN
hbond:SER:96     -1
Name: 81, dtype: object

>  <halogenbond:HIS:97>  (83) 
halogenbond:HIS:97    NaN
halogenbond:HIS:97     -1
Name: 81, dtype: object

>  <hydroph_interaction:LEU:98>  (83) 
hydroph_interaction:LEU:98    NaN
hydroph_interaction:LEU:98     -1
Name: 81, dtype: object

>  <hbond:LEU:98>  (83) 
hbond:LEU:98    NaN
hbond:LEU:98     -1
Name: 81, dtype: object

>  <halogenbond:LEU:98>  (83) 
halogenbond:LEU:98    NaN
halogenbond:LEU:98     -1
Name: 81, dtype: object

>  <hbond:MET:99>  (83) 
hbond:MET:99    NaN
hbond:MET:99     -1
Name: 81, dtype: object

>  <hydroph_interaction:MET:99>  (83) 
hydroph_interaction:MET:99    NaN
hydroph_interaction:MET:99     -1
Name: 81, dtype: object

>  <halogenbond:MET:99>  (83) 
halogenbond:MET:99    NaN
halogenbond:MET:99     -1
Name: 81, dtype: object

>  <hydroph_interaction:LEU:100>  (83) 
hydroph_interaction:LEU:100    NaN
hydroph_interaction:LEU:100     -1
Name: 81, dtype: object

>  <hbond:LEU:100>  (83) 
hbond:LEU:100    NaN
hbond:LEU:100     -1
Name: 81, dtype: object

>  <hbond:ALA:101>  (83) 
hbond:ALA:101    NaN
hbond:ALA:101     -1
Name: 81, dtype: object

>  <hydroph_interaction:ALA:101>  (83) 
hydroph_interaction:ALA:101    NaN
hydroph_interaction:ALA:101     -1
Name: 81, dtype: object

>  <hydroph_interaction:VAL:102>  (83) 
hydroph_interaction:VAL:102    NaN
hydroph_interaction:VAL:102     -1
Name: 81, dtype: object

>  <hbond:VAL:102>  (83) 
hbond:VAL:102    NaN
hbond:VAL:102     -1
Name: 81, dtype: object

>  <hbond:GLY:103>  (83) 
hbond:GLY:103    NaN
hbond:GLY:103     -1
Name: 81, dtype: object

>  <halogenbond:GLY:103>  (83) 
halogenbond:GLY:103    NaN
halogenbond:GLY:103     -1
Name: 81, dtype: object

>  <hbond:HIS:104>  (83) 
hbond:HIS:104    NaN
hbond:HIS:104     -1
Name: 81, dtype: object

>  <saltbridge:HIS:104>  (83) 
saltbridge:HIS:104    NaN
saltbridge:HIS:104     -1
Name: 81, dtype: object

>  <pication:HIS:104>  (83) 
pication:HIS:104    NaN
pication:HIS:104     -1
Name: 81, dtype: object

>  <halogenbond:HIS:104>  (83) 
halogenbond:HIS:104    NaN
halogenbond:HIS:104     -1
Name: 81, dtype: object

>  <hydroph_interaction:HIS:104>  (83) 
hydroph_interaction:HIS:104    NaN
hydroph_interaction:HIS:104     -1
Name: 81, dtype: object

>  <pistack:HIS:104>  (83) 
pistack:HIS:104    NaN
pistack:HIS:104     -1
Name: 81, dtype: object

>  <halogenbond:SER:105>  (83) 
halogenbond:SER:105    0.0
halogenbond:SER:105      0
Name: 81, dtype: object

>  <hbond:SER:105>  (83) 
hbond:SER:105    0.0
hbond:SER:105      0
Name: 81, dtype: object

>  <hbond:GLU:106>  (83) 
hbond:GLU:106    0.0
hbond:GLU:106      0
Name: 81, dtype: object

>  <hydroph_interaction:GLU:106>  (83) 
hydroph_interaction:GLU:106    NaN
hydroph_interaction:GLU:106     -1
Name: 81, dtype: object

>  <saltbridge:GLU:106>  (83) 
saltbridge:GLU:106    NaN
saltbridge:GLU:106     -1
Name: 81, dtype: object

>  <halogenbond:GLU:106>  (83) 
halogenbond:GLU:106    NaN
halogenbond:GLU:106     -1
Name: 81, dtype: object

>  <hydroph_interaction:PRO:107>  (83) 
hydroph_interaction:PRO:107    1
hydroph_interaction:PRO:107    1
Name: 81, dtype: object

>  <hbond:PRO:107>  (83) 
hbond:PRO:107    0.0
hbond:PRO:107      0
Name: 81, dtype: object

>  <halogenbond:PRO:107>  (83) 
halogenbond:PRO:107    NaN
halogenbond:PRO:107     -1
Name: 81, dtype: object

>  <hbond:GLY:108>  (83) 
hbond:GLY:108    NaN
hbond:GLY:108     -1
Name: 81, dtype: object

>  <halogenbond:GLY:108>  (83) 
halogenbond:GLY:108    NaN
halogenbond:GLY:108     -1
Name: 81, dtype: object

>  <hbond:ASP:109>  (83) 
hbond:ASP:109    0.0
hbond:ASP:109      0
Name: 81, dtype: object

>  <hydroph_interaction:ASP:109>  (83) 
hydroph_interaction:ASP:109    0.0
hydroph_interaction:ASP:109      0
Name: 81, dtype: object

>  <saltbridge:ASP:109>  (83) 
saltbridge:ASP:109    NaN
saltbridge:ASP:109     -1
Name: 81, dtype: object

>  <halogenbond:CYS:110>  (83) 
halogenbond:CYS:110    NaN
halogenbond:CYS:110     -1
Name: 81, dtype: object

>  <hbond:CYS:110>  (83) 
hbond:CYS:110    0.0
hbond:CYS:110      0
Name: 81, dtype: object

>  <hbond:GLY:111>  (83) 
hbond:GLY:111    NaN
hbond:GLY:111     -1
Name: 81, dtype: object

>  <hbond:GLY:112>  (83) 
hbond:GLY:112    NaN
hbond:GLY:112     -1
Name: 81, dtype: object

>  <hbond:ILE:113>  (83) 
hbond:ILE:113    NaN
hbond:ILE:113     -1
Name: 81, dtype: object

>  <hydroph_interaction:LEU:114>  (83) 
hydroph_interaction:LEU:114    NaN
hydroph_interaction:LEU:114     -1
Name: 81, dtype: object

>  <hbond:LEU:114>  (83) 
hbond:LEU:114    NaN
hbond:LEU:114     -1
Name: 81, dtype: object

>  <hydroph_interaction:ILE:123>  (83) 
hydroph_interaction:ILE:123    NaN
hydroph_interaction:ILE:123     -1
Name: 81, dtype: object

>  <hbond:ILE:123>  (83) 
hbond:ILE:123    NaN
hbond:ILE:123     -1
Name: 81, dtype: object

>  <hydroph_interaction:VAL:124>  (83) 
hydroph_interaction:VAL:124    1.0
hydroph_interaction:VAL:124      1
Name: 81, dtype: object

>  <hbond:VAL:124>  (83) 
hbond:VAL:124    NaN
hbond:VAL:124     -1
Name: 81, dtype: object

>  <halogenbond:VAL:124>  (83) 
halogenbond:VAL:124    NaN
halogenbond:VAL:124     -1
Name: 81, dtype: object

>  <hbond:SER:125>  (83) 
hbond:SER:125    0
hbond:SER:125    0
Name: 81, dtype: object

>  <halogenbond:SER:125>  (83) 
halogenbond:SER:125    NaN
halogenbond:SER:125     -1
Name: 81, dtype: object

>  <hydroph_interaction:THR:126>  (83) 
hydroph_interaction:THR:126    NaN
hydroph_interaction:THR:126     -1
Name: 81, dtype: object

>  <hbond:THR:126>  (83) 
hbond:THR:126    0.0
hbond:THR:126      0
Name: 81, dtype: object

>  <halogenbond:THR:126>  (83) 
halogenbond:THR:126    NaN
halogenbond:THR:126     -1
Name: 81, dtype: object

>  <hbond:GLY:127>  (83) 
hbond:GLY:127    0
hbond:GLY:127    0
Name: 81, dtype: object

>  <halogenbond:GLY:127>  (83) 
halogenbond:GLY:127    NaN
halogenbond:GLY:127     -1
Name: 81, dtype: object

>  <hydroph_interaction:GLY:127>  (83) 
hydroph_interaction:GLY:127    NaN
hydroph_interaction:GLY:127     -1
Name: 81, dtype: object

>  <hbond:GLY:128>  (83) 
hbond:GLY:128    NaN
hbond:GLY:128     -1
Name: 81, dtype: object

>  <halogenbond:GLY:128>  (83) 
halogenbond:GLY:128    NaN
halogenbond:GLY:128     -1
Name: 81, dtype: object

>  <hydroph_interaction:GLY:128>  (83) 
hydroph_interaction:GLY:128    NaN
hydroph_interaction:GLY:128     -1
Name: 81, dtype: object

>  <hbond:ASN:129>  (83) 
hbond:ASN:129    NaN
hbond:ASN:129     -1
Name: 81, dtype: object

>  <hydroph_interaction:ASN:129>  (83) 
hydroph_interaction:ASN:129    NaN
hydroph_interaction:ASN:129     -1
Name: 81, dtype: object

>  <halogenbond:ASN:129>  (83) 
halogenbond:ASN:129    NaN
halogenbond:ASN:129     -1
Name: 81, dtype: object

>  <hbond:GLY:130>  (83) 
hbond:GLY:130    NaN
hbond:GLY:130     -1
Name: 81, dtype: object

>  <hbond:LEU:131>  (83) 
hbond:LEU:131    NaN
hbond:LEU:131     -1
Name: 81, dtype: object

>  <hydroph_interaction:LEU:131>  (83) 
hydroph_interaction:LEU:131    NaN
hydroph_interaction:LEU:131     -1
Name: 81, dtype: object

>  <halogenbond:LEU:131>  (83) 
halogenbond:LEU:131    NaN
halogenbond:LEU:131     -1
Name: 81, dtype: object

>  <hydroph_interaction:VAL:132>  (83) 
hydroph_interaction:VAL:132    NaN
hydroph_interaction:VAL:132     -1
Name: 81, dtype: object

>  <hbond:VAL:132>  (83) 
hbond:VAL:132    NaN
hbond:VAL:132     -1
Name: 81, dtype: object

>  <hbond:GLY:133>  (83) 
hbond:GLY:133    NaN
hbond:GLY:133     -1
Name: 81, dtype: object

>  <halogenbond:GLY:133>  (83) 
halogenbond:GLY:133    NaN
halogenbond:GLY:133     -1
Name: 81, dtype: object

>  <hydroph_interaction:PHE:134>  (83) 
hydroph_interaction:PHE:134    NaN
hydroph_interaction:PHE:134     -1
Name: 81, dtype: object

>  <hbond:PHE:134>  (83) 
hbond:PHE:134    NaN
hbond:PHE:134     -1
Name: 81, dtype: object

>  <pistack:PHE:134>  (83) 
pistack:PHE:134    NaN
pistack:PHE:134     -1
Name: 81, dtype: object

>  <pication:PHE:134>  (83) 
pication:PHE:134    NaN
pication:PHE:134     -1
Name: 81, dtype: object

>  <halogenbond:PHE:134>  (83) 
halogenbond:PHE:134    NaN
halogenbond:PHE:134     -1
Name: 81, dtype: object

>  <hydroph_interaction:ALA:135>  (83) 
hydroph_interaction:ALA:135    NaN
hydroph_interaction:ALA:135     -1
Name: 81, dtype: object

>  <hbond:ALA:135>  (83) 
hbond:ALA:135    NaN
hbond:ALA:135     -1
Name: 81, dtype: object

$$$$
Z1533151682
     RDKit          3D

 16 16  0  0  0  0  0  0  0  0999 V2000
   28.4861   13.3256    6.6387 C   0  0  0  0  0  0  0  0  0  0  0  0
   27.7525   14.0320    7.7549 C   0  0  0  0  0  0  0  0  0  0  0  0
   28.5019   15.2582    8.2418 C   0  0  1  0  0  0  0  0  0  0  0  0
   27.7552   16.0152    9.3175 C   0  0  0  0  0  0  0  0  0  0  0  0
   29.8451   14.9154    8.8419 C   0  0  0  0  0  0  0  0  0  0  0  0
   30.4894   15.7580    9.4588 O   0  0  0  0  0  0  0  0  0  0  0  0
   30.2932   13.5012    8.6053 C   0  0  0  0  0  0  0  0  0  0  0  0
   31.1564   13.3674    7.4839 O   0  0  0  0  0  0  0  0  0  0  0  0
   31.4664   12.0668    7.2501 C   0  0  0  0  0  0  0  0  0  0  0  0
   30.7810   10.9168    8.0055 C   0  0  0  0  0  0  0  0  0  0  0  0
   31.1260    9.6136    7.7598 C   0  0  0  0  0  0  0  0  0  0  0  0
   30.5121    8.4465    8.4469 C   0  0  0  0  0  0  0  0  0  0  0  0
   32.1150    9.3428    6.8054 C   0  0  0  0  0  0  0  0  0  0  0  0
   32.7898   10.4752    6.0514 C   0  0  0  0  0  0  0  0  0  0  0  0
   32.4421   11.7867    6.2976 C   0  0  0  0  0  0  0  0  0  0  0  0
   33.0562   12.7648    5.6140 F   0  0  0  0  0  0  0  0  0  0  0  0
  1  2  1  0
  2  3  1  0
  3  4  1  1
  3  5  1  0
  5  6  2  0
  5  7  1  0
  7  8  1  0
  8  9  1  0
  9 10  2  0
 10 11  1  0
 11 12  1  0
 11 13  2  0
 13 14  1  0
 14 15  2  0
 15 16  1  0
 15  9  1  0
A    1
 C1 
A    2
 C2 
A    3
 C3 
A    4
 C4 
A    5
 C5 
A    6
 O1 
A    7
 C6 
A    8
 O2 
A    9
 C7 
A   10
 C8 
A   11
 C9 
A   12
 C10
A   13
 C11
A   14
 C12
A   15
 C13
A   16
 F1 
M  END
>  <ref_pdb>  (84) 
Ax0310a

>  <ref_mols>  (84) 
Ax0416a,Ax0528a

>  <original SMILES>  (84) 
CCC(C)C(=O)COc1cc(C)ccc1F

>  <rationale>  (84) 
info halogenbond:C110+G127+A86+E85+Q95+E106+E88+T126+H104+Y64+C65+S87+N129+F83+R93+L131+I82+G128+P91+N19+H21+V84+G133+Y90+Y89+H97+L81+F134+L98+R20+G103+S66+S67+S7+G108+R38+V124+M99+S36; hbond:S87+Q95+D39+G108+G103+G128+G130+L131+N129+N19+H104+R68+V124+R93+P91+F83+S7+S66+G112+G133+V132+R20+Y89+S77+A135+Y63+A92+A101+M99+F134+L100+I82+Y64+S36+L98+V84+L81+Y94+S80+R38+S37+V102+G8+I123+G111+I113+L114+C65+L22+S96; hydroph_interaction:V124+Y90+Y89+P107+L22+E106+N129+N19+L40+I123+A135+I82+L100+L98+L131+F83+R93+F134+H104+A86+V74+P91+A101+F76+M99+L114+A92+Y94+R68+Y72+Y64+V18+V102+W28+G127+G128+L81; pication:H104+Y63+F134+Y90+R68+F83+R20; pistack:Y89+H104+F134+Y63+F83+Y94; saltbridge:R93+H104+E106+D109+E85+E88+R68+R20; 

>  <intxn_cluster>  (84) 
-1

>  <intxn_cluster_rank>  (84) 
-1

>  <N_interactions>  (84) 
6

>  <∆∆G>  (84) 
-12.830604

>  <$/mg>  (84) 
0.0

>  <comRMSD>  (84) 
0.630415

>  <N_rotatable_bonds>  (84) 
8

>  <deep_P1_sidechain>  (84) 
nan

>  <farthest_distance_to_substrate>  (84) 
2.213516

>  <hbond:SER:7>  (84) 
hbond:SER:7    NaN
hbond:SER:7     -1
Name: 82, dtype: object

>  <halogenbond:SER:7>  (84) 
halogenbond:SER:7    NaN
halogenbond:SER:7     -1
Name: 82, dtype: object

>  <hbond:GLY:8>  (84) 
hbond:GLY:8    NaN
hbond:GLY:8     -1
Name: 82, dtype: object

>  <hydroph_interaction:VAL:18>  (84) 
hydroph_interaction:VAL:18    NaN
hydroph_interaction:VAL:18     -1
Name: 82, dtype: object

>  <hbond:ASN:19>  (84) 
hbond:ASN:19    NaN
hbond:ASN:19     -1
Name: 82, dtype: object

>  <hydroph_interaction:ASN:19>  (84) 
hydroph_interaction:ASN:19    NaN
hydroph_interaction:ASN:19     -1
Name: 82, dtype: object

>  <halogenbond:ASN:19>  (84) 
halogenbond:ASN:19    NaN
halogenbond:ASN:19     -1
Name: 82, dtype: object

>  <hbond:ARG:20>  (84) 
hbond:ARG:20    NaN
hbond:ARG:20     -1
Name: 82, dtype: object

>  <hydroph_interaction:ARG:20>  (84) 
hydroph_interaction:ARG:20    0.0
hydroph_interaction:ARG:20      0
Name: 82, dtype: object

>  <saltbridge:ARG:20>  (84) 
saltbridge:ARG:20    NaN
saltbridge:ARG:20     -1
Name: 82, dtype: object

>  <halogenbond:ARG:20>  (84) 
halogenbond:ARG:20    NaN
halogenbond:ARG:20     -1
Name: 82, dtype: object

>  <pication:ARG:20>  (84) 
pication:ARG:20    NaN
pication:ARG:20     -1
Name: 82, dtype: object

>  <hbond:HIS:21>  (84) 
hbond:HIS:21    0.0
hbond:HIS:21      0
Name: 82, dtype: object

>  <hydroph_interaction:HIS:21>  (84) 
hydroph_interaction:HIS:21    0.0
hydroph_interaction:HIS:21      0
Name: 82, dtype: object

>  <pistack:HIS:21>  (84) 
pistack:HIS:21    0.0
pistack:HIS:21      0
Name: 82, dtype: object

>  <pication:HIS:21>  (84) 
pication:HIS:21    0.0
pication:HIS:21      0
Name: 82, dtype: object

>  <saltbridge:HIS:21>  (84) 
saltbridge:HIS:21    0.0
saltbridge:HIS:21      0
Name: 82, dtype: object

>  <halogenbond:HIS:21>  (84) 
halogenbond:HIS:21    NaN
halogenbond:HIS:21     -1
Name: 82, dtype: object

>  <hydroph_interaction:LEU:22>  (84) 
hydroph_interaction:LEU:22    NaN
hydroph_interaction:LEU:22     -1
Name: 82, dtype: object

>  <hbond:LEU:22>  (84) 
hbond:LEU:22    NaN
hbond:LEU:22     -1
Name: 82, dtype: object

>  <hydroph_interaction:TRP:28>  (84) 
hydroph_interaction:TRP:28    NaN
hydroph_interaction:TRP:28     -1
Name: 82, dtype: object

>  <hbond:SER:36>  (84) 
hbond:SER:36    NaN
hbond:SER:36     -1
Name: 82, dtype: object

>  <halogenbond:SER:36>  (84) 
halogenbond:SER:36    NaN
halogenbond:SER:36     -1
Name: 82, dtype: object

>  <hbond:SER:37>  (84) 
hbond:SER:37    NaN
hbond:SER:37     -1
Name: 82, dtype: object

>  <hbond:ARG:38>  (84) 
hbond:ARG:38    NaN
hbond:ARG:38     -1
Name: 82, dtype: object

>  <halogenbond:ARG:38>  (84) 
halogenbond:ARG:38    NaN
halogenbond:ARG:38     -1
Name: 82, dtype: object

>  <saltbridge:ASP:39>  (84) 
saltbridge:ASP:39    0.0
saltbridge:ASP:39      0
Name: 82, dtype: object

>  <halogenbond:ASP:39>  (84) 
halogenbond:ASP:39    0.0
halogenbond:ASP:39      0
Name: 82, dtype: object

>  <hbond:ASP:39>  (84) 
hbond:ASP:39    NaN
hbond:ASP:39     -1
Name: 82, dtype: object

>  <hydroph_interaction:ASP:39>  (84) 
hydroph_interaction:ASP:39    0.0
hydroph_interaction:ASP:39      0
Name: 82, dtype: object

>  <hydroph_interaction:LEU:40>  (84) 
hydroph_interaction:LEU:40    NaN
hydroph_interaction:LEU:40     -1
Name: 82, dtype: object

>  <hydroph_interaction:TYR:63>  (84) 
hydroph_interaction:TYR:63    0.0
hydroph_interaction:TYR:63      0
Name: 82, dtype: object

>  <hbond:TYR:63>  (84) 
hbond:TYR:63    NaN
hbond:TYR:63     -1
Name: 82, dtype: object

>  <pistack:TYR:63>  (84) 
pistack:TYR:63    NaN
pistack:TYR:63     -1
Name: 82, dtype: object

>  <pication:TYR:63>  (84) 
pication:TYR:63    NaN
pication:TYR:63     -1
Name: 82, dtype: object

>  <halogenbond:TYR:64>  (84) 
halogenbond:TYR:64    NaN
halogenbond:TYR:64     -1
Name: 82, dtype: object

>  <hbond:TYR:64>  (84) 
hbond:TYR:64    NaN
hbond:TYR:64     -1
Name: 82, dtype: object

>  <hydroph_interaction:TYR:64>  (84) 
hydroph_interaction:TYR:64    NaN
hydroph_interaction:TYR:64     -1
Name: 82, dtype: object

>  <halogenbond:CYS:65>  (84) 
halogenbond:CYS:65    NaN
halogenbond:CYS:65     -1
Name: 82, dtype: object

>  <hbond:CYS:65>  (84) 
hbond:CYS:65    NaN
hbond:CYS:65     -1
Name: 82, dtype: object

>  <hbond:SER:66>  (84) 
hbond:SER:66    NaN
hbond:SER:66     -1
Name: 82, dtype: object

>  <halogenbond:SER:66>  (84) 
halogenbond:SER:66    NaN
halogenbond:SER:66     -1
Name: 82, dtype: object

>  <hbond:SER:67>  (84) 
hbond:SER:67    0.0
hbond:SER:67      0
Name: 82, dtype: object

>  <halogenbond:SER:67>  (84) 
halogenbond:SER:67    NaN
halogenbond:SER:67     -1
Name: 82, dtype: object

>  <hbond:ARG:68>  (84) 
hbond:ARG:68    NaN
hbond:ARG:68     -1
Name: 82, dtype: object

>  <saltbridge:ARG:68>  (84) 
saltbridge:ARG:68    NaN
saltbridge:ARG:68     -1
Name: 82, dtype: object

>  <hydroph_interaction:ARG:68>  (84) 
hydroph_interaction:ARG:68    NaN
hydroph_interaction:ARG:68     -1
Name: 82, dtype: object

>  <pication:ARG:68>  (84) 
pication:ARG:68    NaN
pication:ARG:68     -1
Name: 82, dtype: object

>  <hydroph_interaction:TYR:72>  (84) 
hydroph_interaction:TYR:72    NaN
hydroph_interaction:TYR:72     -1
Name: 82, dtype: object

>  <hydroph_interaction:VAL:74>  (84) 
hydroph_interaction:VAL:74    NaN
hydroph_interaction:VAL:74     -1
Name: 82, dtype: object

>  <hydroph_interaction:PHE:76>  (84) 
hydroph_interaction:PHE:76    NaN
hydroph_interaction:PHE:76     -1
Name: 82, dtype: object

>  <hbond:SER:77>  (84) 
hbond:SER:77    NaN
hbond:SER:77     -1
Name: 82, dtype: object

>  <hbond:SER:80>  (84) 
hbond:SER:80    NaN
hbond:SER:80     -1
Name: 82, dtype: object

>  <hbond:LEU:81>  (84) 
hbond:LEU:81    NaN
hbond:LEU:81     -1
Name: 82, dtype: object

>  <halogenbond:LEU:81>  (84) 
halogenbond:LEU:81    NaN
halogenbond:LEU:81     -1
Name: 82, dtype: object

>  <hydroph_interaction:LEU:81>  (84) 
hydroph_interaction:LEU:81    NaN
hydroph_interaction:LEU:81     -1
Name: 82, dtype: object

>  <hydroph_interaction:ILE:82>  (84) 
hydroph_interaction:ILE:82    NaN
hydroph_interaction:ILE:82     -1
Name: 82, dtype: object

>  <halogenbond:ILE:82>  (84) 
halogenbond:ILE:82    NaN
halogenbond:ILE:82     -1
Name: 82, dtype: object

>  <hbond:ILE:82>  (84) 
hbond:ILE:82    NaN
hbond:ILE:82     -1
Name: 82, dtype: object

>  <hbond:PHE:83>  (84) 
hbond:PHE:83    NaN
hbond:PHE:83     -1
Name: 82, dtype: object

>  <hydroph_interaction:PHE:83>  (84) 
hydroph_interaction:PHE:83    NaN
hydroph_interaction:PHE:83     -1
Name: 82, dtype: object

>  <halogenbond:PHE:83>  (84) 
halogenbond:PHE:83    NaN
halogenbond:PHE:83     -1
Name: 82, dtype: object

>  <pistack:PHE:83>  (84) 
pistack:PHE:83    NaN
pistack:PHE:83     -1
Name: 82, dtype: object

>  <pication:PHE:83>  (84) 
pication:PHE:83    NaN
pication:PHE:83     -1
Name: 82, dtype: object

>  <hydroph_interaction:VAL:84>  (84) 
hydroph_interaction:VAL:84    0.0
hydroph_interaction:VAL:84      0
Name: 82, dtype: object

>  <halogenbond:VAL:84>  (84) 
halogenbond:VAL:84    NaN
halogenbond:VAL:84     -1
Name: 82, dtype: object

>  <hbond:VAL:84>  (84) 
hbond:VAL:84    NaN
hbond:VAL:84     -1
Name: 82, dtype: object

>  <hydroph_interaction:GLU:85>  (84) 
hydroph_interaction:GLU:85    0.0
hydroph_interaction:GLU:85      0
Name: 82, dtype: object

>  <hbond:GLU:85>  (84) 
hbond:GLU:85    0.0
hbond:GLU:85      0
Name: 82, dtype: object

>  <halogenbond:GLU:85>  (84) 
halogenbond:GLU:85    NaN
halogenbond:GLU:85     -1
Name: 82, dtype: object

>  <saltbridge:GLU:85>  (84) 
saltbridge:GLU:85    NaN
saltbridge:GLU:85     -1
Name: 82, dtype: object

>  <halogenbond:ALA:86>  (84) 
halogenbond:ALA:86    NaN
halogenbond:ALA:86     -1
Name: 82, dtype: object

>  <hbond:ALA:86>  (84) 
hbond:ALA:86    0.0
hbond:ALA:86      0
Name: 82, dtype: object

>  <hydroph_interaction:ALA:86>  (84) 
hydroph_interaction:ALA:86    NaN
hydroph_interaction:ALA:86     -1
Name: 82, dtype: object

>  <hbond:SER:87>  (84) 
hbond:SER:87    1
hbond:SER:87    1
Name: 82, dtype: object

>  <halogenbond:SER:87>  (84) 
halogenbond:SER:87    NaN
halogenbond:SER:87     -1
Name: 82, dtype: object

>  <hbond:GLU:88>  (84) 
hbond:GLU:88    0.0
hbond:GLU:88      0
Name: 82, dtype: object

>  <hydroph_interaction:GLU:88>  (84) 
hydroph_interaction:GLU:88    0.0
hydroph_interaction:GLU:88      0
Name: 82, dtype: object

>  <halogenbond:GLU:88>  (84) 
halogenbond:GLU:88    NaN
halogenbond:GLU:88     -1
Name: 82, dtype: object

>  <saltbridge:GLU:88>  (84) 
saltbridge:GLU:88    NaN
saltbridge:GLU:88     -1
Name: 82, dtype: object

>  <hydroph_interaction:TYR:89>  (84) 
hydroph_interaction:TYR:89    1.0
hydroph_interaction:TYR:89      1
Name: 82, dtype: object

>  <pistack:TYR:89>  (84) 
pistack:TYR:89    NaN
pistack:TYR:89     -1
Name: 82, dtype: object

>  <hbond:TYR:89>  (84) 
hbond:TYR:89    NaN
hbond:TYR:89     -1
Name: 82, dtype: object

>  <halogenbond:TYR:89>  (84) 
halogenbond:TYR:89    NaN
halogenbond:TYR:89     -1
Name: 82, dtype: object

>  <hydroph_interaction:TYR:90>  (84) 
hydroph_interaction:TYR:90    1.0
hydroph_interaction:TYR:90      1
Name: 82, dtype: object

>  <hbond:TYR:90>  (84) 
hbond:TYR:90    0.0
hbond:TYR:90      0
Name: 82, dtype: object

>  <pistack:TYR:90>  (84) 
pistack:TYR:90    0.0
pistack:TYR:90      0
Name: 82, dtype: object

>  <halogenbond:TYR:90>  (84) 
halogenbond:TYR:90    NaN
halogenbond:TYR:90     -1
Name: 82, dtype: object

>  <pication:TYR:90>  (84) 
pication:TYR:90    NaN
pication:TYR:90     -1
Name: 82, dtype: object

>  <hbond:PRO:91>  (84) 
hbond:PRO:91    NaN
hbond:PRO:91     -1
Name: 82, dtype: object

>  <hydroph_interaction:PRO:91>  (84) 
hydroph_interaction:PRO:91    NaN
hydroph_interaction:PRO:91     -1
Name: 82, dtype: object

>  <halogenbond:PRO:91>  (84) 
halogenbond:PRO:91    NaN
halogenbond:PRO:91     -1
Name: 82, dtype: object

>  <hbond:ALA:92>  (84) 
hbond:ALA:92    NaN
hbond:ALA:92     -1
Name: 82, dtype: object

>  <hydroph_interaction:ALA:92>  (84) 
hydroph_interaction:ALA:92    NaN
hydroph_interaction:ALA:92     -1
Name: 82, dtype: object

>  <saltbridge:ARG:93>  (84) 
saltbridge:ARG:93    NaN
saltbridge:ARG:93     -1
Name: 82, dtype: object

>  <hbond:ARG:93>  (84) 
hbond:ARG:93    NaN
hbond:ARG:93     -1
Name: 82, dtype: object

>  <hydroph_interaction:ARG:93>  (84) 
hydroph_interaction:ARG:93    NaN
hydroph_interaction:ARG:93     -1
Name: 82, dtype: object

>  <halogenbond:ARG:93>  (84) 
halogenbond:ARG:93    NaN
halogenbond:ARG:93     -1
Name: 82, dtype: object

>  <pication:ARG:93>  (84) 
pication:ARG:93    0.0
pication:ARG:93      0
Name: 82, dtype: object

>  <hydroph_interaction:TYR:94>  (84) 
hydroph_interaction:TYR:94    NaN
hydroph_interaction:TYR:94     -1
Name: 82, dtype: object

>  <pistack:TYR:94>  (84) 
pistack:TYR:94    NaN
pistack:TYR:94     -1
Name: 82, dtype: object

>  <hbond:TYR:94>  (84) 
hbond:TYR:94    NaN
hbond:TYR:94     -1
Name: 82, dtype: object

>  <hbond:GLN:95>  (84) 
hbond:GLN:95    NaN
hbond:GLN:95     -1
Name: 82, dtype: object

>  <hydroph_interaction:GLN:95>  (84) 
hydroph_interaction:GLN:95    0.0
hydroph_interaction:GLN:95      0
Name: 82, dtype: object

>  <halogenbond:GLN:95>  (84) 
halogenbond:GLN:95    NaN
halogenbond:GLN:95     -1
Name: 82, dtype: object

>  <hbond:SER:96>  (84) 
hbond:SER:96    NaN
hbond:SER:96     -1
Name: 82, dtype: object

>  <halogenbond:HIS:97>  (84) 
halogenbond:HIS:97    NaN
halogenbond:HIS:97     -1
Name: 82, dtype: object

>  <hydroph_interaction:LEU:98>  (84) 
hydroph_interaction:LEU:98    NaN
hydroph_interaction:LEU:98     -1
Name: 82, dtype: object

>  <hbond:LEU:98>  (84) 
hbond:LEU:98    NaN
hbond:LEU:98     -1
Name: 82, dtype: object

>  <halogenbond:LEU:98>  (84) 
halogenbond:LEU:98    NaN
halogenbond:LEU:98     -1
Name: 82, dtype: object

>  <hbond:MET:99>  (84) 
hbond:MET:99    NaN
hbond:MET:99     -1
Name: 82, dtype: object

>  <hydroph_interaction:MET:99>  (84) 
hydroph_interaction:MET:99    NaN
hydroph_interaction:MET:99     -1
Name: 82, dtype: object

>  <halogenbond:MET:99>  (84) 
halogenbond:MET:99    NaN
halogenbond:MET:99     -1
Name: 82, dtype: object

>  <hydroph_interaction:LEU:100>  (84) 
hydroph_interaction:LEU:100    NaN
hydroph_interaction:LEU:100     -1
Name: 82, dtype: object

>  <hbond:LEU:100>  (84) 
hbond:LEU:100    NaN
hbond:LEU:100     -1
Name: 82, dtype: object

>  <hbond:ALA:101>  (84) 
hbond:ALA:101    NaN
hbond:ALA:101     -1
Name: 82, dtype: object

>  <hydroph_interaction:ALA:101>  (84) 
hydroph_interaction:ALA:101    NaN
hydroph_interaction:ALA:101     -1
Name: 82, dtype: object

>  <hydroph_interaction:VAL:102>  (84) 
hydroph_interaction:VAL:102    NaN
hydroph_interaction:VAL:102     -1
Name: 82, dtype: object

>  <hbond:VAL:102>  (84) 
hbond:VAL:102    NaN
hbond:VAL:102     -1
Name: 82, dtype: object

>  <hbond:GLY:103>  (84) 
hbond:GLY:103    NaN
hbond:GLY:103     -1
Name: 82, dtype: object

>  <halogenbond:GLY:103>  (84) 
halogenbond:GLY:103    NaN
halogenbond:GLY:103     -1
Name: 82, dtype: object

>  <hbond:HIS:104>  (84) 
hbond:HIS:104    NaN
hbond:HIS:104     -1
Name: 82, dtype: object

>  <saltbridge:HIS:104>  (84) 
saltbridge:HIS:104    NaN
saltbridge:HIS:104     -1
Name: 82, dtype: object

>  <pication:HIS:104>  (84) 
pication:HIS:104    NaN
pication:HIS:104     -1
Name: 82, dtype: object

>  <halogenbond:HIS:104>  (84) 
halogenbond:HIS:104    NaN
halogenbond:HIS:104     -1
Name: 82, dtype: object

>  <hydroph_interaction:HIS:104>  (84) 
hydroph_interaction:HIS:104    NaN
hydroph_interaction:HIS:104     -1
Name: 82, dtype: object

>  <pistack:HIS:104>  (84) 
pistack:HIS:104    NaN
pistack:HIS:104     -1
Name: 82, dtype: object

>  <halogenbond:SER:105>  (84) 
halogenbond:SER:105    0.0
halogenbond:SER:105      0
Name: 82, dtype: object

>  <hbond:SER:105>  (84) 
hbond:SER:105    0.0
hbond:SER:105      0
Name: 82, dtype: object

>  <hbond:GLU:106>  (84) 
hbond:GLU:106    0.0
hbond:GLU:106      0
Name: 82, dtype: object

>  <hydroph_interaction:GLU:106>  (84) 
hydroph_interaction:GLU:106    NaN
hydroph_interaction:GLU:106     -1
Name: 82, dtype: object

>  <saltbridge:GLU:106>  (84) 
saltbridge:GLU:106    NaN
saltbridge:GLU:106     -1
Name: 82, dtype: object

>  <halogenbond:GLU:106>  (84) 
halogenbond:GLU:106    NaN
halogenbond:GLU:106     -1
Name: 82, dtype: object

>  <hydroph_interaction:PRO:107>  (84) 
hydroph_interaction:PRO:107    2
hydroph_interaction:PRO:107    2
Name: 82, dtype: object

>  <hbond:PRO:107>  (84) 
hbond:PRO:107    0.0
hbond:PRO:107      0
Name: 82, dtype: object

>  <halogenbond:PRO:107>  (84) 
halogenbond:PRO:107    0.0
halogenbond:PRO:107      0
Name: 82, dtype: object

>  <hbond:GLY:108>  (84) 
hbond:GLY:108    NaN
hbond:GLY:108     -1
Name: 82, dtype: object

>  <halogenbond:GLY:108>  (84) 
halogenbond:GLY:108    NaN
halogenbond:GLY:108     -1
Name: 82, dtype: object

>  <hbond:ASP:109>  (84) 
hbond:ASP:109    0.0
hbond:ASP:109      0
Name: 82, dtype: object

>  <hydroph_interaction:ASP:109>  (84) 
hydroph_interaction:ASP:109    0.0
hydroph_interaction:ASP:109      0
Name: 82, dtype: object

>  <saltbridge:ASP:109>  (84) 
saltbridge:ASP:109    NaN
saltbridge:ASP:109     -1
Name: 82, dtype: object

>  <halogenbond:CYS:110>  (84) 
halogenbond:CYS:110    NaN
halogenbond:CYS:110     -1
Name: 82, dtype: object

>  <hbond:CYS:110>  (84) 
hbond:CYS:110    0.0
hbond:CYS:110      0
Name: 82, dtype: object

>  <hbond:GLY:111>  (84) 
hbond:GLY:111    NaN
hbond:GLY:111     -1
Name: 82, dtype: object

>  <hbond:GLY:112>  (84) 
hbond:GLY:112    NaN
hbond:GLY:112     -1
Name: 82, dtype: object

>  <hbond:ILE:113>  (84) 
hbond:ILE:113    NaN
hbond:ILE:113     -1
Name: 82, dtype: object

>  <hydroph_interaction:LEU:114>  (84) 
hydroph_interaction:LEU:114    NaN
hydroph_interaction:LEU:114     -1
Name: 82, dtype: object

>  <hbond:LEU:114>  (84) 
hbond:LEU:114    NaN
hbond:LEU:114     -1
Name: 82, dtype: object

>  <hydroph_interaction:ILE:123>  (84) 
hydroph_interaction:ILE:123    NaN
hydroph_interaction:ILE:123     -1
Name: 82, dtype: object

>  <hbond:ILE:123>  (84) 
hbond:ILE:123    NaN
hbond:ILE:123     -1
Name: 82, dtype: object

>  <hydroph_interaction:VAL:124>  (84) 
hydroph_interaction:VAL:124    1.0
hydroph_interaction:VAL:124      1
Name: 82, dtype: object

>  <hbond:VAL:124>  (84) 
hbond:VAL:124    NaN
hbond:VAL:124     -1
Name: 82, dtype: object

>  <halogenbond:VAL:124>  (84) 
halogenbond:VAL:124    NaN
halogenbond:VAL:124     -1
Name: 82, dtype: object

>  <hbond:SER:125>  (84) 
hbond:SER:125    0
hbond:SER:125    0
Name: 82, dtype: object

>  <halogenbond:SER:125>  (84) 
halogenbond:SER:125    0.0
halogenbond:SER:125      0
Name: 82, dtype: object

>  <hydroph_interaction:THR:126>  (84) 
hydroph_interaction:THR:126    0.0
hydroph_interaction:THR:126      0
Name: 82, dtype: object

>  <hbond:THR:126>  (84) 
hbond:THR:126    0.0
hbond:THR:126      0
Name: 82, dtype: object

>  <halogenbond:THR:126>  (84) 
halogenbond:THR:126    NaN
halogenbond:THR:126     -1
Name: 82, dtype: object

>  <hbond:GLY:127>  (84) 
hbond:GLY:127    0
hbond:GLY:127    0
Name: 82, dtype: object

>  <halogenbond:GLY:127>  (84) 
halogenbond:GLY:127    NaN
halogenbond:GLY:127     -1
Name: 82, dtype: object

>  <hydroph_interaction:GLY:127>  (84) 
hydroph_interaction:GLY:127    NaN
hydroph_interaction:GLY:127     -1
Name: 82, dtype: object

>  <hbond:GLY:128>  (84) 
hbond:GLY:128    NaN
hbond:GLY:128     -1
Name: 82, dtype: object

>  <halogenbond:GLY:128>  (84) 
halogenbond:GLY:128    NaN
halogenbond:GLY:128     -1
Name: 82, dtype: object

>  <hydroph_interaction:GLY:128>  (84) 
hydroph_interaction:GLY:128    NaN
hydroph_interaction:GLY:128     -1
Name: 82, dtype: object

>  <hbond:ASN:129>  (84) 
hbond:ASN:129    NaN
hbond:ASN:129     -1
Name: 82, dtype: object

>  <hydroph_interaction:ASN:129>  (84) 
hydroph_interaction:ASN:129    NaN
hydroph_interaction:ASN:129     -1
Name: 82, dtype: object

>  <halogenbond:ASN:129>  (84) 
halogenbond:ASN:129    NaN
halogenbond:ASN:129     -1
Name: 82, dtype: object

>  <hbond:GLY:130>  (84) 
hbond:GLY:130    NaN
hbond:GLY:130     -1
Name: 82, dtype: object

>  <hbond:LEU:131>  (84) 
hbond:LEU:131    NaN
hbond:LEU:131     -1
Name: 82, dtype: object

>  <hydroph_interaction:LEU:131>  (84) 
hydroph_interaction:LEU:131    NaN
hydroph_interaction:LEU:131     -1
Name: 82, dtype: object

>  <halogenbond:LEU:131>  (84) 
halogenbond:LEU:131    NaN
halogenbond:LEU:131     -1
Name: 82, dtype: object

>  <hydroph_interaction:VAL:132>  (84) 
hydroph_interaction:VAL:132    0.0
hydroph_interaction:VAL:132      0
Name: 82, dtype: object

>  <hbond:VAL:132>  (84) 
hbond:VAL:132    NaN
hbond:VAL:132     -1
Name: 82, dtype: object

>  <hbond:GLY:133>  (84) 
hbond:GLY:133    NaN
hbond:GLY:133     -1
Name: 82, dtype: object

>  <halogenbond:GLY:133>  (84) 
halogenbond:GLY:133    NaN
halogenbond:GLY:133     -1
Name: 82, dtype: object

>  <hydroph_interaction:PHE:134>  (84) 
hydroph_interaction:PHE:134    NaN
hydroph_interaction:PHE:134     -1
Name: 82, dtype: object

>  <hbond:PHE:134>  (84) 
hbond:PHE:134    NaN
hbond:PHE:134     -1
Name: 82, dtype: object

>  <pistack:PHE:134>  (84) 
pistack:PHE:134    NaN
pistack:PHE:134     -1
Name: 82, dtype: object

>  <pication:PHE:134>  (84) 
pication:PHE:134    NaN
pication:PHE:134     -1
Name: 82, dtype: object

>  <halogenbond:PHE:134>  (84) 
halogenbond:PHE:134    NaN
halogenbond:PHE:134     -1
Name: 82, dtype: object

>  <hydroph_interaction:ALA:135>  (84) 
hydroph_interaction:ALA:135    NaN
hydroph_interaction:ALA:135     -1
Name: 82, dtype: object

>  <hbond:ALA:135>  (84) 
hbond:ALA:135    NaN
hbond:ALA:135     -1
Name: 82, dtype: object

$$$$
Z2974983501
     RDKit          3D

 15 16  0  0  0  0  0  0  0  0999 V2000
   30.3238    8.6898    8.8657 C   0  0  0  0  0  0  0  0  0  0  0  0
   31.0094    9.6961    7.9704 C   0  0  0  0  0  0  0  0  0  0  0  0
   32.0360    9.1610    7.0118 C   0  0  0  0  0  0  0  0  0  0  0  0
   32.6886   10.2270    6.1548 C   0  0  0  0  0  0  0  0  0  0  0  0
   32.3731   11.5338    6.2488 N   0  0  0  0  0  0  0  0  0  0  0  0
   31.4119   11.9354    7.1631 C   0  0  0  0  0  0  0  0  0  0  0  0
   31.0982   13.2919    7.2555 N   0  0  0  0  0  0  0  0  0  0  0  0
   29.7887   13.8288    7.6688 C   0  0  1  0  0  0  0  0  0  0  0  0
   28.6584   13.0411    7.3645 C   0  0  0  0  0  0  0  0  0  0  0  0
   27.6494   13.9451    7.6879 C   0  0  0  0  0  0  0  0  0  0  0  0
   28.3515   14.7755    8.6789 N   0  0  0  0  0  0  0  0  0  0  0  0
   27.7537   15.7524    9.3600 C   0  0  0  0  0  0  0  0  0  0  0  0
   29.5800   14.2271    8.9643 C   0  0  2  0  0  0  0  0  0  0  0  0
   30.5252   15.2318    9.6315 C   0  0  0  0  0  0  0  0  0  0  0  0
   30.7380   11.0570    8.0057 C   0  0  0  0  0  0  0  0  0  0  0  0
  1  2  1  0
  2  3  2  0
  3  4  1  0
  4  5  2  0
  5  6  1  0
  6  7  1  0
  8  7  1  1
  8  9  1  0
  9 10  1  0
 10 11  1  0
 11 12  1  0
 11 13  1  0
 13 14  1  6
  6 15  2  0
 15  2  1  0
 13  8  1  0
A    1
 C1 
A    2
 C2 
A    3
 C3 
A    4
 C4 
A    5
 N1 
A    6
 C5 
A    7
 N2 
A    8
 C6 
A    9
 C7 
A   10
 C8 
A   11
 N3 
A   12
 C9 
A   13
 C10
A   14
 C11
A   15
 C12
M  END
>  <ref_pdb>  (85) 
Ax0310a

>  <ref_mols>  (85) 
Ax0416a,Ax0528a

>  <original SMILES>  (85) 
Cc1ccnc(NC2CCN(C)C2C)c1

>  <rationale>  (85) 
info halogenbond:G127+D39+A86+E85+E106+E88+T126+P107+Y64+C65+N129+F83+R93+L131+I82+G128+P91+N19+H21+V84+G133+Y90+Y89+H97+L81+F134+L98+R20+G103+S66+S67+S7+G108+R38+V124+M99+S36; hbond:S87+G127+T126+A86+E85+G103+G128+G130+L131+N129+H104+R68+V124+R93+P91+F83+S7+S66+G112+G133+V132+R20+Y89+S77+A135+Y63+A92+A101+M99+F134+L100+I82+Y64+S36+L98+V84+L81+Y94+S80+R38+S37+V102+G8+I123+G111+I113+L114+C65+L22+S96; hydroph_interaction:V124+Y90+L22+E106+E88+N129+N19+L40+I123+A135+I82+L100+L98+L131+F83+R93+V132+Y63+F134+H104+R20+A86+V74+P91+A101+F76+M99+L114+A92+Y94+R68+Y72+Y64+V18+V102+W28+G127+G128+L81; pication:H104+Y63+F134+Y90+R68+F83+R20; pistack:H21+Y89+H104+F134+Y63+F83+Y94; saltbridge:D39+R93+H104+E106+D109+E85+E88+R68+R20; 

>  <intxn_cluster>  (85) 
-1

>  <intxn_cluster_rank>  (85) 
-1

>  <N_interactions>  (85) 
6

>  <∆∆G>  (85) 
-9.549198

>  <$/mg>  (85) 
0.0

>  <comRMSD>  (85) 
0.728493

>  <N_rotatable_bonds>  (85) 
5

>  <deep_P1_sidechain>  (85) 
nan

>  <farthest_distance_to_substrate>  (85) 
2.233805

>  <hbond:SER:7>  (85) 
hbond:SER:7    NaN
hbond:SER:7     -1
Name: 83, dtype: object

>  <halogenbond:SER:7>  (85) 
halogenbond:SER:7    NaN
halogenbond:SER:7     -1
Name: 83, dtype: object

>  <hbond:GLY:8>  (85) 
hbond:GLY:8    NaN
hbond:GLY:8     -1
Name: 83, dtype: object

>  <hydroph_interaction:VAL:18>  (85) 
hydroph_interaction:VAL:18    NaN
hydroph_interaction:VAL:18     -1
Name: 83, dtype: object

>  <hbond:ASN:19>  (85) 
hbond:ASN:19    0.0
hbond:ASN:19      0
Name: 83, dtype: object

>  <hydroph_interaction:ASN:19>  (85) 
hydroph_interaction:ASN:19    NaN
hydroph_interaction:ASN:19     -1
Name: 83, dtype: object

>  <halogenbond:ASN:19>  (85) 
halogenbond:ASN:19    NaN
halogenbond:ASN:19     -1
Name: 83, dtype: object

>  <hbond:ARG:20>  (85) 
hbond:ARG:20    NaN
hbond:ARG:20     -1
Name: 83, dtype: object

>  <hydroph_interaction:ARG:20>  (85) 
hydroph_interaction:ARG:20    NaN
hydroph_interaction:ARG:20     -1
Name: 83, dtype: object

>  <saltbridge:ARG:20>  (85) 
saltbridge:ARG:20    NaN
saltbridge:ARG:20     -1
Name: 83, dtype: object

>  <halogenbond:ARG:20>  (85) 
halogenbond:ARG:20    NaN
halogenbond:ARG:20     -1
Name: 83, dtype: object

>  <pication:ARG:20>  (85) 
pication:ARG:20    NaN
pication:ARG:20     -1
Name: 83, dtype: object

>  <hbond:HIS:21>  (85) 
hbond:HIS:21    0.0
hbond:HIS:21      0
Name: 83, dtype: object

>  <hydroph_interaction:HIS:21>  (85) 
hydroph_interaction:HIS:21    0.0
hydroph_interaction:HIS:21      0
Name: 83, dtype: object

>  <pistack:HIS:21>  (85) 
pistack:HIS:21    NaN
pistack:HIS:21     -1
Name: 83, dtype: object

>  <pication:HIS:21>  (85) 
pication:HIS:21    0.0
pication:HIS:21      0
Name: 83, dtype: object

>  <saltbridge:HIS:21>  (85) 
saltbridge:HIS:21    0.0
saltbridge:HIS:21      0
Name: 83, dtype: object

>  <halogenbond:HIS:21>  (85) 
halogenbond:HIS:21    NaN
halogenbond:HIS:21     -1
Name: 83, dtype: object

>  <hydroph_interaction:LEU:22>  (85) 
hydroph_interaction:LEU:22    NaN
hydroph_interaction:LEU:22     -1
Name: 83, dtype: object

>  <hbond:LEU:22>  (85) 
hbond:LEU:22    NaN
hbond:LEU:22     -1
Name: 83, dtype: object

>  <hydroph_interaction:TRP:28>  (85) 
hydroph_interaction:TRP:28    NaN
hydroph_interaction:TRP:28     -1
Name: 83, dtype: object

>  <hbond:SER:36>  (85) 
hbond:SER:36    NaN
hbond:SER:36     -1
Name: 83, dtype: object

>  <halogenbond:SER:36>  (85) 
halogenbond:SER:36    NaN
halogenbond:SER:36     -1
Name: 83, dtype: object

>  <hbond:SER:37>  (85) 
hbond:SER:37    NaN
hbond:SER:37     -1
Name: 83, dtype: object

>  <hbond:ARG:38>  (85) 
hbond:ARG:38    NaN
hbond:ARG:38     -1
Name: 83, dtype: object

>  <halogenbond:ARG:38>  (85) 
halogenbond:ARG:38    NaN
halogenbond:ARG:38     -1
Name: 83, dtype: object

>  <saltbridge:ASP:39>  (85) 
saltbridge:ASP:39    1.0
saltbridge:ASP:39      1
Name: 83, dtype: object

>  <halogenbond:ASP:39>  (85) 
halogenbond:ASP:39    NaN
halogenbond:ASP:39     -1
Name: 83, dtype: object

>  <hbond:ASP:39>  (85) 
hbond:ASP:39    0.0
hbond:ASP:39      0
Name: 83, dtype: object

>  <hydroph_interaction:ASP:39>  (85) 
hydroph_interaction:ASP:39    0.0
hydroph_interaction:ASP:39      0
Name: 83, dtype: object

>  <hydroph_interaction:LEU:40>  (85) 
hydroph_interaction:LEU:40    NaN
hydroph_interaction:LEU:40     -1
Name: 83, dtype: object

>  <hydroph_interaction:TYR:63>  (85) 
hydroph_interaction:TYR:63    NaN
hydroph_interaction:TYR:63     -1
Name: 83, dtype: object

>  <hbond:TYR:63>  (85) 
hbond:TYR:63    NaN
hbond:TYR:63     -1
Name: 83, dtype: object

>  <pistack:TYR:63>  (85) 
pistack:TYR:63    NaN
pistack:TYR:63     -1
Name: 83, dtype: object

>  <pication:TYR:63>  (85) 
pication:TYR:63    NaN
pication:TYR:63     -1
Name: 83, dtype: object

>  <halogenbond:TYR:64>  (85) 
halogenbond:TYR:64    NaN
halogenbond:TYR:64     -1
Name: 83, dtype: object

>  <hbond:TYR:64>  (85) 
hbond:TYR:64    NaN
hbond:TYR:64     -1
Name: 83, dtype: object

>  <hydroph_interaction:TYR:64>  (85) 
hydroph_interaction:TYR:64    NaN
hydroph_interaction:TYR:64     -1
Name: 83, dtype: object

>  <halogenbond:CYS:65>  (85) 
halogenbond:CYS:65    NaN
halogenbond:CYS:65     -1
Name: 83, dtype: object

>  <hbond:CYS:65>  (85) 
hbond:CYS:65    NaN
hbond:CYS:65     -1
Name: 83, dtype: object

>  <hbond:SER:66>  (85) 
hbond:SER:66    NaN
hbond:SER:66     -1
Name: 83, dtype: object

>  <halogenbond:SER:66>  (85) 
halogenbond:SER:66    NaN
halogenbond:SER:66     -1
Name: 83, dtype: object

>  <hbond:SER:67>  (85) 
hbond:SER:67    0.0
hbond:SER:67      0
Name: 83, dtype: object

>  <halogenbond:SER:67>  (85) 
halogenbond:SER:67    NaN
halogenbond:SER:67     -1
Name: 83, dtype: object

>  <hbond:ARG:68>  (85) 
hbond:ARG:68    NaN
hbond:ARG:68     -1
Name: 83, dtype: object

>  <saltbridge:ARG:68>  (85) 
saltbridge:ARG:68    NaN
saltbridge:ARG:68     -1
Name: 83, dtype: object

>  <hydroph_interaction:ARG:68>  (85) 
hydroph_interaction:ARG:68    NaN
hydroph_interaction:ARG:68     -1
Name: 83, dtype: object

>  <pication:ARG:68>  (85) 
pication:ARG:68    NaN
pication:ARG:68     -1
Name: 83, dtype: object

>  <hydroph_interaction:TYR:72>  (85) 
hydroph_interaction:TYR:72    NaN
hydroph_interaction:TYR:72     -1
Name: 83, dtype: object

>  <hydroph_interaction:VAL:74>  (85) 
hydroph_interaction:VAL:74    NaN
hydroph_interaction:VAL:74     -1
Name: 83, dtype: object

>  <hydroph_interaction:PHE:76>  (85) 
hydroph_interaction:PHE:76    NaN
hydroph_interaction:PHE:76     -1
Name: 83, dtype: object

>  <hbond:SER:77>  (85) 
hbond:SER:77    NaN
hbond:SER:77     -1
Name: 83, dtype: object

>  <hbond:SER:80>  (85) 
hbond:SER:80    NaN
hbond:SER:80     -1
Name: 83, dtype: object

>  <hbond:LEU:81>  (85) 
hbond:LEU:81    NaN
hbond:LEU:81     -1
Name: 83, dtype: object

>  <halogenbond:LEU:81>  (85) 
halogenbond:LEU:81    NaN
halogenbond:LEU:81     -1
Name: 83, dtype: object

>  <hydroph_interaction:LEU:81>  (85) 
hydroph_interaction:LEU:81    NaN
hydroph_interaction:LEU:81     -1
Name: 83, dtype: object

>  <hydroph_interaction:ILE:82>  (85) 
hydroph_interaction:ILE:82    NaN
hydroph_interaction:ILE:82     -1
Name: 83, dtype: object

>  <halogenbond:ILE:82>  (85) 
halogenbond:ILE:82    NaN
halogenbond:ILE:82     -1
Name: 83, dtype: object

>  <hbond:ILE:82>  (85) 
hbond:ILE:82    NaN
hbond:ILE:82     -1
Name: 83, dtype: object

>  <hbond:PHE:83>  (85) 
hbond:PHE:83    NaN
hbond:PHE:83     -1
Name: 83, dtype: object

>  <hydroph_interaction:PHE:83>  (85) 
hydroph_interaction:PHE:83    NaN
hydroph_interaction:PHE:83     -1
Name: 83, dtype: object

>  <halogenbond:PHE:83>  (85) 
halogenbond:PHE:83    NaN
halogenbond:PHE:83     -1
Name: 83, dtype: object

>  <pistack:PHE:83>  (85) 
pistack:PHE:83    NaN
pistack:PHE:83     -1
Name: 83, dtype: object

>  <pication:PHE:83>  (85) 
pication:PHE:83    NaN
pication:PHE:83     -1
Name: 83, dtype: object

>  <hydroph_interaction:VAL:84>  (85) 
hydroph_interaction:VAL:84    0.0
hydroph_interaction:VAL:84      0
Name: 83, dtype: object

>  <halogenbond:VAL:84>  (85) 
halogenbond:VAL:84    NaN
halogenbond:VAL:84     -1
Name: 83, dtype: object

>  <hbond:VAL:84>  (85) 
hbond:VAL:84    NaN
hbond:VAL:84     -1
Name: 83, dtype: object

>  <hydroph_interaction:GLU:85>  (85) 
hydroph_interaction:GLU:85    0.0
hydroph_interaction:GLU:85      0
Name: 83, dtype: object

>  <hbond:GLU:85>  (85) 
hbond:GLU:85    NaN
hbond:GLU:85     -1
Name: 83, dtype: object

>  <halogenbond:GLU:85>  (85) 
halogenbond:GLU:85    NaN
halogenbond:GLU:85     -1
Name: 83, dtype: object

>  <saltbridge:GLU:85>  (85) 
saltbridge:GLU:85    NaN
saltbridge:GLU:85     -1
Name: 83, dtype: object

>  <halogenbond:ALA:86>  (85) 
halogenbond:ALA:86    NaN
halogenbond:ALA:86     -1
Name: 83, dtype: object

>  <hbond:ALA:86>  (85) 
hbond:ALA:86    NaN
hbond:ALA:86     -1
Name: 83, dtype: object

>  <hydroph_interaction:ALA:86>  (85) 
hydroph_interaction:ALA:86    NaN
hydroph_interaction:ALA:86     -1
Name: 83, dtype: object

>  <hbond:SER:87>  (85) 
hbond:SER:87    2
hbond:SER:87    2
Name: 83, dtype: object

>  <halogenbond:SER:87>  (85) 
halogenbond:SER:87    0.0
halogenbond:SER:87      0
Name: 83, dtype: object

>  <hbond:GLU:88>  (85) 
hbond:GLU:88    0.0
hbond:GLU:88      0
Name: 83, dtype: object

>  <hydroph_interaction:GLU:88>  (85) 
hydroph_interaction:GLU:88    NaN
hydroph_interaction:GLU:88     -1
Name: 83, dtype: object

>  <halogenbond:GLU:88>  (85) 
halogenbond:GLU:88    NaN
halogenbond:GLU:88     -1
Name: 83, dtype: object

>  <saltbridge:GLU:88>  (85) 
saltbridge:GLU:88    NaN
saltbridge:GLU:88     -1
Name: 83, dtype: object

>  <hydroph_interaction:TYR:89>  (85) 
hydroph_interaction:TYR:89    0.0
hydroph_interaction:TYR:89      0
Name: 83, dtype: object

>  <pistack:TYR:89>  (85) 
pistack:TYR:89    NaN
pistack:TYR:89     -1
Name: 83, dtype: object

>  <hbond:TYR:89>  (85) 
hbond:TYR:89    NaN
hbond:TYR:89     -1
Name: 83, dtype: object

>  <halogenbond:TYR:89>  (85) 
halogenbond:TYR:89    NaN
halogenbond:TYR:89     -1
Name: 83, dtype: object

>  <hydroph_interaction:TYR:90>  (85) 
hydroph_interaction:TYR:90    1.0
hydroph_interaction:TYR:90      1
Name: 83, dtype: object

>  <hbond:TYR:90>  (85) 
hbond:TYR:90    0.0
hbond:TYR:90      0
Name: 83, dtype: object

>  <pistack:TYR:90>  (85) 
pistack:TYR:90    0.0
pistack:TYR:90      0
Name: 83, dtype: object

>  <halogenbond:TYR:90>  (85) 
halogenbond:TYR:90    NaN
halogenbond:TYR:90     -1
Name: 83, dtype: object

>  <pication:TYR:90>  (85) 
pication:TYR:90    NaN
pication:TYR:90     -1
Name: 83, dtype: object

>  <hbond:PRO:91>  (85) 
hbond:PRO:91    NaN
hbond:PRO:91     -1
Name: 83, dtype: object

>  <hydroph_interaction:PRO:91>  (85) 
hydroph_interaction:PRO:91    NaN
hydroph_interaction:PRO:91     -1
Name: 83, dtype: object

>  <halogenbond:PRO:91>  (85) 
halogenbond:PRO:91    NaN
halogenbond:PRO:91     -1
Name: 83, dtype: object

>  <hbond:ALA:92>  (85) 
hbond:ALA:92    NaN
hbond:ALA:92     -1
Name: 83, dtype: object

>  <hydroph_interaction:ALA:92>  (85) 
hydroph_interaction:ALA:92    NaN
hydroph_interaction:ALA:92     -1
Name: 83, dtype: object

>  <saltbridge:ARG:93>  (85) 
saltbridge:ARG:93    NaN
saltbridge:ARG:93     -1
Name: 83, dtype: object

>  <hbond:ARG:93>  (85) 
hbond:ARG:93    NaN
hbond:ARG:93     -1
Name: 83, dtype: object

>  <hydroph_interaction:ARG:93>  (85) 
hydroph_interaction:ARG:93    NaN
hydroph_interaction:ARG:93     -1
Name: 83, dtype: object

>  <halogenbond:ARG:93>  (85) 
halogenbond:ARG:93    NaN
halogenbond:ARG:93     -1
Name: 83, dtype: object

>  <pication:ARG:93>  (85) 
pication:ARG:93    0.0
pication:ARG:93      0
Name: 83, dtype: object

>  <hydroph_interaction:TYR:94>  (85) 
hydroph_interaction:TYR:94    NaN
hydroph_interaction:TYR:94     -1
Name: 83, dtype: object

>  <pistack:TYR:94>  (85) 
pistack:TYR:94    NaN
pistack:TYR:94     -1
Name: 83, dtype: object

>  <hbond:TYR:94>  (85) 
hbond:TYR:94    NaN
hbond:TYR:94     -1
Name: 83, dtype: object

>  <hbond:GLN:95>  (85) 
hbond:GLN:95    0.0
hbond:GLN:95      0
Name: 83, dtype: object

>  <hydroph_interaction:GLN:95>  (85) 
hydroph_interaction:GLN:95    0.0
hydroph_interaction:GLN:95      0
Name: 83, dtype: object

>  <halogenbond:GLN:95>  (85) 
halogenbond:GLN:95    0.0
halogenbond:GLN:95      0
Name: 83, dtype: object

>  <hbond:SER:96>  (85) 
hbond:SER:96    NaN
hbond:SER:96     -1
Name: 83, dtype: object

>  <halogenbond:HIS:97>  (85) 
halogenbond:HIS:97    NaN
halogenbond:HIS:97     -1
Name: 83, dtype: object

>  <hydroph_interaction:LEU:98>  (85) 
hydroph_interaction:LEU:98    NaN
hydroph_interaction:LEU:98     -1
Name: 83, dtype: object

>  <hbond:LEU:98>  (85) 
hbond:LEU:98    NaN
hbond:LEU:98     -1
Name: 83, dtype: object

>  <halogenbond:LEU:98>  (85) 
halogenbond:LEU:98    NaN
halogenbond:LEU:98     -1
Name: 83, dtype: object

>  <hbond:MET:99>  (85) 
hbond:MET:99    NaN
hbond:MET:99     -1
Name: 83, dtype: object

>  <hydroph_interaction:MET:99>  (85) 
hydroph_interaction:MET:99    NaN
hydroph_interaction:MET:99     -1
Name: 83, dtype: object

>  <halogenbond:MET:99>  (85) 
halogenbond:MET:99    NaN
halogenbond:MET:99     -1
Name: 83, dtype: object

>  <hydroph_interaction:LEU:100>  (85) 
hydroph_interaction:LEU:100    NaN
hydroph_interaction:LEU:100     -1
Name: 83, dtype: object

>  <hbond:LEU:100>  (85) 
hbond:LEU:100    NaN
hbond:LEU:100     -1
Name: 83, dtype: object

>  <hbond:ALA:101>  (85) 
hbond:ALA:101    NaN
hbond:ALA:101     -1
Name: 83, dtype: object

>  <hydroph_interaction:ALA:101>  (85) 
hydroph_interaction:ALA:101    NaN
hydroph_interaction:ALA:101     -1
Name: 83, dtype: object

>  <hydroph_interaction:VAL:102>  (85) 
hydroph_interaction:VAL:102    NaN
hydroph_interaction:VAL:102     -1
Name: 83, dtype: object

>  <hbond:VAL:102>  (85) 
hbond:VAL:102    NaN
hbond:VAL:102     -1
Name: 83, dtype: object

>  <hbond:GLY:103>  (85) 
hbond:GLY:103    NaN
hbond:GLY:103     -1
Name: 83, dtype: object

>  <halogenbond:GLY:103>  (85) 
halogenbond:GLY:103    NaN
halogenbond:GLY:103     -1
Name: 83, dtype: object

>  <hbond:HIS:104>  (85) 
hbond:HIS:104    NaN
hbond:HIS:104     -1
Name: 83, dtype: object

>  <saltbridge:HIS:104>  (85) 
saltbridge:HIS:104    NaN
saltbridge:HIS:104     -1
Name: 83, dtype: object

>  <pication:HIS:104>  (85) 
pication:HIS:104    NaN
pication:HIS:104     -1
Name: 83, dtype: object

>  <halogenbond:HIS:104>  (85) 
halogenbond:HIS:104    0.0
halogenbond:HIS:104      0
Name: 83, dtype: object

>  <hydroph_interaction:HIS:104>  (85) 
hydroph_interaction:HIS:104    NaN
hydroph_interaction:HIS:104     -1
Name: 83, dtype: object

>  <pistack:HIS:104>  (85) 
pistack:HIS:104    NaN
pistack:HIS:104     -1
Name: 83, dtype: object

>  <halogenbond:SER:105>  (85) 
halogenbond:SER:105    0.0
halogenbond:SER:105      0
Name: 83, dtype: object

>  <hbond:SER:105>  (85) 
hbond:SER:105    0.0
hbond:SER:105      0
Name: 83, dtype: object

>  <hbond:GLU:106>  (85) 
hbond:GLU:106    0.0
hbond:GLU:106      0
Name: 83, dtype: object

>  <hydroph_interaction:GLU:106>  (85) 
hydroph_interaction:GLU:106    NaN
hydroph_interaction:GLU:106     -1
Name: 83, dtype: object

>  <saltbridge:GLU:106>  (85) 
saltbridge:GLU:106    NaN
saltbridge:GLU:106     -1
Name: 83, dtype: object

>  <halogenbond:GLU:106>  (85) 
halogenbond:GLU:106    NaN
halogenbond:GLU:106     -1
Name: 83, dtype: object

>  <hydroph_interaction:PRO:107>  (85) 
hydroph_interaction:PRO:107    0
hydroph_interaction:PRO:107    0
Name: 83, dtype: object

>  <hbond:PRO:107>  (85) 
hbond:PRO:107    0.0
hbond:PRO:107      0
Name: 83, dtype: object

>  <halogenbond:PRO:107>  (85) 
halogenbond:PRO:107    NaN
halogenbond:PRO:107     -1
Name: 83, dtype: object

>  <hbond:GLY:108>  (85) 
hbond:GLY:108    0.0
hbond:GLY:108      0
Name: 83, dtype: object

>  <halogenbond:GLY:108>  (85) 
halogenbond:GLY:108    NaN
halogenbond:GLY:108     -1
Name: 83, dtype: object

>  <hbond:ASP:109>  (85) 
hbond:ASP:109    0.0
hbond:ASP:109      0
Name: 83, dtype: object

>  <hydroph_interaction:ASP:109>  (85) 
hydroph_interaction:ASP:109    0.0
hydroph_interaction:ASP:109      0
Name: 83, dtype: object

>  <saltbridge:ASP:109>  (85) 
saltbridge:ASP:109    NaN
saltbridge:ASP:109     -1
Name: 83, dtype: object

>  <halogenbond:CYS:110>  (85) 
halogenbond:CYS:110    0.0
halogenbond:CYS:110      0
Name: 83, dtype: object

>  <hbond:CYS:110>  (85) 
hbond:CYS:110    0.0
hbond:CYS:110      0
Name: 83, dtype: object

>  <hbond:GLY:111>  (85) 
hbond:GLY:111    NaN
hbond:GLY:111     -1
Name: 83, dtype: object

>  <hbond:GLY:112>  (85) 
hbond:GLY:112    NaN
hbond:GLY:112     -1
Name: 83, dtype: object

>  <hbond:ILE:113>  (85) 
hbond:ILE:113    NaN
hbond:ILE:113     -1
Name: 83, dtype: object

>  <hydroph_interaction:LEU:114>  (85) 
hydroph_interaction:LEU:114    NaN
hydroph_interaction:LEU:114     -1
Name: 83, dtype: object

>  <hbond:LEU:114>  (85) 
hbond:LEU:114    NaN
hbond:LEU:114     -1
Name: 83, dtype: object

>  <hydroph_interaction:ILE:123>  (85) 
hydroph_interaction:ILE:123    NaN
hydroph_interaction:ILE:123     -1
Name: 83, dtype: object

>  <hbond:ILE:123>  (85) 
hbond:ILE:123    NaN
hbond:ILE:123     -1
Name: 83, dtype: object

>  <hydroph_interaction:VAL:124>  (85) 
hydroph_interaction:VAL:124    1.0
hydroph_interaction:VAL:124      1
Name: 83, dtype: object

>  <hbond:VAL:124>  (85) 
hbond:VAL:124    NaN
hbond:VAL:124     -1
Name: 83, dtype: object

>  <halogenbond:VAL:124>  (85) 
halogenbond:VAL:124    NaN
halogenbond:VAL:124     -1
Name: 83, dtype: object

>  <hbond:SER:125>  (85) 
hbond:SER:125    0
hbond:SER:125    0
Name: 83, dtype: object

>  <halogenbond:SER:125>  (85) 
halogenbond:SER:125    0.0
halogenbond:SER:125      0
Name: 83, dtype: object

>  <hydroph_interaction:THR:126>  (85) 
hydroph_interaction:THR:126    0.0
hydroph_interaction:THR:126      0
Name: 83, dtype: object

>  <hbond:THR:126>  (85) 
hbond:THR:126    NaN
hbond:THR:126     -1
Name: 83, dtype: object

>  <halogenbond:THR:126>  (85) 
halogenbond:THR:126    NaN
halogenbond:THR:126     -1
Name: 83, dtype: object

>  <hbond:GLY:127>  (85) 
hbond:GLY:127    1
hbond:GLY:127    1
Name: 83, dtype: object

>  <halogenbond:GLY:127>  (85) 
halogenbond:GLY:127    NaN
halogenbond:GLY:127     -1
Name: 83, dtype: object

>  <hydroph_interaction:GLY:127>  (85) 
hydroph_interaction:GLY:127    NaN
hydroph_interaction:GLY:127     -1
Name: 83, dtype: object

>  <hbond:GLY:128>  (85) 
hbond:GLY:128    NaN
hbond:GLY:128     -1
Name: 83, dtype: object

>  <halogenbond:GLY:128>  (85) 
halogenbond:GLY:128    NaN
halogenbond:GLY:128     -1
Name: 83, dtype: object

>  <hydroph_interaction:GLY:128>  (85) 
hydroph_interaction:GLY:128    NaN
hydroph_interaction:GLY:128     -1
Name: 83, dtype: object

>  <hbond:ASN:129>  (85) 
hbond:ASN:129    NaN
hbond:ASN:129     -1
Name: 83, dtype: object

>  <hydroph_interaction:ASN:129>  (85) 
hydroph_interaction:ASN:129    NaN
hydroph_interaction:ASN:129     -1
Name: 83, dtype: object

>  <halogenbond:ASN:129>  (85) 
halogenbond:ASN:129    NaN
halogenbond:ASN:129     -1
Name: 83, dtype: object

>  <hbond:GLY:130>  (85) 
hbond:GLY:130    NaN
hbond:GLY:130     -1
Name: 83, dtype: object

>  <hbond:LEU:131>  (85) 
hbond:LEU:131    NaN
hbond:LEU:131     -1
Name: 83, dtype: object

>  <hydroph_interaction:LEU:131>  (85) 
hydroph_interaction:LEU:131    NaN
hydroph_interaction:LEU:131     -1
Name: 83, dtype: object

>  <halogenbond:LEU:131>  (85) 
halogenbond:LEU:131    NaN
halogenbond:LEU:131     -1
Name: 83, dtype: object

>  <hydroph_interaction:VAL:132>  (85) 
hydroph_interaction:VAL:132    NaN
hydroph_interaction:VAL:132     -1
Name: 83, dtype: object

>  <hbond:VAL:132>  (85) 
hbond:VAL:132    NaN
hbond:VAL:132     -1
Name: 83, dtype: object

>  <hbond:GLY:133>  (85) 
hbond:GLY:133    NaN
hbond:GLY:133     -1
Name: 83, dtype: object

>  <halogenbond:GLY:133>  (85) 
halogenbond:GLY:133    NaN
halogenbond:GLY:133     -1
Name: 83, dtype: object

>  <hydroph_interaction:PHE:134>  (85) 
hydroph_interaction:PHE:134    NaN
hydroph_interaction:PHE:134     -1
Name: 83, dtype: object

>  <hbond:PHE:134>  (85) 
hbond:PHE:134    NaN
hbond:PHE:134     -1
Name: 83, dtype: object

>  <pistack:PHE:134>  (85) 
pistack:PHE:134    NaN
pistack:PHE:134     -1
Name: 83, dtype: object

>  <pication:PHE:134>  (85) 
pication:PHE:134    NaN
pication:PHE:134     -1
Name: 83, dtype: object

>  <halogenbond:PHE:134>  (85) 
halogenbond:PHE:134    NaN
halogenbond:PHE:134     -1
Name: 83, dtype: object

>  <hydroph_interaction:ALA:135>  (85) 
hydroph_interaction:ALA:135    NaN
hydroph_interaction:ALA:135     -1
Name: 83, dtype: object

>  <hbond:ALA:135>  (85) 
hbond:ALA:135    NaN
hbond:ALA:135     -1
Name: 83, dtype: object

$$$$
Z3139708958
     RDKit          3D

 16 17  0  0  0  0  0  0  0  0999 V2000
   28.5590   15.5723    8.3459 C   0  0  0  0  0  0  0  0  0  0  0  0
   29.4578   14.4968    8.8660 C   0  0  2  0  0  0  0  0  0  0  0  0
   30.7052   15.0522    9.4570 N   0  0  0  0  0  0  0  0  0  0  0  0
   29.7353   13.4116    7.8449 C   0  0  0  0  0  0  0  0  0  0  0  0
   28.8313   13.0199    7.1130 O   0  0  0  0  0  0  0  0  0  0  0  0
   31.0436   12.9786    7.8504 N   0  0  0  0  0  0  0  0  0  0  0  0
   31.6385   11.8444    7.2553 C   0  0  0  0  0  0  0  0  0  0  0  0
   32.5914   11.9271    6.2305 C   0  0  0  0  0  0  0  0  0  0  0  0
   33.2061   10.6744    5.6535 C   0  0  0  0  0  0  0  0  0  0  0  0
   34.4971   10.6480    4.2817 Br  0  0  0  0  0  0  0  0  0  0  0  0
   32.7292    9.4149    6.2491 C   0  0  0  0  0  0  0  0  0  0  0  0
   31.8104    9.4137    7.2281 C   0  0  0  0  0  0  0  0  0  0  0  0
   31.2756   10.5720    7.7183 C   0  0  0  0  0  0  0  0  0  0  0  0
   30.3826   10.2866    8.6889 O   0  0  0  0  0  0  0  0  0  0  0  0
   30.3541    8.8520    8.6696 C   0  0  0  0  0  0  0  0  0  0  0  0
   31.3457    8.2976    7.8138 O   0  0  0  0  0  0  0  0  0  0  0  0
  2  1  1  6
  2  3  1  0
  2  4  1  0
  4  5  2  0
  4  6  1  0
  6  7  1  0
  7  8  2  0
  8  9  1  0
  9 10  1  0
  9 11  2  0
 11 12  1  0
 12 13  2  0
 13 14  1  0
 14 15  1  0
 15 16  1  0
 13  7  1  0
 16 12  1  0
A    1
 C1 
A    2
 C2 
A    3
 N1 
A    4
 C3 
A    5
 O1 
A    6
 N2 
A    7
 C4 
A    8
 C5 
A    9
 C6 
A   10
BR1 
A   11
 C7 
A   12
 C8 
A   13
 C9 
A   14
 O2 
A   15
 C10
A   16
 O3 
M  END
>  <ref_pdb>  (86) 
Ax0310a

>  <ref_mols>  (86) 
Ax0554a,Ax0528a

>  <original SMILES>  (86) 
C[C@H](N)C(=O)Nc1cc(Br)cc2c1OCO2

>  <rationale>  (86) 
info halogenbond:C110+D39+A86+S125+E85+Q95+E106+E88+T126+H104+Y64+C65+S87+N129+F83+R93+L131+I82+G128+P91+N19+H21+V84+G133+Y90+Y89+H97+L81+F134+L98+R20+G103+S66+S67+S7+G108+R38+V124+M99+S36; hbond:S87+Q95+A86+E85+G108+G103+G128+G130+L131+N129+N19+H104+R68+V124+R93+P91+F83+S67+S7+S66+G112+G133+V132+R20+Y89+S77+A135+Y63+A92+A101+M99+F134+L100+I82+Y64+S36+L98+V84+L81+Y94+S80+R38+S37+V102+G8+I123+G111+I113+L114+C65+L22+S96; hydroph_interaction:Y90+Y89+E85+E106+N129+L40+I123+A135+Q95+I82+L100+L98+L131+F83+R93+V132+Y63+F134+H104+R20+A86+V74+P91+A101+F76+M99+L114+A92+Y94+R68+Y72+Y64+V18+V102+W28+G127+G128+L81; pication:H104+R93+Y63+F134+Y90+R68+F83+R20; pistack:Y89+Y90+H104+F134+Y63+F83+Y94; saltbridge:R93+H104+E106+D109+E85+E88+R68+R20; 

>  <intxn_cluster>  (86) 
-1

>  <intxn_cluster_rank>  (86) 
-1

>  <N_interactions>  (86) 
5

>  <∆∆G>  (86) 
-8.912413

>  <$/mg>  (86) 
163.0

>  <comRMSD>  (86) 
0.996692

>  <N_rotatable_bonds>  (86) 
4

>  <deep_P1_sidechain>  (86) 
nan

>  <farthest_distance_to_substrate>  (86) 
2.79294

>  <hbond:SER:7>  (86) 
hbond:SER:7    NaN
hbond:SER:7     -1
Name: 84, dtype: object

>  <halogenbond:SER:7>  (86) 
halogenbond:SER:7    NaN
halogenbond:SER:7     -1
Name: 84, dtype: object

>  <hbond:GLY:8>  (86) 
hbond:GLY:8    NaN
hbond:GLY:8     -1
Name: 84, dtype: object

>  <hydroph_interaction:VAL:18>  (86) 
hydroph_interaction:VAL:18    NaN
hydroph_interaction:VAL:18     -1
Name: 84, dtype: object

>  <hbond:ASN:19>  (86) 
hbond:ASN:19    NaN
hbond:ASN:19     -1
Name: 84, dtype: object

>  <hydroph_interaction:ASN:19>  (86) 
hydroph_interaction:ASN:19    0.0
hydroph_interaction:ASN:19      0
Name: 84, dtype: object

>  <halogenbond:ASN:19>  (86) 
halogenbond:ASN:19    NaN
halogenbond:ASN:19     -1
Name: 84, dtype: object

>  <hbond:ARG:20>  (86) 
hbond:ARG:20    NaN
hbond:ARG:20     -1
Name: 84, dtype: object

>  <hydroph_interaction:ARG:20>  (86) 
hydroph_interaction:ARG:20    NaN
hydroph_interaction:ARG:20     -1
Name: 84, dtype: object

>  <saltbridge:ARG:20>  (86) 
saltbridge:ARG:20    NaN
saltbridge:ARG:20     -1
Name: 84, dtype: object

>  <halogenbond:ARG:20>  (86) 
halogenbond:ARG:20    NaN
halogenbond:ARG:20     -1
Name: 84, dtype: object

>  <pication:ARG:20>  (86) 
pication:ARG:20    NaN
pication:ARG:20     -1
Name: 84, dtype: object

>  <hbond:HIS:21>  (86) 
hbond:HIS:21    0.0
hbond:HIS:21      0
Name: 84, dtype: object

>  <hydroph_interaction:HIS:21>  (86) 
hydroph_interaction:HIS:21    0.0
hydroph_interaction:HIS:21      0
Name: 84, dtype: object

>  <pistack:HIS:21>  (86) 
pistack:HIS:21    0.0
pistack:HIS:21      0
Name: 84, dtype: object

>  <pication:HIS:21>  (86) 
pication:HIS:21    0.0
pication:HIS:21      0
Name: 84, dtype: object

>  <saltbridge:HIS:21>  (86) 
saltbridge:HIS:21    0.0
saltbridge:HIS:21      0
Name: 84, dtype: object

>  <halogenbond:HIS:21>  (86) 
halogenbond:HIS:21    NaN
halogenbond:HIS:21     -1
Name: 84, dtype: object

>  <hydroph_interaction:LEU:22>  (86) 
hydroph_interaction:LEU:22    0.0
hydroph_interaction:LEU:22      0
Name: 84, dtype: object

>  <hbond:LEU:22>  (86) 
hbond:LEU:22    NaN
hbond:LEU:22     -1
Name: 84, dtype: object

>  <hydroph_interaction:TRP:28>  (86) 
hydroph_interaction:TRP:28    NaN
hydroph_interaction:TRP:28     -1
Name: 84, dtype: object

>  <hbond:SER:36>  (86) 
hbond:SER:36    NaN
hbond:SER:36     -1
Name: 84, dtype: object

>  <halogenbond:SER:36>  (86) 
halogenbond:SER:36    NaN
halogenbond:SER:36     -1
Name: 84, dtype: object

>  <hbond:SER:37>  (86) 
hbond:SER:37    NaN
hbond:SER:37     -1
Name: 84, dtype: object

>  <hbond:ARG:38>  (86) 
hbond:ARG:38    NaN
hbond:ARG:38     -1
Name: 84, dtype: object

>  <halogenbond:ARG:38>  (86) 
halogenbond:ARG:38    NaN
halogenbond:ARG:38     -1
Name: 84, dtype: object

>  <saltbridge:ASP:39>  (86) 
saltbridge:ASP:39    0.0
saltbridge:ASP:39      0
Name: 84, dtype: object

>  <halogenbond:ASP:39>  (86) 
halogenbond:ASP:39    NaN
halogenbond:ASP:39     -1
Name: 84, dtype: object

>  <hbond:ASP:39>  (86) 
hbond:ASP:39    0.0
hbond:ASP:39      0
Name: 84, dtype: object

>  <hydroph_interaction:ASP:39>  (86) 
hydroph_interaction:ASP:39    0.0
hydroph_interaction:ASP:39      0
Name: 84, dtype: object

>  <hydroph_interaction:LEU:40>  (86) 
hydroph_interaction:LEU:40    NaN
hydroph_interaction:LEU:40     -1
Name: 84, dtype: object

>  <hydroph_interaction:TYR:63>  (86) 
hydroph_interaction:TYR:63    NaN
hydroph_interaction:TYR:63     -1
Name: 84, dtype: object

>  <hbond:TYR:63>  (86) 
hbond:TYR:63    NaN
hbond:TYR:63     -1
Name: 84, dtype: object

>  <pistack:TYR:63>  (86) 
pistack:TYR:63    NaN
pistack:TYR:63     -1
Name: 84, dtype: object

>  <pication:TYR:63>  (86) 
pication:TYR:63    NaN
pication:TYR:63     -1
Name: 84, dtype: object

>  <halogenbond:TYR:64>  (86) 
halogenbond:TYR:64    NaN
halogenbond:TYR:64     -1
Name: 84, dtype: object

>  <hbond:TYR:64>  (86) 
hbond:TYR:64    NaN
hbond:TYR:64     -1
Name: 84, dtype: object

>  <hydroph_interaction:TYR:64>  (86) 
hydroph_interaction:TYR:64    NaN
hydroph_interaction:TYR:64     -1
Name: 84, dtype: object

>  <halogenbond:CYS:65>  (86) 
halogenbond:CYS:65    NaN
halogenbond:CYS:65     -1
Name: 84, dtype: object

>  <hbond:CYS:65>  (86) 
hbond:CYS:65    NaN
hbond:CYS:65     -1
Name: 84, dtype: object

>  <hbond:SER:66>  (86) 
hbond:SER:66    NaN
hbond:SER:66     -1
Name: 84, dtype: object

>  <halogenbond:SER:66>  (86) 
halogenbond:SER:66    NaN
halogenbond:SER:66     -1
Name: 84, dtype: object

>  <hbond:SER:67>  (86) 
hbond:SER:67    NaN
hbond:SER:67     -1
Name: 84, dtype: object

>  <halogenbond:SER:67>  (86) 
halogenbond:SER:67    NaN
halogenbond:SER:67     -1
Name: 84, dtype: object

>  <hbond:ARG:68>  (86) 
hbond:ARG:68    NaN
hbond:ARG:68     -1
Name: 84, dtype: object

>  <saltbridge:ARG:68>  (86) 
saltbridge:ARG:68    NaN
saltbridge:ARG:68     -1
Name: 84, dtype: object

>  <hydroph_interaction:ARG:68>  (86) 
hydroph_interaction:ARG:68    NaN
hydroph_interaction:ARG:68     -1
Name: 84, dtype: object

>  <pication:ARG:68>  (86) 
pication:ARG:68    NaN
pication:ARG:68     -1
Name: 84, dtype: object

>  <hydroph_interaction:TYR:72>  (86) 
hydroph_interaction:TYR:72    NaN
hydroph_interaction:TYR:72     -1
Name: 84, dtype: object

>  <hydroph_interaction:VAL:74>  (86) 
hydroph_interaction:VAL:74    NaN
hydroph_interaction:VAL:74     -1
Name: 84, dtype: object

>  <hydroph_interaction:PHE:76>  (86) 
hydroph_interaction:PHE:76    NaN
hydroph_interaction:PHE:76     -1
Name: 84, dtype: object

>  <hbond:SER:77>  (86) 
hbond:SER:77    NaN
hbond:SER:77     -1
Name: 84, dtype: object

>  <hbond:SER:80>  (86) 
hbond:SER:80    NaN
hbond:SER:80     -1
Name: 84, dtype: object

>  <hbond:LEU:81>  (86) 
hbond:LEU:81    NaN
hbond:LEU:81     -1
Name: 84, dtype: object

>  <halogenbond:LEU:81>  (86) 
halogenbond:LEU:81    NaN
halogenbond:LEU:81     -1
Name: 84, dtype: object

>  <hydroph_interaction:LEU:81>  (86) 
hydroph_interaction:LEU:81    NaN
hydroph_interaction:LEU:81     -1
Name: 84, dtype: object

>  <hydroph_interaction:ILE:82>  (86) 
hydroph_interaction:ILE:82    NaN
hydroph_interaction:ILE:82     -1
Name: 84, dtype: object

>  <halogenbond:ILE:82>  (86) 
halogenbond:ILE:82    NaN
halogenbond:ILE:82     -1
Name: 84, dtype: object

>  <hbond:ILE:82>  (86) 
hbond:ILE:82    NaN
hbond:ILE:82     -1
Name: 84, dtype: object

>  <hbond:PHE:83>  (86) 
hbond:PHE:83    NaN
hbond:PHE:83     -1
Name: 84, dtype: object

>  <hydroph_interaction:PHE:83>  (86) 
hydroph_interaction:PHE:83    NaN
hydroph_interaction:PHE:83     -1
Name: 84, dtype: object

>  <halogenbond:PHE:83>  (86) 
halogenbond:PHE:83    NaN
halogenbond:PHE:83     -1
Name: 84, dtype: object

>  <pistack:PHE:83>  (86) 
pistack:PHE:83    NaN
pistack:PHE:83     -1
Name: 84, dtype: object

>  <pication:PHE:83>  (86) 
pication:PHE:83    NaN
pication:PHE:83     -1
Name: 84, dtype: object

>  <hydroph_interaction:VAL:84>  (86) 
hydroph_interaction:VAL:84    0.0
hydroph_interaction:VAL:84      0
Name: 84, dtype: object

>  <halogenbond:VAL:84>  (86) 
halogenbond:VAL:84    NaN
halogenbond:VAL:84     -1
Name: 84, dtype: object

>  <hbond:VAL:84>  (86) 
hbond:VAL:84    NaN
hbond:VAL:84     -1
Name: 84, dtype: object

>  <hydroph_interaction:GLU:85>  (86) 
hydroph_interaction:GLU:85    NaN
hydroph_interaction:GLU:85     -1
Name: 84, dtype: object

>  <hbond:GLU:85>  (86) 
hbond:GLU:85    NaN
hbond:GLU:85     -1
Name: 84, dtype: object

>  <halogenbond:GLU:85>  (86) 
halogenbond:GLU:85    NaN
halogenbond:GLU:85     -1
Name: 84, dtype: object

>  <saltbridge:GLU:85>  (86) 
saltbridge:GLU:85    NaN
saltbridge:GLU:85     -1
Name: 84, dtype: object

>  <halogenbond:ALA:86>  (86) 
halogenbond:ALA:86    NaN
halogenbond:ALA:86     -1
Name: 84, dtype: object

>  <hbond:ALA:86>  (86) 
hbond:ALA:86    NaN
hbond:ALA:86     -1
Name: 84, dtype: object

>  <hydroph_interaction:ALA:86>  (86) 
hydroph_interaction:ALA:86    NaN
hydroph_interaction:ALA:86     -1
Name: 84, dtype: object

>  <hbond:SER:87>  (86) 
hbond:SER:87    3
hbond:SER:87    3
Name: 84, dtype: object

>  <halogenbond:SER:87>  (86) 
halogenbond:SER:87    NaN
halogenbond:SER:87     -1
Name: 84, dtype: object

>  <hbond:GLU:88>  (86) 
hbond:GLU:88    0.0
hbond:GLU:88      0
Name: 84, dtype: object

>  <hydroph_interaction:GLU:88>  (86) 
hydroph_interaction:GLU:88    0.0
hydroph_interaction:GLU:88      0
Name: 84, dtype: object

>  <halogenbond:GLU:88>  (86) 
halogenbond:GLU:88    NaN
halogenbond:GLU:88     -1
Name: 84, dtype: object

>  <saltbridge:GLU:88>  (86) 
saltbridge:GLU:88    NaN
saltbridge:GLU:88     -1
Name: 84, dtype: object

>  <hydroph_interaction:TYR:89>  (86) 
hydroph_interaction:TYR:89    1.0
hydroph_interaction:TYR:89      1
Name: 84, dtype: object

>  <pistack:TYR:89>  (86) 
pistack:TYR:89    NaN
pistack:TYR:89     -1
Name: 84, dtype: object

>  <hbond:TYR:89>  (86) 
hbond:TYR:89    NaN
hbond:TYR:89     -1
Name: 84, dtype: object

>  <halogenbond:TYR:89>  (86) 
halogenbond:TYR:89    NaN
halogenbond:TYR:89     -1
Name: 84, dtype: object

>  <hydroph_interaction:TYR:90>  (86) 
hydroph_interaction:TYR:90    1.0
hydroph_interaction:TYR:90      1
Name: 84, dtype: object

>  <hbond:TYR:90>  (86) 
hbond:TYR:90    0.0
hbond:TYR:90      0
Name: 84, dtype: object

>  <pistack:TYR:90>  (86) 
pistack:TYR:90    NaN
pistack:TYR:90     -1
Name: 84, dtype: object

>  <halogenbond:TYR:90>  (86) 
halogenbond:TYR:90    NaN
halogenbond:TYR:90     -1
Name: 84, dtype: object

>  <pication:TYR:90>  (86) 
pication:TYR:90    NaN
pication:TYR:90     -1
Name: 84, dtype: object

>  <hbond:PRO:91>  (86) 
hbond:PRO:91    NaN
hbond:PRO:91     -1
Name: 84, dtype: object

>  <hydroph_interaction:PRO:91>  (86) 
hydroph_interaction:PRO:91    NaN
hydroph_interaction:PRO:91     -1
Name: 84, dtype: object

>  <halogenbond:PRO:91>  (86) 
halogenbond:PRO:91    NaN
halogenbond:PRO:91     -1
Name: 84, dtype: object

>  <hbond:ALA:92>  (86) 
hbond:ALA:92    NaN
hbond:ALA:92     -1
Name: 84, dtype: object

>  <hydroph_interaction:ALA:92>  (86) 
hydroph_interaction:ALA:92    NaN
hydroph_interaction:ALA:92     -1
Name: 84, dtype: object

>  <saltbridge:ARG:93>  (86) 
saltbridge:ARG:93    NaN
saltbridge:ARG:93     -1
Name: 84, dtype: object

>  <hbond:ARG:93>  (86) 
hbond:ARG:93    NaN
hbond:ARG:93     -1
Name: 84, dtype: object

>  <hydroph_interaction:ARG:93>  (86) 
hydroph_interaction:ARG:93    NaN
hydroph_interaction:ARG:93     -1
Name: 84, dtype: object

>  <halogenbond:ARG:93>  (86) 
halogenbond:ARG:93    NaN
halogenbond:ARG:93     -1
Name: 84, dtype: object

>  <pication:ARG:93>  (86) 
pication:ARG:93    NaN
pication:ARG:93     -1
Name: 84, dtype: object

>  <hydroph_interaction:TYR:94>  (86) 
hydroph_interaction:TYR:94    NaN
hydroph_interaction:TYR:94     -1
Name: 84, dtype: object

>  <pistack:TYR:94>  (86) 
pistack:TYR:94    NaN
pistack:TYR:94     -1
Name: 84, dtype: object

>  <hbond:TYR:94>  (86) 
hbond:TYR:94    NaN
hbond:TYR:94     -1
Name: 84, dtype: object

>  <hbond:GLN:95>  (86) 
hbond:GLN:95    NaN
hbond:GLN:95     -1
Name: 84, dtype: object

>  <hydroph_interaction:GLN:95>  (86) 
hydroph_interaction:GLN:95    NaN
hydroph_interaction:GLN:95     -1
Name: 84, dtype: object

>  <halogenbond:GLN:95>  (86) 
halogenbond:GLN:95    NaN
halogenbond:GLN:95     -1
Name: 84, dtype: object

>  <hbond:SER:96>  (86) 
hbond:SER:96    NaN
hbond:SER:96     -1
Name: 84, dtype: object

>  <halogenbond:HIS:97>  (86) 
halogenbond:HIS:97    NaN
halogenbond:HIS:97     -1
Name: 84, dtype: object

>  <hydroph_interaction:LEU:98>  (86) 
hydroph_interaction:LEU:98    NaN
hydroph_interaction:LEU:98     -1
Name: 84, dtype: object

>  <hbond:LEU:98>  (86) 
hbond:LEU:98    NaN
hbond:LEU:98     -1
Name: 84, dtype: object

>  <halogenbond:LEU:98>  (86) 
halogenbond:LEU:98    NaN
halogenbond:LEU:98     -1
Name: 84, dtype: object

>  <hbond:MET:99>  (86) 
hbond:MET:99    NaN
hbond:MET:99     -1
Name: 84, dtype: object

>  <hydroph_interaction:MET:99>  (86) 
hydroph_interaction:MET:99    NaN
hydroph_interaction:MET:99     -1
Name: 84, dtype: object

>  <halogenbond:MET:99>  (86) 
halogenbond:MET:99    NaN
halogenbond:MET:99     -1
Name: 84, dtype: object

>  <hydroph_interaction:LEU:100>  (86) 
hydroph_interaction:LEU:100    NaN
hydroph_interaction:LEU:100     -1
Name: 84, dtype: object

>  <hbond:LEU:100>  (86) 
hbond:LEU:100    NaN
hbond:LEU:100     -1
Name: 84, dtype: object

>  <hbond:ALA:101>  (86) 
hbond:ALA:101    NaN
hbond:ALA:101     -1
Name: 84, dtype: object

>  <hydroph_interaction:ALA:101>  (86) 
hydroph_interaction:ALA:101    NaN
hydroph_interaction:ALA:101     -1
Name: 84, dtype: object

>  <hydroph_interaction:VAL:102>  (86) 
hydroph_interaction:VAL:102    NaN
hydroph_interaction:VAL:102     -1
Name: 84, dtype: object

>  <hbond:VAL:102>  (86) 
hbond:VAL:102    NaN
hbond:VAL:102     -1
Name: 84, dtype: object

>  <hbond:GLY:103>  (86) 
hbond:GLY:103    NaN
hbond:GLY:103     -1
Name: 84, dtype: object

>  <halogenbond:GLY:103>  (86) 
halogenbond:GLY:103    NaN
halogenbond:GLY:103     -1
Name: 84, dtype: object

>  <hbond:HIS:104>  (86) 
hbond:HIS:104    NaN
hbond:HIS:104     -1
Name: 84, dtype: object

>  <saltbridge:HIS:104>  (86) 
saltbridge:HIS:104    NaN
saltbridge:HIS:104     -1
Name: 84, dtype: object

>  <pication:HIS:104>  (86) 
pication:HIS:104    NaN
pication:HIS:104     -1
Name: 84, dtype: object

>  <halogenbond:HIS:104>  (86) 
halogenbond:HIS:104    NaN
halogenbond:HIS:104     -1
Name: 84, dtype: object

>  <hydroph_interaction:HIS:104>  (86) 
hydroph_interaction:HIS:104    NaN
hydroph_interaction:HIS:104     -1
Name: 84, dtype: object

>  <pistack:HIS:104>  (86) 
pistack:HIS:104    NaN
pistack:HIS:104     -1
Name: 84, dtype: object

>  <halogenbond:SER:105>  (86) 
halogenbond:SER:105    0.0
halogenbond:SER:105      0
Name: 84, dtype: object

>  <hbond:SER:105>  (86) 
hbond:SER:105    0.0
hbond:SER:105      0
Name: 84, dtype: object

>  <hbond:GLU:106>  (86) 
hbond:GLU:106    0.0
hbond:GLU:106      0
Name: 84, dtype: object

>  <hydroph_interaction:GLU:106>  (86) 
hydroph_interaction:GLU:106    NaN
hydroph_interaction:GLU:106     -1
Name: 84, dtype: object

>  <saltbridge:GLU:106>  (86) 
saltbridge:GLU:106    NaN
saltbridge:GLU:106     -1
Name: 84, dtype: object

>  <halogenbond:GLU:106>  (86) 
halogenbond:GLU:106    NaN
halogenbond:GLU:106     -1
Name: 84, dtype: object

>  <hydroph_interaction:PRO:107>  (86) 
hydroph_interaction:PRO:107    0
hydroph_interaction:PRO:107    0
Name: 84, dtype: object

>  <hbond:PRO:107>  (86) 
hbond:PRO:107    0.0
hbond:PRO:107      0
Name: 84, dtype: object

>  <halogenbond:PRO:107>  (86) 
halogenbond:PRO:107    0.0
halogenbond:PRO:107      0
Name: 84, dtype: object

>  <hbond:GLY:108>  (86) 
hbond:GLY:108    NaN
hbond:GLY:108     -1
Name: 84, dtype: object

>  <halogenbond:GLY:108>  (86) 
halogenbond:GLY:108    NaN
halogenbond:GLY:108     -1
Name: 84, dtype: object

>  <hbond:ASP:109>  (86) 
hbond:ASP:109    0.0
hbond:ASP:109      0
Name: 84, dtype: object

>  <hydroph_interaction:ASP:109>  (86) 
hydroph_interaction:ASP:109    0.0
hydroph_interaction:ASP:109      0
Name: 84, dtype: object

>  <saltbridge:ASP:109>  (86) 
saltbridge:ASP:109    NaN
saltbridge:ASP:109     -1
Name: 84, dtype: object

>  <halogenbond:CYS:110>  (86) 
halogenbond:CYS:110    NaN
halogenbond:CYS:110     -1
Name: 84, dtype: object

>  <hbond:CYS:110>  (86) 
hbond:CYS:110    0.0
hbond:CYS:110      0
Name: 84, dtype: object

>  <hbond:GLY:111>  (86) 
hbond:GLY:111    NaN
hbond:GLY:111     -1
Name: 84, dtype: object

>  <hbond:GLY:112>  (86) 
hbond:GLY:112    NaN
hbond:GLY:112     -1
Name: 84, dtype: object

>  <hbond:ILE:113>  (86) 
hbond:ILE:113    NaN
hbond:ILE:113     -1
Name: 84, dtype: object

>  <hydroph_interaction:LEU:114>  (86) 
hydroph_interaction:LEU:114    NaN
hydroph_interaction:LEU:114     -1
Name: 84, dtype: object

>  <hbond:LEU:114>  (86) 
hbond:LEU:114    NaN
hbond:LEU:114     -1
Name: 84, dtype: object

>  <hydroph_interaction:ILE:123>  (86) 
hydroph_interaction:ILE:123    NaN
hydroph_interaction:ILE:123     -1
Name: 84, dtype: object

>  <hbond:ILE:123>  (86) 
hbond:ILE:123    NaN
hbond:ILE:123     -1
Name: 84, dtype: object

>  <hydroph_interaction:VAL:124>  (86) 
hydroph_interaction:VAL:124    0.0
hydroph_interaction:VAL:124      0
Name: 84, dtype: object

>  <hbond:VAL:124>  (86) 
hbond:VAL:124    NaN
hbond:VAL:124     -1
Name: 84, dtype: object

>  <halogenbond:VAL:124>  (86) 
halogenbond:VAL:124    NaN
halogenbond:VAL:124     -1
Name: 84, dtype: object

>  <hbond:SER:125>  (86) 
hbond:SER:125    0
hbond:SER:125    0
Name: 84, dtype: object

>  <halogenbond:SER:125>  (86) 
halogenbond:SER:125    NaN
halogenbond:SER:125     -1
Name: 84, dtype: object

>  <hydroph_interaction:THR:126>  (86) 
hydroph_interaction:THR:126    0.0
hydroph_interaction:THR:126      0
Name: 84, dtype: object

>  <hbond:THR:126>  (86) 
hbond:THR:126    0.0
hbond:THR:126      0
Name: 84, dtype: object

>  <halogenbond:THR:126>  (86) 
halogenbond:THR:126    NaN
halogenbond:THR:126     -1
Name: 84, dtype: object

>  <hbond:GLY:127>  (86) 
hbond:GLY:127    0
hbond:GLY:127    0
Name: 84, dtype: object

>  <halogenbond:GLY:127>  (86) 
halogenbond:GLY:127    0.0
halogenbond:GLY:127      0
Name: 84, dtype: object

>  <hydroph_interaction:GLY:127>  (86) 
hydroph_interaction:GLY:127    NaN
hydroph_interaction:GLY:127     -1
Name: 84, dtype: object

>  <hbond:GLY:128>  (86) 
hbond:GLY:128    NaN
hbond:GLY:128     -1
Name: 84, dtype: object

>  <halogenbond:GLY:128>  (86) 
halogenbond:GLY:128    NaN
halogenbond:GLY:128     -1
Name: 84, dtype: object

>  <hydroph_interaction:GLY:128>  (86) 
hydroph_interaction:GLY:128    NaN
hydroph_interaction:GLY:128     -1
Name: 84, dtype: object

>  <hbond:ASN:129>  (86) 
hbond:ASN:129    NaN
hbond:ASN:129     -1
Name: 84, dtype: object

>  <hydroph_interaction:ASN:129>  (86) 
hydroph_interaction:ASN:129    NaN
hydroph_interaction:ASN:129     -1
Name: 84, dtype: object

>  <halogenbond:ASN:129>  (86) 
halogenbond:ASN:129    NaN
halogenbond:ASN:129     -1
Name: 84, dtype: object

>  <hbond:GLY:130>  (86) 
hbond:GLY:130    NaN
hbond:GLY:130     -1
Name: 84, dtype: object

>  <hbond:LEU:131>  (86) 
hbond:LEU:131    NaN
hbond:LEU:131     -1
Name: 84, dtype: object

>  <hydroph_interaction:LEU:131>  (86) 
hydroph_interaction:LEU:131    NaN
hydroph_interaction:LEU:131     -1
Name: 84, dtype: object

>  <halogenbond:LEU:131>  (86) 
halogenbond:LEU:131    NaN
halogenbond:LEU:131     -1
Name: 84, dtype: object

>  <hydroph_interaction:VAL:132>  (86) 
hydroph_interaction:VAL:132    NaN
hydroph_interaction:VAL:132     -1
Name: 84, dtype: object

>  <hbond:VAL:132>  (86) 
hbond:VAL:132    NaN
hbond:VAL:132     -1
Name: 84, dtype: object

>  <hbond:GLY:133>  (86) 
hbond:GLY:133    NaN
hbond:GLY:133     -1
Name: 84, dtype: object

>  <halogenbond:GLY:133>  (86) 
halogenbond:GLY:133    NaN
halogenbond:GLY:133     -1
Name: 84, dtype: object

>  <hydroph_interaction:PHE:134>  (86) 
hydroph_interaction:PHE:134    NaN
hydroph_interaction:PHE:134     -1
Name: 84, dtype: object

>  <hbond:PHE:134>  (86) 
hbond:PHE:134    NaN
hbond:PHE:134     -1
Name: 84, dtype: object

>  <pistack:PHE:134>  (86) 
pistack:PHE:134    NaN
pistack:PHE:134     -1
Name: 84, dtype: object

>  <pication:PHE:134>  (86) 
pication:PHE:134    NaN
pication:PHE:134     -1
Name: 84, dtype: object

>  <halogenbond:PHE:134>  (86) 
halogenbond:PHE:134    NaN
halogenbond:PHE:134     -1
Name: 84, dtype: object

>  <hydroph_interaction:ALA:135>  (86) 
hydroph_interaction:ALA:135    NaN
hydroph_interaction:ALA:135     -1
Name: 84, dtype: object

>  <hbond:ALA:135>  (86) 
hbond:ALA:135    NaN
hbond:ALA:135     -1
Name: 84, dtype: object

$$$$
PV_002777747718
     RDKit          3D

 13 14  0  0  0  0  0  0  0  0999 V2000
   28.7270   14.6212    8.3426 C   0  0  0  0  0  0  0  0  0  0  0  0
   29.3854   13.4134    7.7219 C   0  0  0  0  0  0  0  0  0  0  0  0
   28.9073   13.1118    6.3455 C   0  0  0  0  0  0  0  0  0  0  0  0
   30.3143   12.6503    8.3119 C   0  0  0  0  0  0  0  0  0  0  0  0
   30.9566   11.5025    7.8069 C   0  0  0  0  0  0  0  0  0  0  0  0
   30.5863   10.1405    8.3314 C   0  0  0  0  0  0  0  0  0  0  0  0
   31.3230    9.0526    7.7336 C   0  0  0  0  0  0  0  0  0  0  0  0
   32.2910    9.1698    6.7723 C   0  0  0  0  0  0  0  0  0  0  0  0
   32.5927   10.4367    6.3321 C   0  0  0  0  0  0  0  0  0  0  0  0
   31.9485   11.5594    6.8288 C   0  0  0  0  0  0  0  0  0  0  0  0
   32.4036   12.7176    6.2481 O   0  0  0  0  0  0  0  0  0  0  0  0
   33.6486   12.3216    5.6321 C   0  0  0  0  0  0  0  0  0  0  0  0
   33.5908   10.8336    5.3207 C   0  0  0  0  0  0  0  0  0  0  0  0
  1  2  1  0
  2  3  1  0
  2  4  2  3
  4  5  1  0
  5  6  2  0
  6  7  1  0
  7  8  2  0
  8  9  1  0
  9 10  2  0
 10 11  1  0
 11 12  1  0
 12 13  1  0
 10  5  1  0
 13  9  1  0
A    1
 C1 
A    2
 C2 
A    3
 C3 
A    4
 C4 
A    5
 C5 
A    6
 C6 
A    7
 C7 
A    8
 C8 
A    9
 C9 
A   10
 C10
A   11
 O1 
A   12
 C11
A   13
 C12
M  END
>  <ref_pdb>  (87) 
Ax0310a

>  <ref_mols>  (87) 
Ax0554a,Ax0739a

>  <original SMILES>  (87) 
CC(C)=Cc1cccc2c1OCC2

>  <rationale>  (87) 
info halogenbond:C110+G127+A86+S125+E85+Q95+E106+E88+T126+P107+H104+Y64+C65+S87+N129+F83+R93+L131+I82+G128+P91+N19+H21+V84+G133+Y90+Y89+H97+L81+F134+L98+R20+G103+S66+S67+S7+G108+R38+V124+M99+S36; hbond:Q95+D39+A86+C110+D109+E85+G108+G103+G128+G130+L131+N129+N19+H104+R68+V124+P91+F83+S67+S7+S66+G112+G133+V132+R20+Y89+S77+A135+Y63+A92+A101+M99+F134+L100+I82+Y64+S36+L98+V84+L81+Y94+S80+R38+S37+V102+G8+I123+G111+I113+L114+C65+L22+S96; hydroph_interaction:V84+P107+E85+E88+D109+N129+L40+I123+A135+Q95+I82+L100+L98+L131+F83+R93+V132+Y63+F134+H104+R20+A86+V74+P91+A101+F76+M99+L114+A92+Y94+R68+Y72+Y64+V18+V102+W28+G127+G128+L81; pication:H104+R93+Y63+F134+Y90+R68+F83+R20; pistack:H21+Y89+Y90+H104+F134+Y63+F83+Y94; saltbridge:D39+R93+H104+E106+D109+E85+E88+R68+R20; 

>  <intxn_cluster>  (87) 
-1

>  <intxn_cluster_rank>  (87) 
-1

>  <N_interactions>  (87) 
2

>  <∆∆G>  (87) 
-9.349327

>  <$/mg>  (87) 
163.0

>  <comRMSD>  (87) 
0.747471

>  <N_rotatable_bonds>  (87) 
3

>  <deep_P1_sidechain>  (87) 
nan

>  <farthest_distance_to_substrate>  (87) 
2.40961

>  <hbond:SER:7>  (87) 
hbond:SER:7    NaN
hbond:SER:7     -1
Name: 85, dtype: object

>  <halogenbond:SER:7>  (87) 
halogenbond:SER:7    NaN
halogenbond:SER:7     -1
Name: 85, dtype: object

>  <hbond:GLY:8>  (87) 
hbond:GLY:8    NaN
hbond:GLY:8     -1
Name: 85, dtype: object

>  <hydroph_interaction:VAL:18>  (87) 
hydroph_interaction:VAL:18    NaN
hydroph_interaction:VAL:18     -1
Name: 85, dtype: object

>  <hbond:ASN:19>  (87) 
hbond:ASN:19    NaN
hbond:ASN:19     -1
Name: 85, dtype: object

>  <hydroph_interaction:ASN:19>  (87) 
hydroph_interaction:ASN:19    0.0
hydroph_interaction:ASN:19      0
Name: 85, dtype: object

>  <halogenbond:ASN:19>  (87) 
halogenbond:ASN:19    NaN
halogenbond:ASN:19     -1
Name: 85, dtype: object

>  <hbond:ARG:20>  (87) 
hbond:ARG:20    NaN
hbond:ARG:20     -1
Name: 85, dtype: object

>  <hydroph_interaction:ARG:20>  (87) 
hydroph_interaction:ARG:20    NaN
hydroph_interaction:ARG:20     -1
Name: 85, dtype: object

>  <saltbridge:ARG:20>  (87) 
saltbridge:ARG:20    NaN
saltbridge:ARG:20     -1
Name: 85, dtype: object

>  <halogenbond:ARG:20>  (87) 
halogenbond:ARG:20    NaN
halogenbond:ARG:20     -1
Name: 85, dtype: object

>  <pication:ARG:20>  (87) 
pication:ARG:20    NaN
pication:ARG:20     -1
Name: 85, dtype: object

>  <hbond:HIS:21>  (87) 
hbond:HIS:21    0.0
hbond:HIS:21      0
Name: 85, dtype: object

>  <hydroph_interaction:HIS:21>  (87) 
hydroph_interaction:HIS:21    0.0
hydroph_interaction:HIS:21      0
Name: 85, dtype: object

>  <pistack:HIS:21>  (87) 
pistack:HIS:21    NaN
pistack:HIS:21     -1
Name: 85, dtype: object

>  <pication:HIS:21>  (87) 
pication:HIS:21    0.0
pication:HIS:21      0
Name: 85, dtype: object

>  <saltbridge:HIS:21>  (87) 
saltbridge:HIS:21    0.0
saltbridge:HIS:21      0
Name: 85, dtype: object

>  <halogenbond:HIS:21>  (87) 
halogenbond:HIS:21    NaN
halogenbond:HIS:21     -1
Name: 85, dtype: object

>  <hydroph_interaction:LEU:22>  (87) 
hydroph_interaction:LEU:22    0.0
hydroph_interaction:LEU:22      0
Name: 85, dtype: object

>  <hbond:LEU:22>  (87) 
hbond:LEU:22    NaN
hbond:LEU:22     -1
Name: 85, dtype: object

>  <hydroph_interaction:TRP:28>  (87) 
hydroph_interaction:TRP:28    NaN
hydroph_interaction:TRP:28     -1
Name: 85, dtype: object

>  <hbond:SER:36>  (87) 
hbond:SER:36    NaN
hbond:SER:36     -1
Name: 85, dtype: object

>  <halogenbond:SER:36>  (87) 
halogenbond:SER:36    NaN
halogenbond:SER:36     -1
Name: 85, dtype: object

>  <hbond:SER:37>  (87) 
hbond:SER:37    NaN
hbond:SER:37     -1
Name: 85, dtype: object

>  <hbond:ARG:38>  (87) 
hbond:ARG:38    NaN
hbond:ARG:38     -1
Name: 85, dtype: object

>  <halogenbond:ARG:38>  (87) 
halogenbond:ARG:38    NaN
halogenbond:ARG:38     -1
Name: 85, dtype: object

>  <saltbridge:ASP:39>  (87) 
saltbridge:ASP:39    NaN
saltbridge:ASP:39     -1
Name: 85, dtype: object

>  <halogenbond:ASP:39>  (87) 
halogenbond:ASP:39    0.0
halogenbond:ASP:39      0
Name: 85, dtype: object

>  <hbond:ASP:39>  (87) 
hbond:ASP:39    NaN
hbond:ASP:39     -1
Name: 85, dtype: object

>  <hydroph_interaction:ASP:39>  (87) 
hydroph_interaction:ASP:39    0.0
hydroph_interaction:ASP:39      0
Name: 85, dtype: object

>  <hydroph_interaction:LEU:40>  (87) 
hydroph_interaction:LEU:40    NaN
hydroph_interaction:LEU:40     -1
Name: 85, dtype: object

>  <hydroph_interaction:TYR:63>  (87) 
hydroph_interaction:TYR:63    NaN
hydroph_interaction:TYR:63     -1
Name: 85, dtype: object

>  <hbond:TYR:63>  (87) 
hbond:TYR:63    NaN
hbond:TYR:63     -1
Name: 85, dtype: object

>  <pistack:TYR:63>  (87) 
pistack:TYR:63    NaN
pistack:TYR:63     -1
Name: 85, dtype: object

>  <pication:TYR:63>  (87) 
pication:TYR:63    NaN
pication:TYR:63     -1
Name: 85, dtype: object

>  <halogenbond:TYR:64>  (87) 
halogenbond:TYR:64    NaN
halogenbond:TYR:64     -1
Name: 85, dtype: object

>  <hbond:TYR:64>  (87) 
hbond:TYR:64    NaN
hbond:TYR:64     -1
Name: 85, dtype: object

>  <hydroph_interaction:TYR:64>  (87) 
hydroph_interaction:TYR:64    NaN
hydroph_interaction:TYR:64     -1
Name: 85, dtype: object

>  <halogenbond:CYS:65>  (87) 
halogenbond:CYS:65    NaN
halogenbond:CYS:65     -1
Name: 85, dtype: object

>  <hbond:CYS:65>  (87) 
hbond:CYS:65    NaN
hbond:CYS:65     -1
Name: 85, dtype: object

>  <hbond:SER:66>  (87) 
hbond:SER:66    NaN
hbond:SER:66     -1
Name: 85, dtype: object

>  <halogenbond:SER:66>  (87) 
halogenbond:SER:66    NaN
halogenbond:SER:66     -1
Name: 85, dtype: object

>  <hbond:SER:67>  (87) 
hbond:SER:67    NaN
hbond:SER:67     -1
Name: 85, dtype: object

>  <halogenbond:SER:67>  (87) 
halogenbond:SER:67    NaN
halogenbond:SER:67     -1
Name: 85, dtype: object

>  <hbond:ARG:68>  (87) 
hbond:ARG:68    NaN
hbond:ARG:68     -1
Name: 85, dtype: object

>  <saltbridge:ARG:68>  (87) 
saltbridge:ARG:68    NaN
saltbridge:ARG:68     -1
Name: 85, dtype: object

>  <hydroph_interaction:ARG:68>  (87) 
hydroph_interaction:ARG:68    NaN
hydroph_interaction:ARG:68     -1
Name: 85, dtype: object

>  <pication:ARG:68>  (87) 
pication:ARG:68    NaN
pication:ARG:68     -1
Name: 85, dtype: object

>  <hydroph_interaction:TYR:72>  (87) 
hydroph_interaction:TYR:72    NaN
hydroph_interaction:TYR:72     -1
Name: 85, dtype: object

>  <hydroph_interaction:VAL:74>  (87) 
hydroph_interaction:VAL:74    NaN
hydroph_interaction:VAL:74     -1
Name: 85, dtype: object

>  <hydroph_interaction:PHE:76>  (87) 
hydroph_interaction:PHE:76    NaN
hydroph_interaction:PHE:76     -1
Name: 85, dtype: object

>  <hbond:SER:77>  (87) 
hbond:SER:77    NaN
hbond:SER:77     -1
Name: 85, dtype: object

>  <hbond:SER:80>  (87) 
hbond:SER:80    NaN
hbond:SER:80     -1
Name: 85, dtype: object

>  <hbond:LEU:81>  (87) 
hbond:LEU:81    NaN
hbond:LEU:81     -1
Name: 85, dtype: object

>  <halogenbond:LEU:81>  (87) 
halogenbond:LEU:81    NaN
halogenbond:LEU:81     -1
Name: 85, dtype: object

>  <hydroph_interaction:LEU:81>  (87) 
hydroph_interaction:LEU:81    NaN
hydroph_interaction:LEU:81     -1
Name: 85, dtype: object

>  <hydroph_interaction:ILE:82>  (87) 
hydroph_interaction:ILE:82    NaN
hydroph_interaction:ILE:82     -1
Name: 85, dtype: object

>  <halogenbond:ILE:82>  (87) 
halogenbond:ILE:82    NaN
halogenbond:ILE:82     -1
Name: 85, dtype: object

>  <hbond:ILE:82>  (87) 
hbond:ILE:82    NaN
hbond:ILE:82     -1
Name: 85, dtype: object

>  <hbond:PHE:83>  (87) 
hbond:PHE:83    NaN
hbond:PHE:83     -1
Name: 85, dtype: object

>  <hydroph_interaction:PHE:83>  (87) 
hydroph_interaction:PHE:83    NaN
hydroph_interaction:PHE:83     -1
Name: 85, dtype: object

>  <halogenbond:PHE:83>  (87) 
halogenbond:PHE:83    NaN
halogenbond:PHE:83     -1
Name: 85, dtype: object

>  <pistack:PHE:83>  (87) 
pistack:PHE:83    NaN
pistack:PHE:83     -1
Name: 85, dtype: object

>  <pication:PHE:83>  (87) 
pication:PHE:83    NaN
pication:PHE:83     -1
Name: 85, dtype: object

>  <hydroph_interaction:VAL:84>  (87) 
hydroph_interaction:VAL:84    NaN
hydroph_interaction:VAL:84     -1
Name: 85, dtype: object

>  <halogenbond:VAL:84>  (87) 
halogenbond:VAL:84    NaN
halogenbond:VAL:84     -1
Name: 85, dtype: object

>  <hbond:VAL:84>  (87) 
hbond:VAL:84    NaN
hbond:VAL:84     -1
Name: 85, dtype: object

>  <hydroph_interaction:GLU:85>  (87) 
hydroph_interaction:GLU:85    NaN
hydroph_interaction:GLU:85     -1
Name: 85, dtype: object

>  <hbond:GLU:85>  (87) 
hbond:GLU:85    NaN
hbond:GLU:85     -1
Name: 85, dtype: object

>  <halogenbond:GLU:85>  (87) 
halogenbond:GLU:85    NaN
halogenbond:GLU:85     -1
Name: 85, dtype: object

>  <saltbridge:GLU:85>  (87) 
saltbridge:GLU:85    NaN
saltbridge:GLU:85     -1
Name: 85, dtype: object

>  <halogenbond:ALA:86>  (87) 
halogenbond:ALA:86    NaN
halogenbond:ALA:86     -1
Name: 85, dtype: object

>  <hbond:ALA:86>  (87) 
hbond:ALA:86    NaN
hbond:ALA:86     -1
Name: 85, dtype: object

>  <hydroph_interaction:ALA:86>  (87) 
hydroph_interaction:ALA:86    NaN
hydroph_interaction:ALA:86     -1
Name: 85, dtype: object

>  <hbond:SER:87>  (87) 
hbond:SER:87    0
hbond:SER:87    0
Name: 85, dtype: object

>  <halogenbond:SER:87>  (87) 
halogenbond:SER:87    NaN
halogenbond:SER:87     -1
Name: 85, dtype: object

>  <hbond:GLU:88>  (87) 
hbond:GLU:88    0.0
hbond:GLU:88      0
Name: 85, dtype: object

>  <hydroph_interaction:GLU:88>  (87) 
hydroph_interaction:GLU:88    NaN
hydroph_interaction:GLU:88     -1
Name: 85, dtype: object

>  <halogenbond:GLU:88>  (87) 
halogenbond:GLU:88    NaN
halogenbond:GLU:88     -1
Name: 85, dtype: object

>  <saltbridge:GLU:88>  (87) 
saltbridge:GLU:88    NaN
saltbridge:GLU:88     -1
Name: 85, dtype: object

>  <hydroph_interaction:TYR:89>  (87) 
hydroph_interaction:TYR:89    0.0
hydroph_interaction:TYR:89      0
Name: 85, dtype: object

>  <pistack:TYR:89>  (87) 
pistack:TYR:89    NaN
pistack:TYR:89     -1
Name: 85, dtype: object

>  <hbond:TYR:89>  (87) 
hbond:TYR:89    NaN
hbond:TYR:89     -1
Name: 85, dtype: object

>  <halogenbond:TYR:89>  (87) 
halogenbond:TYR:89    NaN
halogenbond:TYR:89     -1
Name: 85, dtype: object

>  <hydroph_interaction:TYR:90>  (87) 
hydroph_interaction:TYR:90    0.0
hydroph_interaction:TYR:90      0
Name: 85, dtype: object

>  <hbond:TYR:90>  (87) 
hbond:TYR:90    0.0
hbond:TYR:90      0
Name: 85, dtype: object

>  <pistack:TYR:90>  (87) 
pistack:TYR:90    NaN
pistack:TYR:90     -1
Name: 85, dtype: object

>  <halogenbond:TYR:90>  (87) 
halogenbond:TYR:90    NaN
halogenbond:TYR:90     -1
Name: 85, dtype: object

>  <pication:TYR:90>  (87) 
pication:TYR:90    NaN
pication:TYR:90     -1
Name: 85, dtype: object

>  <hbond:PRO:91>  (87) 
hbond:PRO:91    NaN
hbond:PRO:91     -1
Name: 85, dtype: object

>  <hydroph_interaction:PRO:91>  (87) 
hydroph_interaction:PRO:91    NaN
hydroph_interaction:PRO:91     -1
Name: 85, dtype: object

>  <halogenbond:PRO:91>  (87) 
halogenbond:PRO:91    NaN
halogenbond:PRO:91     -1
Name: 85, dtype: object

>  <hbond:ALA:92>  (87) 
hbond:ALA:92    NaN
hbond:ALA:92     -1
Name: 85, dtype: object

>  <hydroph_interaction:ALA:92>  (87) 
hydroph_interaction:ALA:92    NaN
hydroph_interaction:ALA:92     -1
Name: 85, dtype: object

>  <saltbridge:ARG:93>  (87) 
saltbridge:ARG:93    NaN
saltbridge:ARG:93     -1
Name: 85, dtype: object

>  <hbond:ARG:93>  (87) 
hbond:ARG:93    0.0
hbond:ARG:93      0
Name: 85, dtype: object

>  <hydroph_interaction:ARG:93>  (87) 
hydroph_interaction:ARG:93    NaN
hydroph_interaction:ARG:93     -1
Name: 85, dtype: object

>  <halogenbond:ARG:93>  (87) 
halogenbond:ARG:93    NaN
halogenbond:ARG:93     -1
Name: 85, dtype: object

>  <pication:ARG:93>  (87) 
pication:ARG:93    NaN
pication:ARG:93     -1
Name: 85, dtype: object

>  <hydroph_interaction:TYR:94>  (87) 
hydroph_interaction:TYR:94    NaN
hydroph_interaction:TYR:94     -1
Name: 85, dtype: object

>  <pistack:TYR:94>  (87) 
pistack:TYR:94    NaN
pistack:TYR:94     -1
Name: 85, dtype: object

>  <hbond:TYR:94>  (87) 
hbond:TYR:94    NaN
hbond:TYR:94     -1
Name: 85, dtype: object

>  <hbond:GLN:95>  (87) 
hbond:GLN:95    NaN
hbond:GLN:95     -1
Name: 85, dtype: object

>  <hydroph_interaction:GLN:95>  (87) 
hydroph_interaction:GLN:95    NaN
hydroph_interaction:GLN:95     -1
Name: 85, dtype: object

>  <halogenbond:GLN:95>  (87) 
halogenbond:GLN:95    NaN
halogenbond:GLN:95     -1
Name: 85, dtype: object

>  <hbond:SER:96>  (87) 
hbond:SER:96    NaN
hbond:SER:96     -1
Name: 85, dtype: object

>  <halogenbond:HIS:97>  (87) 
halogenbond:HIS:97    NaN
halogenbond:HIS:97     -1
Name: 85, dtype: object

>  <hydroph_interaction:LEU:98>  (87) 
hydroph_interaction:LEU:98    NaN
hydroph_interaction:LEU:98     -1
Name: 85, dtype: object

>  <hbond:LEU:98>  (87) 
hbond:LEU:98    NaN
hbond:LEU:98     -1
Name: 85, dtype: object

>  <halogenbond:LEU:98>  (87) 
halogenbond:LEU:98    NaN
halogenbond:LEU:98     -1
Name: 85, dtype: object

>  <hbond:MET:99>  (87) 
hbond:MET:99    NaN
hbond:MET:99     -1
Name: 85, dtype: object

>  <hydroph_interaction:MET:99>  (87) 
hydroph_interaction:MET:99    NaN
hydroph_interaction:MET:99     -1
Name: 85, dtype: object

>  <halogenbond:MET:99>  (87) 
halogenbond:MET:99    NaN
halogenbond:MET:99     -1
Name: 85, dtype: object

>  <hydroph_interaction:LEU:100>  (87) 
hydroph_interaction:LEU:100    NaN
hydroph_interaction:LEU:100     -1
Name: 85, dtype: object

>  <hbond:LEU:100>  (87) 
hbond:LEU:100    NaN
hbond:LEU:100     -1
Name: 85, dtype: object

>  <hbond:ALA:101>  (87) 
hbond:ALA:101    NaN
hbond:ALA:101     -1
Name: 85, dtype: object

>  <hydroph_interaction:ALA:101>  (87) 
hydroph_interaction:ALA:101    NaN
hydroph_interaction:ALA:101     -1
Name: 85, dtype: object

>  <hydroph_interaction:VAL:102>  (87) 
hydroph_interaction:VAL:102    NaN
hydroph_interaction:VAL:102     -1
Name: 85, dtype: object

>  <hbond:VAL:102>  (87) 
hbond:VAL:102    NaN
hbond:VAL:102     -1
Name: 85, dtype: object

>  <hbond:GLY:103>  (87) 
hbond:GLY:103    NaN
hbond:GLY:103     -1
Name: 85, dtype: object

>  <halogenbond:GLY:103>  (87) 
halogenbond:GLY:103    NaN
halogenbond:GLY:103     -1
Name: 85, dtype: object

>  <hbond:HIS:104>  (87) 
hbond:HIS:104    NaN
hbond:HIS:104     -1
Name: 85, dtype: object

>  <saltbridge:HIS:104>  (87) 
saltbridge:HIS:104    NaN
saltbridge:HIS:104     -1
Name: 85, dtype: object

>  <pication:HIS:104>  (87) 
pication:HIS:104    NaN
pication:HIS:104     -1
Name: 85, dtype: object

>  <halogenbond:HIS:104>  (87) 
halogenbond:HIS:104    NaN
halogenbond:HIS:104     -1
Name: 85, dtype: object

>  <hydroph_interaction:HIS:104>  (87) 
hydroph_interaction:HIS:104    NaN
hydroph_interaction:HIS:104     -1
Name: 85, dtype: object

>  <pistack:HIS:104>  (87) 
pistack:HIS:104    NaN
pistack:HIS:104     -1
Name: 85, dtype: object

>  <halogenbond:SER:105>  (87) 
halogenbond:SER:105    0.0
halogenbond:SER:105      0
Name: 85, dtype: object

>  <hbond:SER:105>  (87) 
hbond:SER:105    0.0
hbond:SER:105      0
Name: 85, dtype: object

>  <hbond:GLU:106>  (87) 
hbond:GLU:106    0.0
hbond:GLU:106      0
Name: 85, dtype: object

>  <hydroph_interaction:GLU:106>  (87) 
hydroph_interaction:GLU:106    0.0
hydroph_interaction:GLU:106      0
Name: 85, dtype: object

>  <saltbridge:GLU:106>  (87) 
saltbridge:GLU:106    NaN
saltbridge:GLU:106     -1
Name: 85, dtype: object

>  <halogenbond:GLU:106>  (87) 
halogenbond:GLU:106    NaN
halogenbond:GLU:106     -1
Name: 85, dtype: object

>  <hydroph_interaction:PRO:107>  (87) 
hydroph_interaction:PRO:107    2
hydroph_interaction:PRO:107    2
Name: 85, dtype: object

>  <hbond:PRO:107>  (87) 
hbond:PRO:107    0.0
hbond:PRO:107      0
Name: 85, dtype: object

>  <halogenbond:PRO:107>  (87) 
halogenbond:PRO:107    NaN
halogenbond:PRO:107     -1
Name: 85, dtype: object

>  <hbond:GLY:108>  (87) 
hbond:GLY:108    NaN
hbond:GLY:108     -1
Name: 85, dtype: object

>  <halogenbond:GLY:108>  (87) 
halogenbond:GLY:108    NaN
halogenbond:GLY:108     -1
Name: 85, dtype: object

>  <hbond:ASP:109>  (87) 
hbond:ASP:109    NaN
hbond:ASP:109     -1
Name: 85, dtype: object

>  <hydroph_interaction:ASP:109>  (87) 
hydroph_interaction:ASP:109    NaN
hydroph_interaction:ASP:109     -1
Name: 85, dtype: object

>  <saltbridge:ASP:109>  (87) 
saltbridge:ASP:109    NaN
saltbridge:ASP:109     -1
Name: 85, dtype: object

>  <halogenbond:CYS:110>  (87) 
halogenbond:CYS:110    NaN
halogenbond:CYS:110     -1
Name: 85, dtype: object

>  <hbond:CYS:110>  (87) 
hbond:CYS:110    NaN
hbond:CYS:110     -1
Name: 85, dtype: object

>  <hbond:GLY:111>  (87) 
hbond:GLY:111    NaN
hbond:GLY:111     -1
Name: 85, dtype: object

>  <hbond:GLY:112>  (87) 
hbond:GLY:112    NaN
hbond:GLY:112     -1
Name: 85, dtype: object

>  <hbond:ILE:113>  (87) 
hbond:ILE:113    NaN
hbond:ILE:113     -1
Name: 85, dtype: object

>  <hydroph_interaction:LEU:114>  (87) 
hydroph_interaction:LEU:114    NaN
hydroph_interaction:LEU:114     -1
Name: 85, dtype: object

>  <hbond:LEU:114>  (87) 
hbond:LEU:114    NaN
hbond:LEU:114     -1
Name: 85, dtype: object

>  <hydroph_interaction:ILE:123>  (87) 
hydroph_interaction:ILE:123    NaN
hydroph_interaction:ILE:123     -1
Name: 85, dtype: object

>  <hbond:ILE:123>  (87) 
hbond:ILE:123    NaN
hbond:ILE:123     -1
Name: 85, dtype: object

>  <hydroph_interaction:VAL:124>  (87) 
hydroph_interaction:VAL:124    0.0
hydroph_interaction:VAL:124      0
Name: 85, dtype: object

>  <hbond:VAL:124>  (87) 
hbond:VAL:124    NaN
hbond:VAL:124     -1
Name: 85, dtype: object

>  <halogenbond:VAL:124>  (87) 
halogenbond:VAL:124    NaN
halogenbond:VAL:124     -1
Name: 85, dtype: object

>  <hbond:SER:125>  (87) 
hbond:SER:125    0
hbond:SER:125    0
Name: 85, dtype: object

>  <halogenbond:SER:125>  (87) 
halogenbond:SER:125    NaN
halogenbond:SER:125     -1
Name: 85, dtype: object

>  <hydroph_interaction:THR:126>  (87) 
hydroph_interaction:THR:126    0.0
hydroph_interaction:THR:126      0
Name: 85, dtype: object

>  <hbond:THR:126>  (87) 
hbond:THR:126    0.0
hbond:THR:126      0
Name: 85, dtype: object

>  <halogenbond:THR:126>  (87) 
halogenbond:THR:126    NaN
halogenbond:THR:126     -1
Name: 85, dtype: object

>  <hbond:GLY:127>  (87) 
hbond:GLY:127    0
hbond:GLY:127    0
Name: 85, dtype: object

>  <halogenbond:GLY:127>  (87) 
halogenbond:GLY:127    NaN
halogenbond:GLY:127     -1
Name: 85, dtype: object

>  <hydroph_interaction:GLY:127>  (87) 
hydroph_interaction:GLY:127    NaN
hydroph_interaction:GLY:127     -1
Name: 85, dtype: object

>  <hbond:GLY:128>  (87) 
hbond:GLY:128    NaN
hbond:GLY:128     -1
Name: 85, dtype: object

>  <halogenbond:GLY:128>  (87) 
halogenbond:GLY:128    NaN
halogenbond:GLY:128     -1
Name: 85, dtype: object

>  <hydroph_interaction:GLY:128>  (87) 
hydroph_interaction:GLY:128    NaN
hydroph_interaction:GLY:128     -1
Name: 85, dtype: object

>  <hbond:ASN:129>  (87) 
hbond:ASN:129    NaN
hbond:ASN:129     -1
Name: 85, dtype: object

>  <hydroph_interaction:ASN:129>  (87) 
hydroph_interaction:ASN:129    NaN
hydroph_interaction:ASN:129     -1
Name: 85, dtype: object

>  <halogenbond:ASN:129>  (87) 
halogenbond:ASN:129    NaN
halogenbond:ASN:129     -1
Name: 85, dtype: object

>  <hbond:GLY:130>  (87) 
hbond:GLY:130    NaN
hbond:GLY:130     -1
Name: 85, dtype: object

>  <hbond:LEU:131>  (87) 
hbond:LEU:131    NaN
hbond:LEU:131     -1
Name: 85, dtype: object

>  <hydroph_interaction:LEU:131>  (87) 
hydroph_interaction:LEU:131    NaN
hydroph_interaction:LEU:131     -1
Name: 85, dtype: object

>  <halogenbond:LEU:131>  (87) 
halogenbond:LEU:131    NaN
halogenbond:LEU:131     -1
Name: 85, dtype: object

>  <hydroph_interaction:VAL:132>  (87) 
hydroph_interaction:VAL:132    NaN
hydroph_interaction:VAL:132     -1
Name: 85, dtype: object

>  <hbond:VAL:132>  (87) 
hbond:VAL:132    NaN
hbond:VAL:132     -1
Name: 85, dtype: object

>  <hbond:GLY:133>  (87) 
hbond:GLY:133    NaN
hbond:GLY:133     -1
Name: 85, dtype: object

>  <halogenbond:GLY:133>  (87) 
halogenbond:GLY:133    NaN
halogenbond:GLY:133     -1
Name: 85, dtype: object

>  <hydroph_interaction:PHE:134>  (87) 
hydroph_interaction:PHE:134    NaN
hydroph_interaction:PHE:134     -1
Name: 85, dtype: object

>  <hbond:PHE:134>  (87) 
hbond:PHE:134    NaN
hbond:PHE:134     -1
Name: 85, dtype: object

>  <pistack:PHE:134>  (87) 
pistack:PHE:134    NaN
pistack:PHE:134     -1
Name: 85, dtype: object

>  <pication:PHE:134>  (87) 
pication:PHE:134    NaN
pication:PHE:134     -1
Name: 85, dtype: object

>  <halogenbond:PHE:134>  (87) 
halogenbond:PHE:134    NaN
halogenbond:PHE:134     -1
Name: 85, dtype: object

>  <hydroph_interaction:ALA:135>  (87) 
hydroph_interaction:ALA:135    NaN
hydroph_interaction:ALA:135     -1
Name: 85, dtype: object

>  <hbond:ALA:135>  (87) 
hbond:ALA:135    NaN
hbond:ALA:135     -1
Name: 85, dtype: object

$$$$
Z4342066885
     RDKit          3D

 15 16  0  0  0  0  0  0  0  0999 V2000
   28.7973   15.2558    8.5690 C   0  0  0  0  0  0  0  0  0  0  0  0
   29.5582   13.9606    8.5959 C   0  0  0  0  0  0  0  0  0  0  0  0
   29.9290   13.1238    7.4185 C   0  0  0  0  0  0  0  0  0  0  0  0
   29.5521   13.5553    6.1634 C   0  0  0  0  0  0  0  0  0  0  0  0
   30.6221   11.8596    7.4091 C   0  0  0  0  0  0  0  0  0  0  0  0
   30.2173   10.8930    8.2259 N   0  0  0  0  0  0  0  0  0  0  0  0
   30.9889    9.8503    7.9677 N   0  0  0  0  0  0  0  0  0  0  0  0
   30.7630    8.6490    8.7035 C   0  0  0  0  0  0  0  0  0  0  0  0
   31.9148   10.0761    7.0015 C   0  0  0  0  0  0  0  0  0  0  0  0
   32.9038    9.2971    6.3978 C   0  0  0  0  0  0  0  0  0  0  0  0
   33.7223    9.8201    5.4135 C   0  0  0  0  0  0  0  0  0  0  0  0
   34.6935    8.9934    4.8335 N   0  0  0  0  0  0  0  0  0  0  0  0
   33.5625   11.1405    5.0251 C   0  0  0  0  0  0  0  0  0  0  0  0
   32.5657   11.9249    5.6236 C   0  0  0  0  0  0  0  0  0  0  0  0
   31.7265   11.4117    6.6072 C   0  0  0  0  0  0  0  0  0  0  0  0
  1  2  1  0
  2  3  2  3
  3  4  1  0
  3  5  1  0
  5  6  2  0
  6  7  1  0
  7  8  1  0
  7  9  1  0
  9 10  2  0
 10 11  1  0
 11 12  1  0
 11 13  2  0
 13 14  1  0
 14 15  2  0
 15  5  1  0
 15  9  1  0
A    1
 C1 
A    2
 C2 
A    3
 C3 
A    4
 C4 
A    5
 C5 
A    6
 N1 
A    7
 N2 
A    8
 C6 
A    9
 C7 
A   10
 C8 
A   11
 C9 
A   12
 N3 
A   13
 C10
A   14
 C11
A   15
 C12
M  END
>  <ref_pdb>  (88) 
Ax0310a

>  <ref_mols>  (88) 
Ax0451a,Ax0528a

>  <original SMILES>  (88) 
CC=C(C)c1nn(C)c2cc(N)ccc12

>  <rationale>  (88) 
info halogenbond:C110+G127+D39+A86+S125+E85+Q95+E106+E88+T126+P107+H104+Y64+C65+S87+N129+F83+R93+L131+I82+G128+P91+N19+H21+V84+G133+Y90+Y89+H97+L81+F134+L98+R20+G103+S66+S67+S7+G108+R38+V124+M99+S36; hbond:S105+Q95+A86+E85+G108+G103+G128+G130+L131+N129+N19+H104+R68+V124+R93+P91+F83+S67+S7+S66+G112+G133+V132+R20+Y89+S77+A135+Y63+A92+A101+M99+F134+L100+I82+Y64+S36+L98+V84+L81+Y94+S80+R38+S37+V102+G8+I123+G111+I113+L114+C65+L22+S96; hydroph_interaction:Y90+T126+P107+E85+E88+D109+N129+D39+L40+I123+A135+Q95+I82+L100+L98+L131+F83+R93+Y63+F134+H104+R20+A86+V74+P91+A101+F76+M99+L114+A92+Y94+R68+Y72+Y64+V18+V102+W28+G127+G128+L81; pication:H104+R93+Y63+F134+Y90+R68+F83+R20; pistack:H21+Y90+H104+F134+Y63+F83+Y94; saltbridge:D39+R93+H104+E106+D109+E85+E88+R68+R20; 

>  <intxn_cluster>  (88) 
-1

>  <intxn_cluster_rank>  (88) 
-1

>  <N_interactions>  (88) 
4

>  <∆∆G>  (88) 
-10.92139

>  <$/mg>  (88) 
163.0

>  <comRMSD>  (88) 
0.67556

>  <N_rotatable_bonds>  (88) 
5

>  <deep_P1_sidechain>  (88) 
nan

>  <farthest_distance_to_substrate>  (88) 
3.620608

>  <hbond:SER:7>  (88) 
hbond:SER:7    NaN
hbond:SER:7     -1
Name: 86, dtype: object

>  <halogenbond:SER:7>  (88) 
halogenbond:SER:7    NaN
halogenbond:SER:7     -1
Name: 86, dtype: object

>  <hbond:GLY:8>  (88) 
hbond:GLY:8    NaN
hbond:GLY:8     -1
Name: 86, dtype: object

>  <hydroph_interaction:VAL:18>  (88) 
hydroph_interaction:VAL:18    NaN
hydroph_interaction:VAL:18     -1
Name: 86, dtype: object

>  <hbond:ASN:19>  (88) 
hbond:ASN:19    NaN
hbond:ASN:19     -1
Name: 86, dtype: object

>  <hydroph_interaction:ASN:19>  (88) 
hydroph_interaction:ASN:19    0.0
hydroph_interaction:ASN:19      0
Name: 86, dtype: object

>  <halogenbond:ASN:19>  (88) 
halogenbond:ASN:19    NaN
halogenbond:ASN:19     -1
Name: 86, dtype: object

>  <hbond:ARG:20>  (88) 
hbond:ARG:20    NaN
hbond:ARG:20     -1
Name: 86, dtype: object

>  <hydroph_interaction:ARG:20>  (88) 
hydroph_interaction:ARG:20    NaN
hydroph_interaction:ARG:20     -1
Name: 86, dtype: object

>  <saltbridge:ARG:20>  (88) 
saltbridge:ARG:20    NaN
saltbridge:ARG:20     -1
Name: 86, dtype: object

>  <halogenbond:ARG:20>  (88) 
halogenbond:ARG:20    NaN
halogenbond:ARG:20     -1
Name: 86, dtype: object

>  <pication:ARG:20>  (88) 
pication:ARG:20    NaN
pication:ARG:20     -1
Name: 86, dtype: object

>  <hbond:HIS:21>  (88) 
hbond:HIS:21    0.0
hbond:HIS:21      0
Name: 86, dtype: object

>  <hydroph_interaction:HIS:21>  (88) 
hydroph_interaction:HIS:21    0.0
hydroph_interaction:HIS:21      0
Name: 86, dtype: object

>  <pistack:HIS:21>  (88) 
pistack:HIS:21    NaN
pistack:HIS:21     -1
Name: 86, dtype: object

>  <pication:HIS:21>  (88) 
pication:HIS:21    0.0
pication:HIS:21      0
Name: 86, dtype: object

>  <saltbridge:HIS:21>  (88) 
saltbridge:HIS:21    0.0
saltbridge:HIS:21      0
Name: 86, dtype: object

>  <halogenbond:HIS:21>  (88) 
halogenbond:HIS:21    NaN
halogenbond:HIS:21     -1
Name: 86, dtype: object

>  <hydroph_interaction:LEU:22>  (88) 
hydroph_interaction:LEU:22    0.0
hydroph_interaction:LEU:22      0
Name: 86, dtype: object

>  <hbond:LEU:22>  (88) 
hbond:LEU:22    NaN
hbond:LEU:22     -1
Name: 86, dtype: object

>  <hydroph_interaction:TRP:28>  (88) 
hydroph_interaction:TRP:28    NaN
hydroph_interaction:TRP:28     -1
Name: 86, dtype: object

>  <hbond:SER:36>  (88) 
hbond:SER:36    NaN
hbond:SER:36     -1
Name: 86, dtype: object

>  <halogenbond:SER:36>  (88) 
halogenbond:SER:36    NaN
halogenbond:SER:36     -1
Name: 86, dtype: object

>  <hbond:SER:37>  (88) 
hbond:SER:37    NaN
hbond:SER:37     -1
Name: 86, dtype: object

>  <hbond:ARG:38>  (88) 
hbond:ARG:38    NaN
hbond:ARG:38     -1
Name: 86, dtype: object

>  <halogenbond:ARG:38>  (88) 
halogenbond:ARG:38    NaN
halogenbond:ARG:38     -1
Name: 86, dtype: object

>  <saltbridge:ASP:39>  (88) 
saltbridge:ASP:39    NaN
saltbridge:ASP:39     -1
Name: 86, dtype: object

>  <halogenbond:ASP:39>  (88) 
halogenbond:ASP:39    NaN
halogenbond:ASP:39     -1
Name: 86, dtype: object

>  <hbond:ASP:39>  (88) 
hbond:ASP:39    0.0
hbond:ASP:39      0
Name: 86, dtype: object

>  <hydroph_interaction:ASP:39>  (88) 
hydroph_interaction:ASP:39    NaN
hydroph_interaction:ASP:39     -1
Name: 86, dtype: object

>  <hydroph_interaction:LEU:40>  (88) 
hydroph_interaction:LEU:40    NaN
hydroph_interaction:LEU:40     -1
Name: 86, dtype: object

>  <hydroph_interaction:TYR:63>  (88) 
hydroph_interaction:TYR:63    NaN
hydroph_interaction:TYR:63     -1
Name: 86, dtype: object

>  <hbond:TYR:63>  (88) 
hbond:TYR:63    NaN
hbond:TYR:63     -1
Name: 86, dtype: object

>  <pistack:TYR:63>  (88) 
pistack:TYR:63    NaN
pistack:TYR:63     -1
Name: 86, dtype: object

>  <pication:TYR:63>  (88) 
pication:TYR:63    NaN
pication:TYR:63     -1
Name: 86, dtype: object

>  <halogenbond:TYR:64>  (88) 
halogenbond:TYR:64    NaN
halogenbond:TYR:64     -1
Name: 86, dtype: object

>  <hbond:TYR:64>  (88) 
hbond:TYR:64    NaN
hbond:TYR:64     -1
Name: 86, dtype: object

>  <hydroph_interaction:TYR:64>  (88) 
hydroph_interaction:TYR:64    NaN
hydroph_interaction:TYR:64     -1
Name: 86, dtype: object

>  <halogenbond:CYS:65>  (88) 
halogenbond:CYS:65    NaN
halogenbond:CYS:65     -1
Name: 86, dtype: object

>  <hbond:CYS:65>  (88) 
hbond:CYS:65    NaN
hbond:CYS:65     -1
Name: 86, dtype: object

>  <hbond:SER:66>  (88) 
hbond:SER:66    NaN
hbond:SER:66     -1
Name: 86, dtype: object

>  <halogenbond:SER:66>  (88) 
halogenbond:SER:66    NaN
halogenbond:SER:66     -1
Name: 86, dtype: object

>  <hbond:SER:67>  (88) 
hbond:SER:67    NaN
hbond:SER:67     -1
Name: 86, dtype: object

>  <halogenbond:SER:67>  (88) 
halogenbond:SER:67    NaN
halogenbond:SER:67     -1
Name: 86, dtype: object

>  <hbond:ARG:68>  (88) 
hbond:ARG:68    NaN
hbond:ARG:68     -1
Name: 86, dtype: object

>  <saltbridge:ARG:68>  (88) 
saltbridge:ARG:68    NaN
saltbridge:ARG:68     -1
Name: 86, dtype: object

>  <hydroph_interaction:ARG:68>  (88) 
hydroph_interaction:ARG:68    NaN
hydroph_interaction:ARG:68     -1
Name: 86, dtype: object

>  <pication:ARG:68>  (88) 
pication:ARG:68    NaN
pication:ARG:68     -1
Name: 86, dtype: object

>  <hydroph_interaction:TYR:72>  (88) 
hydroph_interaction:TYR:72    NaN
hydroph_interaction:TYR:72     -1
Name: 86, dtype: object

>  <hydroph_interaction:VAL:74>  (88) 
hydroph_interaction:VAL:74    NaN
hydroph_interaction:VAL:74     -1
Name: 86, dtype: object

>  <hydroph_interaction:PHE:76>  (88) 
hydroph_interaction:PHE:76    NaN
hydroph_interaction:PHE:76     -1
Name: 86, dtype: object

>  <hbond:SER:77>  (88) 
hbond:SER:77    NaN
hbond:SER:77     -1
Name: 86, dtype: object

>  <hbond:SER:80>  (88) 
hbond:SER:80    NaN
hbond:SER:80     -1
Name: 86, dtype: object

>  <hbond:LEU:81>  (88) 
hbond:LEU:81    NaN
hbond:LEU:81     -1
Name: 86, dtype: object

>  <halogenbond:LEU:81>  (88) 
halogenbond:LEU:81    NaN
halogenbond:LEU:81     -1
Name: 86, dtype: object

>  <hydroph_interaction:LEU:81>  (88) 
hydroph_interaction:LEU:81    NaN
hydroph_interaction:LEU:81     -1
Name: 86, dtype: object

>  <hydroph_interaction:ILE:82>  (88) 
hydroph_interaction:ILE:82    NaN
hydroph_interaction:ILE:82     -1
Name: 86, dtype: object

>  <halogenbond:ILE:82>  (88) 
halogenbond:ILE:82    NaN
halogenbond:ILE:82     -1
Name: 86, dtype: object

>  <hbond:ILE:82>  (88) 
hbond:ILE:82    NaN
hbond:ILE:82     -1
Name: 86, dtype: object

>  <hbond:PHE:83>  (88) 
hbond:PHE:83    NaN
hbond:PHE:83     -1
Name: 86, dtype: object

>  <hydroph_interaction:PHE:83>  (88) 
hydroph_interaction:PHE:83    NaN
hydroph_interaction:PHE:83     -1
Name: 86, dtype: object

>  <halogenbond:PHE:83>  (88) 
halogenbond:PHE:83    NaN
halogenbond:PHE:83     -1
Name: 86, dtype: object

>  <pistack:PHE:83>  (88) 
pistack:PHE:83    NaN
pistack:PHE:83     -1
Name: 86, dtype: object

>  <pication:PHE:83>  (88) 
pication:PHE:83    NaN
pication:PHE:83     -1
Name: 86, dtype: object

>  <hydroph_interaction:VAL:84>  (88) 
hydroph_interaction:VAL:84    0.0
hydroph_interaction:VAL:84      0
Name: 86, dtype: object

>  <halogenbond:VAL:84>  (88) 
halogenbond:VAL:84    NaN
halogenbond:VAL:84     -1
Name: 86, dtype: object

>  <hbond:VAL:84>  (88) 
hbond:VAL:84    NaN
hbond:VAL:84     -1
Name: 86, dtype: object

>  <hydroph_interaction:GLU:85>  (88) 
hydroph_interaction:GLU:85    NaN
hydroph_interaction:GLU:85     -1
Name: 86, dtype: object

>  <hbond:GLU:85>  (88) 
hbond:GLU:85    NaN
hbond:GLU:85     -1
Name: 86, dtype: object

>  <halogenbond:GLU:85>  (88) 
halogenbond:GLU:85    NaN
halogenbond:GLU:85     -1
Name: 86, dtype: object

>  <saltbridge:GLU:85>  (88) 
saltbridge:GLU:85    NaN
saltbridge:GLU:85     -1
Name: 86, dtype: object

>  <halogenbond:ALA:86>  (88) 
halogenbond:ALA:86    NaN
halogenbond:ALA:86     -1
Name: 86, dtype: object

>  <hbond:ALA:86>  (88) 
hbond:ALA:86    NaN
hbond:ALA:86     -1
Name: 86, dtype: object

>  <hydroph_interaction:ALA:86>  (88) 
hydroph_interaction:ALA:86    NaN
hydroph_interaction:ALA:86     -1
Name: 86, dtype: object

>  <hbond:SER:87>  (88) 
hbond:SER:87    0
hbond:SER:87    0
Name: 86, dtype: object

>  <halogenbond:SER:87>  (88) 
halogenbond:SER:87    NaN
halogenbond:SER:87     -1
Name: 86, dtype: object

>  <hbond:GLU:88>  (88) 
hbond:GLU:88    0.0
hbond:GLU:88      0
Name: 86, dtype: object

>  <hydroph_interaction:GLU:88>  (88) 
hydroph_interaction:GLU:88    NaN
hydroph_interaction:GLU:88     -1
Name: 86, dtype: object

>  <halogenbond:GLU:88>  (88) 
halogenbond:GLU:88    NaN
halogenbond:GLU:88     -1
Name: 86, dtype: object

>  <saltbridge:GLU:88>  (88) 
saltbridge:GLU:88    NaN
saltbridge:GLU:88     -1
Name: 86, dtype: object

>  <hydroph_interaction:TYR:89>  (88) 
hydroph_interaction:TYR:89    0.0
hydroph_interaction:TYR:89      0
Name: 86, dtype: object

>  <pistack:TYR:89>  (88) 
pistack:TYR:89    0.0
pistack:TYR:89      0
Name: 86, dtype: object

>  <hbond:TYR:89>  (88) 
hbond:TYR:89    NaN
hbond:TYR:89     -1
Name: 86, dtype: object

>  <halogenbond:TYR:89>  (88) 
halogenbond:TYR:89    NaN
halogenbond:TYR:89     -1
Name: 86, dtype: object

>  <hydroph_interaction:TYR:90>  (88) 
hydroph_interaction:TYR:90    1.0
hydroph_interaction:TYR:90      1
Name: 86, dtype: object

>  <hbond:TYR:90>  (88) 
hbond:TYR:90    0.0
hbond:TYR:90      0
Name: 86, dtype: object

>  <pistack:TYR:90>  (88) 
pistack:TYR:90    NaN
pistack:TYR:90     -1
Name: 86, dtype: object

>  <halogenbond:TYR:90>  (88) 
halogenbond:TYR:90    NaN
halogenbond:TYR:90     -1
Name: 86, dtype: object

>  <pication:TYR:90>  (88) 
pication:TYR:90    NaN
pication:TYR:90     -1
Name: 86, dtype: object

>  <hbond:PRO:91>  (88) 
hbond:PRO:91    NaN
hbond:PRO:91     -1
Name: 86, dtype: object

>  <hydroph_interaction:PRO:91>  (88) 
hydroph_interaction:PRO:91    NaN
hydroph_interaction:PRO:91     -1
Name: 86, dtype: object

>  <halogenbond:PRO:91>  (88) 
halogenbond:PRO:91    NaN
halogenbond:PRO:91     -1
Name: 86, dtype: object

>  <hbond:ALA:92>  (88) 
hbond:ALA:92    NaN
hbond:ALA:92     -1
Name: 86, dtype: object

>  <hydroph_interaction:ALA:92>  (88) 
hydroph_interaction:ALA:92    NaN
hydroph_interaction:ALA:92     -1
Name: 86, dtype: object

>  <saltbridge:ARG:93>  (88) 
saltbridge:ARG:93    NaN
saltbridge:ARG:93     -1
Name: 86, dtype: object

>  <hbond:ARG:93>  (88) 
hbond:ARG:93    NaN
hbond:ARG:93     -1
Name: 86, dtype: object

>  <hydroph_interaction:ARG:93>  (88) 
hydroph_interaction:ARG:93    NaN
hydroph_interaction:ARG:93     -1
Name: 86, dtype: object

>  <halogenbond:ARG:93>  (88) 
halogenbond:ARG:93    NaN
halogenbond:ARG:93     -1
Name: 86, dtype: object

>  <pication:ARG:93>  (88) 
pication:ARG:93    NaN
pication:ARG:93     -1
Name: 86, dtype: object

>  <hydroph_interaction:TYR:94>  (88) 
hydroph_interaction:TYR:94    NaN
hydroph_interaction:TYR:94     -1
Name: 86, dtype: object

>  <pistack:TYR:94>  (88) 
pistack:TYR:94    NaN
pistack:TYR:94     -1
Name: 86, dtype: object

>  <hbond:TYR:94>  (88) 
hbond:TYR:94    NaN
hbond:TYR:94     -1
Name: 86, dtype: object

>  <hbond:GLN:95>  (88) 
hbond:GLN:95    NaN
hbond:GLN:95     -1
Name: 86, dtype: object

>  <hydroph_interaction:GLN:95>  (88) 
hydroph_interaction:GLN:95    NaN
hydroph_interaction:GLN:95     -1
Name: 86, dtype: object

>  <halogenbond:GLN:95>  (88) 
halogenbond:GLN:95    NaN
halogenbond:GLN:95     -1
Name: 86, dtype: object

>  <hbond:SER:96>  (88) 
hbond:SER:96    NaN
hbond:SER:96     -1
Name: 86, dtype: object

>  <halogenbond:HIS:97>  (88) 
halogenbond:HIS:97    NaN
halogenbond:HIS:97     -1
Name: 86, dtype: object

>  <hydroph_interaction:LEU:98>  (88) 
hydroph_interaction:LEU:98    NaN
hydroph_interaction:LEU:98     -1
Name: 86, dtype: object

>  <hbond:LEU:98>  (88) 
hbond:LEU:98    NaN
hbond:LEU:98     -1
Name: 86, dtype: object

>  <halogenbond:LEU:98>  (88) 
halogenbond:LEU:98    NaN
halogenbond:LEU:98     -1
Name: 86, dtype: object

>  <hbond:MET:99>  (88) 
hbond:MET:99    NaN
hbond:MET:99     -1
Name: 86, dtype: object

>  <hydroph_interaction:MET:99>  (88) 
hydroph_interaction:MET:99    NaN
hydroph_interaction:MET:99     -1
Name: 86, dtype: object

>  <halogenbond:MET:99>  (88) 
halogenbond:MET:99    NaN
halogenbond:MET:99     -1
Name: 86, dtype: object

>  <hydroph_interaction:LEU:100>  (88) 
hydroph_interaction:LEU:100    NaN
hydroph_interaction:LEU:100     -1
Name: 86, dtype: object

>  <hbond:LEU:100>  (88) 
hbond:LEU:100    NaN
hbond:LEU:100     -1
Name: 86, dtype: object

>  <hbond:ALA:101>  (88) 
hbond:ALA:101    NaN
hbond:ALA:101     -1
Name: 86, dtype: object

>  <hydroph_interaction:ALA:101>  (88) 
hydroph_interaction:ALA:101    NaN
hydroph_interaction:ALA:101     -1
Name: 86, dtype: object

>  <hydroph_interaction:VAL:102>  (88) 
hydroph_interaction:VAL:102    NaN
hydroph_interaction:VAL:102     -1
Name: 86, dtype: object

>  <hbond:VAL:102>  (88) 
hbond:VAL:102    NaN
hbond:VAL:102     -1
Name: 86, dtype: object

>  <hbond:GLY:103>  (88) 
hbond:GLY:103    NaN
hbond:GLY:103     -1
Name: 86, dtype: object

>  <halogenbond:GLY:103>  (88) 
halogenbond:GLY:103    NaN
halogenbond:GLY:103     -1
Name: 86, dtype: object

>  <hbond:HIS:104>  (88) 
hbond:HIS:104    NaN
hbond:HIS:104     -1
Name: 86, dtype: object

>  <saltbridge:HIS:104>  (88) 
saltbridge:HIS:104    NaN
saltbridge:HIS:104     -1
Name: 86, dtype: object

>  <pication:HIS:104>  (88) 
pication:HIS:104    NaN
pication:HIS:104     -1
Name: 86, dtype: object

>  <halogenbond:HIS:104>  (88) 
halogenbond:HIS:104    NaN
halogenbond:HIS:104     -1
Name: 86, dtype: object

>  <hydroph_interaction:HIS:104>  (88) 
hydroph_interaction:HIS:104    NaN
hydroph_interaction:HIS:104     -1
Name: 86, dtype: object

>  <pistack:HIS:104>  (88) 
pistack:HIS:104    NaN
pistack:HIS:104     -1
Name: 86, dtype: object

>  <halogenbond:SER:105>  (88) 
halogenbond:SER:105    0.0
halogenbond:SER:105      0
Name: 86, dtype: object

>  <hbond:SER:105>  (88) 
hbond:SER:105    1.0
hbond:SER:105      1
Name: 86, dtype: object

>  <hbond:GLU:106>  (88) 
hbond:GLU:106    0.0
hbond:GLU:106      0
Name: 86, dtype: object

>  <hydroph_interaction:GLU:106>  (88) 
hydroph_interaction:GLU:106    0.0
hydroph_interaction:GLU:106      0
Name: 86, dtype: object

>  <saltbridge:GLU:106>  (88) 
saltbridge:GLU:106    NaN
saltbridge:GLU:106     -1
Name: 86, dtype: object

>  <halogenbond:GLU:106>  (88) 
halogenbond:GLU:106    NaN
halogenbond:GLU:106     -1
Name: 86, dtype: object

>  <hydroph_interaction:PRO:107>  (88) 
hydroph_interaction:PRO:107    2
hydroph_interaction:PRO:107    2
Name: 86, dtype: object

>  <hbond:PRO:107>  (88) 
hbond:PRO:107    0.0
hbond:PRO:107      0
Name: 86, dtype: object

>  <halogenbond:PRO:107>  (88) 
halogenbond:PRO:107    NaN
halogenbond:PRO:107     -1
Name: 86, dtype: object

>  <hbond:GLY:108>  (88) 
hbond:GLY:108    NaN
hbond:GLY:108     -1
Name: 86, dtype: object

>  <halogenbond:GLY:108>  (88) 
halogenbond:GLY:108    NaN
halogenbond:GLY:108     -1
Name: 86, dtype: object

>  <hbond:ASP:109>  (88) 
hbond:ASP:109    0.0
hbond:ASP:109      0
Name: 86, dtype: object

>  <hydroph_interaction:ASP:109>  (88) 
hydroph_interaction:ASP:109    NaN
hydroph_interaction:ASP:109     -1
Name: 86, dtype: object

>  <saltbridge:ASP:109>  (88) 
saltbridge:ASP:109    NaN
saltbridge:ASP:109     -1
Name: 86, dtype: object

>  <halogenbond:CYS:110>  (88) 
halogenbond:CYS:110    NaN
halogenbond:CYS:110     -1
Name: 86, dtype: object

>  <hbond:CYS:110>  (88) 
hbond:CYS:110    0.0
hbond:CYS:110      0
Name: 86, dtype: object

>  <hbond:GLY:111>  (88) 
hbond:GLY:111    NaN
hbond:GLY:111     -1
Name: 86, dtype: object

>  <hbond:GLY:112>  (88) 
hbond:GLY:112    NaN
hbond:GLY:112     -1
Name: 86, dtype: object

>  <hbond:ILE:113>  (88) 
hbond:ILE:113    NaN
hbond:ILE:113     -1
Name: 86, dtype: object

>  <hydroph_interaction:LEU:114>  (88) 
hydroph_interaction:LEU:114    NaN
hydroph_interaction:LEU:114     -1
Name: 86, dtype: object

>  <hbond:LEU:114>  (88) 
hbond:LEU:114    NaN
hbond:LEU:114     -1
Name: 86, dtype: object

>  <hydroph_interaction:ILE:123>  (88) 
hydroph_interaction:ILE:123    NaN
hydroph_interaction:ILE:123     -1
Name: 86, dtype: object

>  <hbond:ILE:123>  (88) 
hbond:ILE:123    NaN
hbond:ILE:123     -1
Name: 86, dtype: object

>  <hydroph_interaction:VAL:124>  (88) 
hydroph_interaction:VAL:124    0.0
hydroph_interaction:VAL:124      0
Name: 86, dtype: object

>  <hbond:VAL:124>  (88) 
hbond:VAL:124    NaN
hbond:VAL:124     -1
Name: 86, dtype: object

>  <halogenbond:VAL:124>  (88) 
halogenbond:VAL:124    NaN
halogenbond:VAL:124     -1
Name: 86, dtype: object

>  <hbond:SER:125>  (88) 
hbond:SER:125    0
hbond:SER:125    0
Name: 86, dtype: object

>  <halogenbond:SER:125>  (88) 
halogenbond:SER:125    NaN
halogenbond:SER:125     -1
Name: 86, dtype: object

>  <hydroph_interaction:THR:126>  (88) 
hydroph_interaction:THR:126    NaN
hydroph_interaction:THR:126     -1
Name: 86, dtype: object

>  <hbond:THR:126>  (88) 
hbond:THR:126    0.0
hbond:THR:126      0
Name: 86, dtype: object

>  <halogenbond:THR:126>  (88) 
halogenbond:THR:126    NaN
halogenbond:THR:126     -1
Name: 86, dtype: object

>  <hbond:GLY:127>  (88) 
hbond:GLY:127    0
hbond:GLY:127    0
Name: 86, dtype: object

>  <halogenbond:GLY:127>  (88) 
halogenbond:GLY:127    NaN
halogenbond:GLY:127     -1
Name: 86, dtype: object

>  <hydroph_interaction:GLY:127>  (88) 
hydroph_interaction:GLY:127    NaN
hydroph_interaction:GLY:127     -1
Name: 86, dtype: object

>  <hbond:GLY:128>  (88) 
hbond:GLY:128    NaN
hbond:GLY:128     -1
Name: 86, dtype: object

>  <halogenbond:GLY:128>  (88) 
halogenbond:GLY:128    NaN
halogenbond:GLY:128     -1
Name: 86, dtype: object

>  <hydroph_interaction:GLY:128>  (88) 
hydroph_interaction:GLY:128    NaN
hydroph_interaction:GLY:128     -1
Name: 86, dtype: object

>  <hbond:ASN:129>  (88) 
hbond:ASN:129    NaN
hbond:ASN:129     -1
Name: 86, dtype: object

>  <hydroph_interaction:ASN:129>  (88) 
hydroph_interaction:ASN:129    NaN
hydroph_interaction:ASN:129     -1
Name: 86, dtype: object

>  <halogenbond:ASN:129>  (88) 
halogenbond:ASN:129    NaN
halogenbond:ASN:129     -1
Name: 86, dtype: object

>  <hbond:GLY:130>  (88) 
hbond:GLY:130    NaN
hbond:GLY:130     -1
Name: 86, dtype: object

>  <hbond:LEU:131>  (88) 
hbond:LEU:131    NaN
hbond:LEU:131     -1
Name: 86, dtype: object

>  <hydroph_interaction:LEU:131>  (88) 
hydroph_interaction:LEU:131    NaN
hydroph_interaction:LEU:131     -1
Name: 86, dtype: object

>  <halogenbond:LEU:131>  (88) 
halogenbond:LEU:131    NaN
halogenbond:LEU:131     -1
Name: 86, dtype: object

>  <hydroph_interaction:VAL:132>  (88) 
hydroph_interaction:VAL:132    0.0
hydroph_interaction:VAL:132      0
Name: 86, dtype: object

>  <hbond:VAL:132>  (88) 
hbond:VAL:132    NaN
hbond:VAL:132     -1
Name: 86, dtype: object

>  <hbond:GLY:133>  (88) 
hbond:GLY:133    NaN
hbond:GLY:133     -1
Name: 86, dtype: object

>  <halogenbond:GLY:133>  (88) 
halogenbond:GLY:133    NaN
halogenbond:GLY:133     -1
Name: 86, dtype: object

>  <hydroph_interaction:PHE:134>  (88) 
hydroph_interaction:PHE:134    NaN
hydroph_interaction:PHE:134     -1
Name: 86, dtype: object

>  <hbond:PHE:134>  (88) 
hbond:PHE:134    NaN
hbond:PHE:134     -1
Name: 86, dtype: object

>  <pistack:PHE:134>  (88) 
pistack:PHE:134    NaN
pistack:PHE:134     -1
Name: 86, dtype: object

>  <pication:PHE:134>  (88) 
pication:PHE:134    NaN
pication:PHE:134     -1
Name: 86, dtype: object

>  <halogenbond:PHE:134>  (88) 
halogenbond:PHE:134    NaN
halogenbond:PHE:134     -1
Name: 86, dtype: object

>  <hydroph_interaction:ALA:135>  (88) 
hydroph_interaction:ALA:135    NaN
hydroph_interaction:ALA:135     -1
Name: 86, dtype: object

>  <hbond:ALA:135>  (88) 
hbond:ALA:135    NaN
hbond:ALA:135     -1
Name: 86, dtype: object

$$$$
Z4646473011
     RDKit          3D

 15 15  0  0  0  0  0  0  0  0999 V2000
   27.5048   15.4283    9.4036 C   0  0  0  0  0  0  0  0  0  0  0  0
   28.4120   14.2232    9.4640 C   0  0  0  0  0  0  0  0  0  0  0  0
   29.0776   13.9776    8.1169 C   0  0  2  0  0  0  0  0  0  0  0  0
   28.4195   12.8780    7.2846 C   0  0  0  0  0  0  0  0  0  0  0  0
   30.5504   13.6805    8.3354 C   0  0  0  0  0  0  0  0  0  0  0  0
   31.1954   13.9273    9.3457 O   0  0  0  0  0  0  0  0  0  0  0  0
   31.0353   13.0965    7.1790 O   0  0  0  0  0  0  0  0  0  0  0  0
   31.3285   11.7380    7.2533 C   0  0  0  0  0  0  0  0  0  0  0  0
   32.3440   11.2921    6.4249 C   0  0  0  0  0  0  0  0  0  0  0  0
   32.6931    9.9514    6.4291 C   0  0  0  0  0  0  0  0  0  0  0  0
   33.7973    9.4649    5.5451 C   0  0  0  0  0  0  0  0  0  0  0  0
   32.0034    9.0771    7.2740 C   0  0  0  0  0  0  0  0  0  0  0  0
   30.9890    9.5266    8.1159 C   0  0  0  0  0  0  0  0  0  0  0  0
   30.2873    8.5760    9.0218 C   0  0  0  0  0  0  0  0  0  0  0  0
   30.6472   10.8751    8.1010 C   0  0  0  0  0  0  0  0  0  0  0  0
  1  2  1  0
  2  3  1  0
  3  4  1  1
  3  5  1  0
  5  6  2  0
  5  7  1  0
  7  8  1  0
  8  9  2  0
  9 10  1  0
 10 11  1  0
 10 12  2  0
 12 13  1  0
 13 14  1  0
 13 15  2  0
 15  8  1  0
A    1
 C1 
A    2
 C2 
A    3
 C3 
A    4
 C4 
A    5
 C5 
A    6
 O1 
A    7
 O2 
A    8
 C6 
A    9
 C7 
A   10
 C8 
A   11
 C9 
A   12
 C10
A   13
 C11
A   14
 C12
A   15
 C13
M  END
>  <ref_pdb>  (89) 
Ax0310a

>  <ref_mols>  (89) 
Ax0451a,Ax0739a

>  <original SMILES>  (89) 
CC[C@H](C)C(=O)Oc1cc(C)cc(C)c1

>  <rationale>  (89) 
info halogenbond:C110+G127+D39+A86+E85+Q95+E106+E88+T126+P107+H104+Y64+C65+S87+N129+F83+R93+L131+I82+G128+P91+N19+H21+V84+G133+Y90+Y89+H97+L81+F134+L98+R20+G103+S66+S67+S7+G108+R38+V124+M99+S36; hbond:S87+P107+Q95+T126+C110+D109+E85+G108+G103+G128+G130+L131+N129+N19+H104+R68+V124+R93+P91+F83+S67+S7+S66+G112+G133+V132+R20+Y89+S77+A135+Y63+A92+A101+M99+F134+L100+I82+Y64+S36+L98+V84+L81+Y94+S80+R38+S37+V102+G8+I123+G111+I113+L114+C65+L22+S96; hydroph_interaction:V124+Y90+Y89+H21+P107+L22+D109+N129+N19+L40+I123+A135+Q95+I82+L100+L98+L131+F83+R93+V132+Y63+F134+H104+R20+A86+V74+P91+A101+F76+M99+L114+A92+Y94+R68+Y72+Y64+V18+V102+W28+G127+G128+L81; pication:H104+R93+Y63+F134+Y90+R68+F83+R20; pistack:H21+Y89+Y90+H104+F134+Y63+F83+Y94; saltbridge:D39+H21+R93+H104+E106+D109+E85+E88+R68+R20; 

>  <intxn_cluster>  (89) 
-1

>  <intxn_cluster_rank>  (89) 
-1

>  <N_interactions>  (89) 
6

>  <∆∆G>  (89) 
-13.728619

>  <$/mg>  (89) 
163.0

>  <comRMSD>  (89) 
0.923474

>  <N_rotatable_bonds>  (89) 
7

>  <deep_P1_sidechain>  (89) 
nan

>  <farthest_distance_to_substrate>  (89) 
2.663289

>  <hbond:SER:7>  (89) 
hbond:SER:7    NaN
hbond:SER:7     -1
Name: 87, dtype: object

>  <halogenbond:SER:7>  (89) 
halogenbond:SER:7    NaN
halogenbond:SER:7     -1
Name: 87, dtype: object

>  <hbond:GLY:8>  (89) 
hbond:GLY:8    NaN
hbond:GLY:8     -1
Name: 87, dtype: object

>  <hydroph_interaction:VAL:18>  (89) 
hydroph_interaction:VAL:18    NaN
hydroph_interaction:VAL:18     -1
Name: 87, dtype: object

>  <hbond:ASN:19>  (89) 
hbond:ASN:19    NaN
hbond:ASN:19     -1
Name: 87, dtype: object

>  <hydroph_interaction:ASN:19>  (89) 
hydroph_interaction:ASN:19    NaN
hydroph_interaction:ASN:19     -1
Name: 87, dtype: object

>  <halogenbond:ASN:19>  (89) 
halogenbond:ASN:19    NaN
halogenbond:ASN:19     -1
Name: 87, dtype: object

>  <hbond:ARG:20>  (89) 
hbond:ARG:20    NaN
hbond:ARG:20     -1
Name: 87, dtype: object

>  <hydroph_interaction:ARG:20>  (89) 
hydroph_interaction:ARG:20    NaN
hydroph_interaction:ARG:20     -1
Name: 87, dtype: object

>  <saltbridge:ARG:20>  (89) 
saltbridge:ARG:20    NaN
saltbridge:ARG:20     -1
Name: 87, dtype: object

>  <halogenbond:ARG:20>  (89) 
halogenbond:ARG:20    NaN
halogenbond:ARG:20     -1
Name: 87, dtype: object

>  <pication:ARG:20>  (89) 
pication:ARG:20    NaN
pication:ARG:20     -1
Name: 87, dtype: object

>  <hbond:HIS:21>  (89) 
hbond:HIS:21    0.0
hbond:HIS:21      0
Name: 87, dtype: object

>  <hydroph_interaction:HIS:21>  (89) 
hydroph_interaction:HIS:21    1.0
hydroph_interaction:HIS:21      1
Name: 87, dtype: object

>  <pistack:HIS:21>  (89) 
pistack:HIS:21    NaN
pistack:HIS:21     -1
Name: 87, dtype: object

>  <pication:HIS:21>  (89) 
pication:HIS:21    0.0
pication:HIS:21      0
Name: 87, dtype: object

>  <saltbridge:HIS:21>  (89) 
saltbridge:HIS:21    NaN
saltbridge:HIS:21     -1
Name: 87, dtype: object

>  <halogenbond:HIS:21>  (89) 
halogenbond:HIS:21    NaN
halogenbond:HIS:21     -1
Name: 87, dtype: object

>  <hydroph_interaction:LEU:22>  (89) 
hydroph_interaction:LEU:22    NaN
hydroph_interaction:LEU:22     -1
Name: 87, dtype: object

>  <hbond:LEU:22>  (89) 
hbond:LEU:22    NaN
hbond:LEU:22     -1
Name: 87, dtype: object

>  <hydroph_interaction:TRP:28>  (89) 
hydroph_interaction:TRP:28    NaN
hydroph_interaction:TRP:28     -1
Name: 87, dtype: object

>  <hbond:SER:36>  (89) 
hbond:SER:36    NaN
hbond:SER:36     -1
Name: 87, dtype: object

>  <halogenbond:SER:36>  (89) 
halogenbond:SER:36    NaN
halogenbond:SER:36     -1
Name: 87, dtype: object

>  <hbond:SER:37>  (89) 
hbond:SER:37    NaN
hbond:SER:37     -1
Name: 87, dtype: object

>  <hbond:ARG:38>  (89) 
hbond:ARG:38    NaN
hbond:ARG:38     -1
Name: 87, dtype: object

>  <halogenbond:ARG:38>  (89) 
halogenbond:ARG:38    NaN
halogenbond:ARG:38     -1
Name: 87, dtype: object

>  <saltbridge:ASP:39>  (89) 
saltbridge:ASP:39    NaN
saltbridge:ASP:39     -1
Name: 87, dtype: object

>  <halogenbond:ASP:39>  (89) 
halogenbond:ASP:39    NaN
halogenbond:ASP:39     -1
Name: 87, dtype: object

>  <hbond:ASP:39>  (89) 
hbond:ASP:39    0.0
hbond:ASP:39      0
Name: 87, dtype: object

>  <hydroph_interaction:ASP:39>  (89) 
hydroph_interaction:ASP:39    0.0
hydroph_interaction:ASP:39      0
Name: 87, dtype: object

>  <hydroph_interaction:LEU:40>  (89) 
hydroph_interaction:LEU:40    NaN
hydroph_interaction:LEU:40     -1
Name: 87, dtype: object

>  <hydroph_interaction:TYR:63>  (89) 
hydroph_interaction:TYR:63    NaN
hydroph_interaction:TYR:63     -1
Name: 87, dtype: object

>  <hbond:TYR:63>  (89) 
hbond:TYR:63    NaN
hbond:TYR:63     -1
Name: 87, dtype: object

>  <pistack:TYR:63>  (89) 
pistack:TYR:63    NaN
pistack:TYR:63     -1
Name: 87, dtype: object

>  <pication:TYR:63>  (89) 
pication:TYR:63    NaN
pication:TYR:63     -1
Name: 87, dtype: object

>  <halogenbond:TYR:64>  (89) 
halogenbond:TYR:64    NaN
halogenbond:TYR:64     -1
Name: 87, dtype: object

>  <hbond:TYR:64>  (89) 
hbond:TYR:64    NaN
hbond:TYR:64     -1
Name: 87, dtype: object

>  <hydroph_interaction:TYR:64>  (89) 
hydroph_interaction:TYR:64    NaN
hydroph_interaction:TYR:64     -1
Name: 87, dtype: object

>  <halogenbond:CYS:65>  (89) 
halogenbond:CYS:65    NaN
halogenbond:CYS:65     -1
Name: 87, dtype: object

>  <hbond:CYS:65>  (89) 
hbond:CYS:65    NaN
hbond:CYS:65     -1
Name: 87, dtype: object

>  <hbond:SER:66>  (89) 
hbond:SER:66    NaN
hbond:SER:66     -1
Name: 87, dtype: object

>  <halogenbond:SER:66>  (89) 
halogenbond:SER:66    NaN
halogenbond:SER:66     -1
Name: 87, dtype: object

>  <hbond:SER:67>  (89) 
hbond:SER:67    NaN
hbond:SER:67     -1
Name: 87, dtype: object

>  <halogenbond:SER:67>  (89) 
halogenbond:SER:67    NaN
halogenbond:SER:67     -1
Name: 87, dtype: object

>  <hbond:ARG:68>  (89) 
hbond:ARG:68    NaN
hbond:ARG:68     -1
Name: 87, dtype: object

>  <saltbridge:ARG:68>  (89) 
saltbridge:ARG:68    NaN
saltbridge:ARG:68     -1
Name: 87, dtype: object

>  <hydroph_interaction:ARG:68>  (89) 
hydroph_interaction:ARG:68    NaN
hydroph_interaction:ARG:68     -1
Name: 87, dtype: object

>  <pication:ARG:68>  (89) 
pication:ARG:68    NaN
pication:ARG:68     -1
Name: 87, dtype: object

>  <hydroph_interaction:TYR:72>  (89) 
hydroph_interaction:TYR:72    NaN
hydroph_interaction:TYR:72     -1
Name: 87, dtype: object

>  <hydroph_interaction:VAL:74>  (89) 
hydroph_interaction:VAL:74    NaN
hydroph_interaction:VAL:74     -1
Name: 87, dtype: object

>  <hydroph_interaction:PHE:76>  (89) 
hydroph_interaction:PHE:76    NaN
hydroph_interaction:PHE:76     -1
Name: 87, dtype: object

>  <hbond:SER:77>  (89) 
hbond:SER:77    NaN
hbond:SER:77     -1
Name: 87, dtype: object

>  <hbond:SER:80>  (89) 
hbond:SER:80    NaN
hbond:SER:80     -1
Name: 87, dtype: object

>  <hbond:LEU:81>  (89) 
hbond:LEU:81    NaN
hbond:LEU:81     -1
Name: 87, dtype: object

>  <halogenbond:LEU:81>  (89) 
halogenbond:LEU:81    NaN
halogenbond:LEU:81     -1
Name: 87, dtype: object

>  <hydroph_interaction:LEU:81>  (89) 
hydroph_interaction:LEU:81    NaN
hydroph_interaction:LEU:81     -1
Name: 87, dtype: object

>  <hydroph_interaction:ILE:82>  (89) 
hydroph_interaction:ILE:82    NaN
hydroph_interaction:ILE:82     -1
Name: 87, dtype: object

>  <halogenbond:ILE:82>  (89) 
halogenbond:ILE:82    NaN
halogenbond:ILE:82     -1
Name: 87, dtype: object

>  <hbond:ILE:82>  (89) 
hbond:ILE:82    NaN
hbond:ILE:82     -1
Name: 87, dtype: object

>  <hbond:PHE:83>  (89) 
hbond:PHE:83    NaN
hbond:PHE:83     -1
Name: 87, dtype: object

>  <hydroph_interaction:PHE:83>  (89) 
hydroph_interaction:PHE:83    NaN
hydroph_interaction:PHE:83     -1
Name: 87, dtype: object

>  <halogenbond:PHE:83>  (89) 
halogenbond:PHE:83    NaN
halogenbond:PHE:83     -1
Name: 87, dtype: object

>  <pistack:PHE:83>  (89) 
pistack:PHE:83    NaN
pistack:PHE:83     -1
Name: 87, dtype: object

>  <pication:PHE:83>  (89) 
pication:PHE:83    NaN
pication:PHE:83     -1
Name: 87, dtype: object

>  <hydroph_interaction:VAL:84>  (89) 
hydroph_interaction:VAL:84    0.0
hydroph_interaction:VAL:84      0
Name: 87, dtype: object

>  <halogenbond:VAL:84>  (89) 
halogenbond:VAL:84    NaN
halogenbond:VAL:84     -1
Name: 87, dtype: object

>  <hbond:VAL:84>  (89) 
hbond:VAL:84    NaN
hbond:VAL:84     -1
Name: 87, dtype: object

>  <hydroph_interaction:GLU:85>  (89) 
hydroph_interaction:GLU:85    0.0
hydroph_interaction:GLU:85      0
Name: 87, dtype: object

>  <hbond:GLU:85>  (89) 
hbond:GLU:85    NaN
hbond:GLU:85     -1
Name: 87, dtype: object

>  <halogenbond:GLU:85>  (89) 
halogenbond:GLU:85    NaN
halogenbond:GLU:85     -1
Name: 87, dtype: object

>  <saltbridge:GLU:85>  (89) 
saltbridge:GLU:85    NaN
saltbridge:GLU:85     -1
Name: 87, dtype: object

>  <halogenbond:ALA:86>  (89) 
halogenbond:ALA:86    NaN
halogenbond:ALA:86     -1
Name: 87, dtype: object

>  <hbond:ALA:86>  (89) 
hbond:ALA:86    0.0
hbond:ALA:86      0
Name: 87, dtype: object

>  <hydroph_interaction:ALA:86>  (89) 
hydroph_interaction:ALA:86    NaN
hydroph_interaction:ALA:86     -1
Name: 87, dtype: object

>  <hbond:SER:87>  (89) 
hbond:SER:87    1
hbond:SER:87    1
Name: 87, dtype: object

>  <halogenbond:SER:87>  (89) 
halogenbond:SER:87    NaN
halogenbond:SER:87     -1
Name: 87, dtype: object

>  <hbond:GLU:88>  (89) 
hbond:GLU:88    0.0
hbond:GLU:88      0
Name: 87, dtype: object

>  <hydroph_interaction:GLU:88>  (89) 
hydroph_interaction:GLU:88    0.0
hydroph_interaction:GLU:88      0
Name: 87, dtype: object

>  <halogenbond:GLU:88>  (89) 
halogenbond:GLU:88    NaN
halogenbond:GLU:88     -1
Name: 87, dtype: object

>  <saltbridge:GLU:88>  (89) 
saltbridge:GLU:88    NaN
saltbridge:GLU:88     -1
Name: 87, dtype: object

>  <hydroph_interaction:TYR:89>  (89) 
hydroph_interaction:TYR:89    1.0
hydroph_interaction:TYR:89      1
Name: 87, dtype: object

>  <pistack:TYR:89>  (89) 
pistack:TYR:89    NaN
pistack:TYR:89     -1
Name: 87, dtype: object

>  <hbond:TYR:89>  (89) 
hbond:TYR:89    NaN
hbond:TYR:89     -1
Name: 87, dtype: object

>  <halogenbond:TYR:89>  (89) 
halogenbond:TYR:89    NaN
halogenbond:TYR:89     -1
Name: 87, dtype: object

>  <hydroph_interaction:TYR:90>  (89) 
hydroph_interaction:TYR:90    1.0
hydroph_interaction:TYR:90      1
Name: 87, dtype: object

>  <hbond:TYR:90>  (89) 
hbond:TYR:90    0.0
hbond:TYR:90      0
Name: 87, dtype: object

>  <pistack:TYR:90>  (89) 
pistack:TYR:90    NaN
pistack:TYR:90     -1
Name: 87, dtype: object

>  <halogenbond:TYR:90>  (89) 
halogenbond:TYR:90    NaN
halogenbond:TYR:90     -1
Name: 87, dtype: object

>  <pication:TYR:90>  (89) 
pication:TYR:90    NaN
pication:TYR:90     -1
Name: 87, dtype: object

>  <hbond:PRO:91>  (89) 
hbond:PRO:91    NaN
hbond:PRO:91     -1
Name: 87, dtype: object

>  <hydroph_interaction:PRO:91>  (89) 
hydroph_interaction:PRO:91    NaN
hydroph_interaction:PRO:91     -1
Name: 87, dtype: object

>  <halogenbond:PRO:91>  (89) 
halogenbond:PRO:91    NaN
halogenbond:PRO:91     -1
Name: 87, dtype: object

>  <hbond:ALA:92>  (89) 
hbond:ALA:92    NaN
hbond:ALA:92     -1
Name: 87, dtype: object

>  <hydroph_interaction:ALA:92>  (89) 
hydroph_interaction:ALA:92    NaN
hydroph_interaction:ALA:92     -1
Name: 87, dtype: object

>  <saltbridge:ARG:93>  (89) 
saltbridge:ARG:93    NaN
saltbridge:ARG:93     -1
Name: 87, dtype: object

>  <hbond:ARG:93>  (89) 
hbond:ARG:93    NaN
hbond:ARG:93     -1
Name: 87, dtype: object

>  <hydroph_interaction:ARG:93>  (89) 
hydroph_interaction:ARG:93    NaN
hydroph_interaction:ARG:93     -1
Name: 87, dtype: object

>  <halogenbond:ARG:93>  (89) 
halogenbond:ARG:93    NaN
halogenbond:ARG:93     -1
Name: 87, dtype: object

>  <pication:ARG:93>  (89) 
pication:ARG:93    NaN
pication:ARG:93     -1
Name: 87, dtype: object

>  <hydroph_interaction:TYR:94>  (89) 
hydroph_interaction:TYR:94    NaN
hydroph_interaction:TYR:94     -1
Name: 87, dtype: object

>  <pistack:TYR:94>  (89) 
pistack:TYR:94    NaN
pistack:TYR:94     -1
Name: 87, dtype: object

>  <hbond:TYR:94>  (89) 
hbond:TYR:94    NaN
hbond:TYR:94     -1
Name: 87, dtype: object

>  <hbond:GLN:95>  (89) 
hbond:GLN:95    NaN
hbond:GLN:95     -1
Name: 87, dtype: object

>  <hydroph_interaction:GLN:95>  (89) 
hydroph_interaction:GLN:95    NaN
hydroph_interaction:GLN:95     -1
Name: 87, dtype: object

>  <halogenbond:GLN:95>  (89) 
halogenbond:GLN:95    NaN
halogenbond:GLN:95     -1
Name: 87, dtype: object

>  <hbond:SER:96>  (89) 
hbond:SER:96    NaN
hbond:SER:96     -1
Name: 87, dtype: object

>  <halogenbond:HIS:97>  (89) 
halogenbond:HIS:97    NaN
halogenbond:HIS:97     -1
Name: 87, dtype: object

>  <hydroph_interaction:LEU:98>  (89) 
hydroph_interaction:LEU:98    NaN
hydroph_interaction:LEU:98     -1
Name: 87, dtype: object

>  <hbond:LEU:98>  (89) 
hbond:LEU:98    NaN
hbond:LEU:98     -1
Name: 87, dtype: object

>  <halogenbond:LEU:98>  (89) 
halogenbond:LEU:98    NaN
halogenbond:LEU:98     -1
Name: 87, dtype: object

>  <hbond:MET:99>  (89) 
hbond:MET:99    NaN
hbond:MET:99     -1
Name: 87, dtype: object

>  <hydroph_interaction:MET:99>  (89) 
hydroph_interaction:MET:99    NaN
hydroph_interaction:MET:99     -1
Name: 87, dtype: object

>  <halogenbond:MET:99>  (89) 
halogenbond:MET:99    NaN
halogenbond:MET:99     -1
Name: 87, dtype: object

>  <hydroph_interaction:LEU:100>  (89) 
hydroph_interaction:LEU:100    NaN
hydroph_interaction:LEU:100     -1
Name: 87, dtype: object

>  <hbond:LEU:100>  (89) 
hbond:LEU:100    NaN
hbond:LEU:100     -1
Name: 87, dtype: object

>  <hbond:ALA:101>  (89) 
hbond:ALA:101    NaN
hbond:ALA:101     -1
Name: 87, dtype: object

>  <hydroph_interaction:ALA:101>  (89) 
hydroph_interaction:ALA:101    NaN
hydroph_interaction:ALA:101     -1
Name: 87, dtype: object

>  <hydroph_interaction:VAL:102>  (89) 
hydroph_interaction:VAL:102    NaN
hydroph_interaction:VAL:102     -1
Name: 87, dtype: object

>  <hbond:VAL:102>  (89) 
hbond:VAL:102    NaN
hbond:VAL:102     -1
Name: 87, dtype: object

>  <hbond:GLY:103>  (89) 
hbond:GLY:103    NaN
hbond:GLY:103     -1
Name: 87, dtype: object

>  <halogenbond:GLY:103>  (89) 
halogenbond:GLY:103    NaN
halogenbond:GLY:103     -1
Name: 87, dtype: object

>  <hbond:HIS:104>  (89) 
hbond:HIS:104    NaN
hbond:HIS:104     -1
Name: 87, dtype: object

>  <saltbridge:HIS:104>  (89) 
saltbridge:HIS:104    NaN
saltbridge:HIS:104     -1
Name: 87, dtype: object

>  <pication:HIS:104>  (89) 
pication:HIS:104    NaN
pication:HIS:104     -1
Name: 87, dtype: object

>  <halogenbond:HIS:104>  (89) 
halogenbond:HIS:104    NaN
halogenbond:HIS:104     -1
Name: 87, dtype: object

>  <hydroph_interaction:HIS:104>  (89) 
hydroph_interaction:HIS:104    NaN
hydroph_interaction:HIS:104     -1
Name: 87, dtype: object

>  <pistack:HIS:104>  (89) 
pistack:HIS:104    NaN
pistack:HIS:104     -1
Name: 87, dtype: object

>  <halogenbond:SER:105>  (89) 
halogenbond:SER:105    0.0
halogenbond:SER:105      0
Name: 87, dtype: object

>  <hbond:SER:105>  (89) 
hbond:SER:105    0.0
hbond:SER:105      0
Name: 87, dtype: object

>  <hbond:GLU:106>  (89) 
hbond:GLU:106    0.0
hbond:GLU:106      0
Name: 87, dtype: object

>  <hydroph_interaction:GLU:106>  (89) 
hydroph_interaction:GLU:106    0.0
hydroph_interaction:GLU:106      0
Name: 87, dtype: object

>  <saltbridge:GLU:106>  (89) 
saltbridge:GLU:106    NaN
saltbridge:GLU:106     -1
Name: 87, dtype: object

>  <halogenbond:GLU:106>  (89) 
halogenbond:GLU:106    NaN
halogenbond:GLU:106     -1
Name: 87, dtype: object

>  <hydroph_interaction:PRO:107>  (89) 
hydroph_interaction:PRO:107    1
hydroph_interaction:PRO:107    1
Name: 87, dtype: object

>  <hbond:PRO:107>  (89) 
hbond:PRO:107    NaN
hbond:PRO:107     -1
Name: 87, dtype: object

>  <halogenbond:PRO:107>  (89) 
halogenbond:PRO:107    NaN
halogenbond:PRO:107     -1
Name: 87, dtype: object

>  <hbond:GLY:108>  (89) 
hbond:GLY:108    NaN
hbond:GLY:108     -1
Name: 87, dtype: object

>  <halogenbond:GLY:108>  (89) 
halogenbond:GLY:108    NaN
halogenbond:GLY:108     -1
Name: 87, dtype: object

>  <hbond:ASP:109>  (89) 
hbond:ASP:109    NaN
hbond:ASP:109     -1
Name: 87, dtype: object

>  <hydroph_interaction:ASP:109>  (89) 
hydroph_interaction:ASP:109    NaN
hydroph_interaction:ASP:109     -1
Name: 87, dtype: object

>  <saltbridge:ASP:109>  (89) 
saltbridge:ASP:109    NaN
saltbridge:ASP:109     -1
Name: 87, dtype: object

>  <halogenbond:CYS:110>  (89) 
halogenbond:CYS:110    NaN
halogenbond:CYS:110     -1
Name: 87, dtype: object

>  <hbond:CYS:110>  (89) 
hbond:CYS:110    NaN
hbond:CYS:110     -1
Name: 87, dtype: object

>  <hbond:GLY:111>  (89) 
hbond:GLY:111    NaN
hbond:GLY:111     -1
Name: 87, dtype: object

>  <hbond:GLY:112>  (89) 
hbond:GLY:112    NaN
hbond:GLY:112     -1
Name: 87, dtype: object

>  <hbond:ILE:113>  (89) 
hbond:ILE:113    NaN
hbond:ILE:113     -1
Name: 87, dtype: object

>  <hydroph_interaction:LEU:114>  (89) 
hydroph_interaction:LEU:114    NaN
hydroph_interaction:LEU:114     -1
Name: 87, dtype: object

>  <hbond:LEU:114>  (89) 
hbond:LEU:114    NaN
hbond:LEU:114     -1
Name: 87, dtype: object

>  <hydroph_interaction:ILE:123>  (89) 
hydroph_interaction:ILE:123    NaN
hydroph_interaction:ILE:123     -1
Name: 87, dtype: object

>  <hbond:ILE:123>  (89) 
hbond:ILE:123    NaN
hbond:ILE:123     -1
Name: 87, dtype: object

>  <hydroph_interaction:VAL:124>  (89) 
hydroph_interaction:VAL:124    1.0
hydroph_interaction:VAL:124      1
Name: 87, dtype: object

>  <hbond:VAL:124>  (89) 
hbond:VAL:124    NaN
hbond:VAL:124     -1
Name: 87, dtype: object

>  <halogenbond:VAL:124>  (89) 
halogenbond:VAL:124    NaN
halogenbond:VAL:124     -1
Name: 87, dtype: object

>  <hbond:SER:125>  (89) 
hbond:SER:125    0
hbond:SER:125    0
Name: 87, dtype: object

>  <halogenbond:SER:125>  (89) 
halogenbond:SER:125    0.0
halogenbond:SER:125      0
Name: 87, dtype: object

>  <hydroph_interaction:THR:126>  (89) 
hydroph_interaction:THR:126    0.0
hydroph_interaction:THR:126      0
Name: 87, dtype: object

>  <hbond:THR:126>  (89) 
hbond:THR:126    NaN
hbond:THR:126     -1
Name: 87, dtype: object

>  <halogenbond:THR:126>  (89) 
halogenbond:THR:126    NaN
halogenbond:THR:126     -1
Name: 87, dtype: object

>  <hbond:GLY:127>  (89) 
hbond:GLY:127    0
hbond:GLY:127    0
Name: 87, dtype: object

>  <halogenbond:GLY:127>  (89) 
halogenbond:GLY:127    NaN
halogenbond:GLY:127     -1
Name: 87, dtype: object

>  <hydroph_interaction:GLY:127>  (89) 
hydroph_interaction:GLY:127    NaN
hydroph_interaction:GLY:127     -1
Name: 87, dtype: object

>  <hbond:GLY:128>  (89) 
hbond:GLY:128    NaN
hbond:GLY:128     -1
Name: 87, dtype: object

>  <halogenbond:GLY:128>  (89) 
halogenbond:GLY:128    NaN
halogenbond:GLY:128     -1
Name: 87, dtype: object

>  <hydroph_interaction:GLY:128>  (89) 
hydroph_interaction:GLY:128    NaN
hydroph_interaction:GLY:128     -1
Name: 87, dtype: object

>  <hbond:ASN:129>  (89) 
hbond:ASN:129    NaN
hbond:ASN:129     -1
Name: 87, dtype: object

>  <hydroph_interaction:ASN:129>  (89) 
hydroph_interaction:ASN:129    NaN
hydroph_interaction:ASN:129     -1
Name: 87, dtype: object

>  <halogenbond:ASN:129>  (89) 
halogenbond:ASN:129    NaN
halogenbond:ASN:129     -1
Name: 87, dtype: object

>  <hbond:GLY:130>  (89) 
hbond:GLY:130    NaN
hbond:GLY:130     -1
Name: 87, dtype: object

>  <hbond:LEU:131>  (89) 
hbond:LEU:131    NaN
hbond:LEU:131     -1
Name: 87, dtype: object

>  <hydroph_interaction:LEU:131>  (89) 
hydroph_interaction:LEU:131    NaN
hydroph_interaction:LEU:131     -1
Name: 87, dtype: object

>  <halogenbond:LEU:131>  (89) 
halogenbond:LEU:131    NaN
halogenbond:LEU:131     -1
Name: 87, dtype: object

>  <hydroph_interaction:VAL:132>  (89) 
hydroph_interaction:VAL:132    NaN
hydroph_interaction:VAL:132     -1
Name: 87, dtype: object

>  <hbond:VAL:132>  (89) 
hbond:VAL:132    NaN
hbond:VAL:132     -1
Name: 87, dtype: object

>  <hbond:GLY:133>  (89) 
hbond:GLY:133    NaN
hbond:GLY:133     -1
Name: 87, dtype: object

>  <halogenbond:GLY:133>  (89) 
halogenbond:GLY:133    NaN
halogenbond:GLY:133     -1
Name: 87, dtype: object

>  <hydroph_interaction:PHE:134>  (89) 
hydroph_interaction:PHE:134    NaN
hydroph_interaction:PHE:134     -1
Name: 87, dtype: object

>  <hbond:PHE:134>  (89) 
hbond:PHE:134    NaN
hbond:PHE:134     -1
Name: 87, dtype: object

>  <pistack:PHE:134>  (89) 
pistack:PHE:134    NaN
pistack:PHE:134     -1
Name: 87, dtype: object

>  <pication:PHE:134>  (89) 
pication:PHE:134    NaN
pication:PHE:134     -1
Name: 87, dtype: object

>  <halogenbond:PHE:134>  (89) 
halogenbond:PHE:134    NaN
halogenbond:PHE:134     -1
Name: 87, dtype: object

>  <hydroph_interaction:ALA:135>  (89) 
hydroph_interaction:ALA:135    NaN
hydroph_interaction:ALA:135     -1
Name: 87, dtype: object

>  <hbond:ALA:135>  (89) 
hbond:ALA:135    NaN
hbond:ALA:135     -1
Name: 87, dtype: object

$$$$
PV_002803505866
     RDKit          3D

 13 14  0  0  0  0  0  0  0  0999 V2000
   28.7986   14.5587    8.4218 C   0  0  0  0  0  0  0  0  0  0  0  0
   29.3493   13.4061    7.6369 C   0  0  0  0  0  0  0  0  0  0  0  0
   28.9462   13.1365    6.3435 C   0  0  0  0  0  0  0  0  0  0  0  0
   30.2589   12.6364    8.2568 C   0  0  0  0  0  0  0  0  0  0  0  0
   30.9105   11.4990    7.7854 C   0  0  0  0  0  0  0  0  0  0  0  0
   30.5694   10.2548    8.3029 C   0  0  0  0  0  0  0  0  0  0  0  0
   31.2219    9.0297    7.8416 C   0  0  0  0  0  0  0  0  0  0  0  0
   32.2654    9.1842    6.7992 C   0  0  0  0  0  0  0  0  0  0  0  0
   32.5916   10.4327    6.3013 C   0  0  0  0  0  0  0  0  0  0  0  0
   31.9133   11.5529    6.7997 C   0  0  0  0  0  0  0  0  0  0  0  0
   32.3833   12.6756    6.1811 O   0  0  0  0  0  0  0  0  0  0  0  0
   33.3426   12.2777    5.3059 C   0  0  0  0  0  0  0  0  0  0  0  0
   33.5067   10.9160    5.3406 C   0  0  0  0  0  0  0  0  0  0  0  0
  1  2  1  0
  2  3  1  0
  2  4  2  3
  4  5  1  0
  5  6  2  0
  6  7  1  0
  7  8  2  0
  8  9  1  0
  9 10  2  0
 10 11  1  0
 11 12  1  0
 12 13  2  0
 10  5  1  0
 13  9  1  0
A    1
 C1 
A    2
 C2 
A    3
 C3 
A    4
 C4 
A    5
 C5 
A    6
 C6 
A    7
 C7 
A    8
 C8 
A    9
 C9 
A   10
 C10
A   11
 O1 
A   12
 C11
A   13
 C12
M  END
>  <ref_pdb>  (90) 
Ax0310a

>  <ref_mols>  (90) 
Ax0554a,Ax0739a

>  <original SMILES>  (90) 
CC(C)=Cc1cccc2ccoc12

>  <rationale>  (90) 
info halogenbond:C110+G127+D39+A86+S125+E85+Q95+E106+E88+T126+P107+H104+Y64+C65+S87+N129+F83+R93+L131+I82+G128+P91+N19+H21+V84+G133+Y90+Y89+H97+L81+F134+L98+R20+G103+S66+S67+S7+G108+R38+V124+M99+S36; hbond:Y90+Q95+D39+A86+E85+G108+G103+G128+G130+L131+N129+N19+H104+R68+V124+R93+P91+F83+S67+S7+S66+G112+G133+V132+R20+Y89+S77+A135+Y63+A92+A101+M99+F134+L100+I82+Y64+S36+L98+V84+L81+Y94+S80+R38+S37+V102+G8+I123+G111+I113+L114+C65+L22+S96; hydroph_interaction:V84+T126+H21+P107+L22+E85+E106+N129+D39+N19+L40+I123+A135+Q95+I82+L100+L98+L131+F83+R93+V132+Y63+F134+H104+R20+A86+V74+P91+A101+F76+M99+L114+A92+Y94+R68+Y72+Y64+V18+V102+W28+G127+G128+L81; pication:H21+H104+R93+Y63+F134+Y90+R68+F83+R20; pistack:H21+Y89+Y90+H104+F134+Y63+F83+Y94; saltbridge:D39+R93+H104+E106+D109+E85+E88+R68+R20; 

>  <intxn_cluster>  (90) 
-1

>  <intxn_cluster_rank>  (90) 
-1

>  <N_interactions>  (90) 
2

>  <∆∆G>  (90) 
-9.723362

>  <$/mg>  (90) 
163.0

>  <comRMSD>  (90) 
0.740888

>  <N_rotatable_bonds>  (90) 
3

>  <deep_P1_sidechain>  (90) 
nan

>  <farthest_distance_to_substrate>  (90) 
2.380422

>  <hbond:SER:7>  (90) 
hbond:SER:7    NaN
hbond:SER:7     -1
Name: 88, dtype: object

>  <halogenbond:SER:7>  (90) 
halogenbond:SER:7    NaN
halogenbond:SER:7     -1
Name: 88, dtype: object

>  <hbond:GLY:8>  (90) 
hbond:GLY:8    NaN
hbond:GLY:8     -1
Name: 88, dtype: object

>  <hydroph_interaction:VAL:18>  (90) 
hydroph_interaction:VAL:18    NaN
hydroph_interaction:VAL:18     -1
Name: 88, dtype: object

>  <hbond:ASN:19>  (90) 
hbond:ASN:19    NaN
hbond:ASN:19     -1
Name: 88, dtype: object

>  <hydroph_interaction:ASN:19>  (90) 
hydroph_interaction:ASN:19    NaN
hydroph_interaction:ASN:19     -1
Name: 88, dtype: object

>  <halogenbond:ASN:19>  (90) 
halogenbond:ASN:19    NaN
halogenbond:ASN:19     -1
Name: 88, dtype: object

>  <hbond:ARG:20>  (90) 
hbond:ARG:20    NaN
hbond:ARG:20     -1
Name: 88, dtype: object

>  <hydroph_interaction:ARG:20>  (90) 
hydroph_interaction:ARG:20    NaN
hydroph_interaction:ARG:20     -1
Name: 88, dtype: object

>  <saltbridge:ARG:20>  (90) 
saltbridge:ARG:20    NaN
saltbridge:ARG:20     -1
Name: 88, dtype: object

>  <halogenbond:ARG:20>  (90) 
halogenbond:ARG:20    NaN
halogenbond:ARG:20     -1
Name: 88, dtype: object

>  <pication:ARG:20>  (90) 
pication:ARG:20    NaN
pication:ARG:20     -1
Name: 88, dtype: object

>  <hbond:HIS:21>  (90) 
hbond:HIS:21    0.0
hbond:HIS:21      0
Name: 88, dtype: object

>  <hydroph_interaction:HIS:21>  (90) 
hydroph_interaction:HIS:21    NaN
hydroph_interaction:HIS:21     -1
Name: 88, dtype: object

>  <pistack:HIS:21>  (90) 
pistack:HIS:21    NaN
pistack:HIS:21     -1
Name: 88, dtype: object

>  <pication:HIS:21>  (90) 
pication:HIS:21    NaN
pication:HIS:21     -1
Name: 88, dtype: object

>  <saltbridge:HIS:21>  (90) 
saltbridge:HIS:21    0.0
saltbridge:HIS:21      0
Name: 88, dtype: object

>  <halogenbond:HIS:21>  (90) 
halogenbond:HIS:21    NaN
halogenbond:HIS:21     -1
Name: 88, dtype: object

>  <hydroph_interaction:LEU:22>  (90) 
hydroph_interaction:LEU:22    NaN
hydroph_interaction:LEU:22     -1
Name: 88, dtype: object

>  <hbond:LEU:22>  (90) 
hbond:LEU:22    NaN
hbond:LEU:22     -1
Name: 88, dtype: object

>  <hydroph_interaction:TRP:28>  (90) 
hydroph_interaction:TRP:28    NaN
hydroph_interaction:TRP:28     -1
Name: 88, dtype: object

>  <hbond:SER:36>  (90) 
hbond:SER:36    NaN
hbond:SER:36     -1
Name: 88, dtype: object

>  <halogenbond:SER:36>  (90) 
halogenbond:SER:36    NaN
halogenbond:SER:36     -1
Name: 88, dtype: object

>  <hbond:SER:37>  (90) 
hbond:SER:37    NaN
hbond:SER:37     -1
Name: 88, dtype: object

>  <hbond:ARG:38>  (90) 
hbond:ARG:38    NaN
hbond:ARG:38     -1
Name: 88, dtype: object

>  <halogenbond:ARG:38>  (90) 
halogenbond:ARG:38    NaN
halogenbond:ARG:38     -1
Name: 88, dtype: object

>  <saltbridge:ASP:39>  (90) 
saltbridge:ASP:39    NaN
saltbridge:ASP:39     -1
Name: 88, dtype: object

>  <halogenbond:ASP:39>  (90) 
halogenbond:ASP:39    NaN
halogenbond:ASP:39     -1
Name: 88, dtype: object

>  <hbond:ASP:39>  (90) 
hbond:ASP:39    NaN
hbond:ASP:39     -1
Name: 88, dtype: object

>  <hydroph_interaction:ASP:39>  (90) 
hydroph_interaction:ASP:39    NaN
hydroph_interaction:ASP:39     -1
Name: 88, dtype: object

>  <hydroph_interaction:LEU:40>  (90) 
hydroph_interaction:LEU:40    NaN
hydroph_interaction:LEU:40     -1
Name: 88, dtype: object

>  <hydroph_interaction:TYR:63>  (90) 
hydroph_interaction:TYR:63    NaN
hydroph_interaction:TYR:63     -1
Name: 88, dtype: object

>  <hbond:TYR:63>  (90) 
hbond:TYR:63    NaN
hbond:TYR:63     -1
Name: 88, dtype: object

>  <pistack:TYR:63>  (90) 
pistack:TYR:63    NaN
pistack:TYR:63     -1
Name: 88, dtype: object

>  <pication:TYR:63>  (90) 
pication:TYR:63    NaN
pication:TYR:63     -1
Name: 88, dtype: object

>  <halogenbond:TYR:64>  (90) 
halogenbond:TYR:64    NaN
halogenbond:TYR:64     -1
Name: 88, dtype: object

>  <hbond:TYR:64>  (90) 
hbond:TYR:64    NaN
hbond:TYR:64     -1
Name: 88, dtype: object

>  <hydroph_interaction:TYR:64>  (90) 
hydroph_interaction:TYR:64    NaN
hydroph_interaction:TYR:64     -1
Name: 88, dtype: object

>  <halogenbond:CYS:65>  (90) 
halogenbond:CYS:65    NaN
halogenbond:CYS:65     -1
Name: 88, dtype: object

>  <hbond:CYS:65>  (90) 
hbond:CYS:65    NaN
hbond:CYS:65     -1
Name: 88, dtype: object

>  <hbond:SER:66>  (90) 
hbond:SER:66    NaN
hbond:SER:66     -1
Name: 88, dtype: object

>  <halogenbond:SER:66>  (90) 
halogenbond:SER:66    NaN
halogenbond:SER:66     -1
Name: 88, dtype: object

>  <hbond:SER:67>  (90) 
hbond:SER:67    NaN
hbond:SER:67     -1
Name: 88, dtype: object

>  <halogenbond:SER:67>  (90) 
halogenbond:SER:67    NaN
halogenbond:SER:67     -1
Name: 88, dtype: object

>  <hbond:ARG:68>  (90) 
hbond:ARG:68    NaN
hbond:ARG:68     -1
Name: 88, dtype: object

>  <saltbridge:ARG:68>  (90) 
saltbridge:ARG:68    NaN
saltbridge:ARG:68     -1
Name: 88, dtype: object

>  <hydroph_interaction:ARG:68>  (90) 
hydroph_interaction:ARG:68    NaN
hydroph_interaction:ARG:68     -1
Name: 88, dtype: object

>  <pication:ARG:68>  (90) 
pication:ARG:68    NaN
pication:ARG:68     -1
Name: 88, dtype: object

>  <hydroph_interaction:TYR:72>  (90) 
hydroph_interaction:TYR:72    NaN
hydroph_interaction:TYR:72     -1
Name: 88, dtype: object

>  <hydroph_interaction:VAL:74>  (90) 
hydroph_interaction:VAL:74    NaN
hydroph_interaction:VAL:74     -1
Name: 88, dtype: object

>  <hydroph_interaction:PHE:76>  (90) 
hydroph_interaction:PHE:76    NaN
hydroph_interaction:PHE:76     -1
Name: 88, dtype: object

>  <hbond:SER:77>  (90) 
hbond:SER:77    NaN
hbond:SER:77     -1
Name: 88, dtype: object

>  <hbond:SER:80>  (90) 
hbond:SER:80    NaN
hbond:SER:80     -1
Name: 88, dtype: object

>  <hbond:LEU:81>  (90) 
hbond:LEU:81    NaN
hbond:LEU:81     -1
Name: 88, dtype: object

>  <halogenbond:LEU:81>  (90) 
halogenbond:LEU:81    NaN
halogenbond:LEU:81     -1
Name: 88, dtype: object

>  <hydroph_interaction:LEU:81>  (90) 
hydroph_interaction:LEU:81    NaN
hydroph_interaction:LEU:81     -1
Name: 88, dtype: object

>  <hydroph_interaction:ILE:82>  (90) 
hydroph_interaction:ILE:82    NaN
hydroph_interaction:ILE:82     -1
Name: 88, dtype: object

>  <halogenbond:ILE:82>  (90) 
halogenbond:ILE:82    NaN
halogenbond:ILE:82     -1
Name: 88, dtype: object

>  <hbond:ILE:82>  (90) 
hbond:ILE:82    NaN
hbond:ILE:82     -1
Name: 88, dtype: object

>  <hbond:PHE:83>  (90) 
hbond:PHE:83    NaN
hbond:PHE:83     -1
Name: 88, dtype: object

>  <hydroph_interaction:PHE:83>  (90) 
hydroph_interaction:PHE:83    NaN
hydroph_interaction:PHE:83     -1
Name: 88, dtype: object

>  <halogenbond:PHE:83>  (90) 
halogenbond:PHE:83    NaN
halogenbond:PHE:83     -1
Name: 88, dtype: object

>  <pistack:PHE:83>  (90) 
pistack:PHE:83    NaN
pistack:PHE:83     -1
Name: 88, dtype: object

>  <pication:PHE:83>  (90) 
pication:PHE:83    NaN
pication:PHE:83     -1
Name: 88, dtype: object

>  <hydroph_interaction:VAL:84>  (90) 
hydroph_interaction:VAL:84    NaN
hydroph_interaction:VAL:84     -1
Name: 88, dtype: object

>  <halogenbond:VAL:84>  (90) 
halogenbond:VAL:84    NaN
halogenbond:VAL:84     -1
Name: 88, dtype: object

>  <hbond:VAL:84>  (90) 
hbond:VAL:84    NaN
hbond:VAL:84     -1
Name: 88, dtype: object

>  <hydroph_interaction:GLU:85>  (90) 
hydroph_interaction:GLU:85    NaN
hydroph_interaction:GLU:85     -1
Name: 88, dtype: object

>  <hbond:GLU:85>  (90) 
hbond:GLU:85    NaN
hbond:GLU:85     -1
Name: 88, dtype: object

>  <halogenbond:GLU:85>  (90) 
halogenbond:GLU:85    NaN
halogenbond:GLU:85     -1
Name: 88, dtype: object

>  <saltbridge:GLU:85>  (90) 
saltbridge:GLU:85    NaN
saltbridge:GLU:85     -1
Name: 88, dtype: object

>  <halogenbond:ALA:86>  (90) 
halogenbond:ALA:86    NaN
halogenbond:ALA:86     -1
Name: 88, dtype: object

>  <hbond:ALA:86>  (90) 
hbond:ALA:86    NaN
hbond:ALA:86     -1
Name: 88, dtype: object

>  <hydroph_interaction:ALA:86>  (90) 
hydroph_interaction:ALA:86    NaN
hydroph_interaction:ALA:86     -1
Name: 88, dtype: object

>  <hbond:SER:87>  (90) 
hbond:SER:87    0
hbond:SER:87    0
Name: 88, dtype: object

>  <halogenbond:SER:87>  (90) 
halogenbond:SER:87    NaN
halogenbond:SER:87     -1
Name: 88, dtype: object

>  <hbond:GLU:88>  (90) 
hbond:GLU:88    0.0
hbond:GLU:88      0
Name: 88, dtype: object

>  <hydroph_interaction:GLU:88>  (90) 
hydroph_interaction:GLU:88    0.0
hydroph_interaction:GLU:88      0
Name: 88, dtype: object

>  <halogenbond:GLU:88>  (90) 
halogenbond:GLU:88    NaN
halogenbond:GLU:88     -1
Name: 88, dtype: object

>  <saltbridge:GLU:88>  (90) 
saltbridge:GLU:88    NaN
saltbridge:GLU:88     -1
Name: 88, dtype: object

>  <hydroph_interaction:TYR:89>  (90) 
hydroph_interaction:TYR:89    0.0
hydroph_interaction:TYR:89      0
Name: 88, dtype: object

>  <pistack:TYR:89>  (90) 
pistack:TYR:89    NaN
pistack:TYR:89     -1
Name: 88, dtype: object

>  <hbond:TYR:89>  (90) 
hbond:TYR:89    NaN
hbond:TYR:89     -1
Name: 88, dtype: object

>  <halogenbond:TYR:89>  (90) 
halogenbond:TYR:89    NaN
halogenbond:TYR:89     -1
Name: 88, dtype: object

>  <hydroph_interaction:TYR:90>  (90) 
hydroph_interaction:TYR:90    0.0
hydroph_interaction:TYR:90      0
Name: 88, dtype: object

>  <hbond:TYR:90>  (90) 
hbond:TYR:90    NaN
hbond:TYR:90     -1
Name: 88, dtype: object

>  <pistack:TYR:90>  (90) 
pistack:TYR:90    NaN
pistack:TYR:90     -1
Name: 88, dtype: object

>  <halogenbond:TYR:90>  (90) 
halogenbond:TYR:90    NaN
halogenbond:TYR:90     -1
Name: 88, dtype: object

>  <pication:TYR:90>  (90) 
pication:TYR:90    NaN
pication:TYR:90     -1
Name: 88, dtype: object

>  <hbond:PRO:91>  (90) 
hbond:PRO:91    NaN
hbond:PRO:91     -1
Name: 88, dtype: object

>  <hydroph_interaction:PRO:91>  (90) 
hydroph_interaction:PRO:91    NaN
hydroph_interaction:PRO:91     -1
Name: 88, dtype: object

>  <halogenbond:PRO:91>  (90) 
halogenbond:PRO:91    NaN
halogenbond:PRO:91     -1
Name: 88, dtype: object

>  <hbond:ALA:92>  (90) 
hbond:ALA:92    NaN
hbond:ALA:92     -1
Name: 88, dtype: object

>  <hydroph_interaction:ALA:92>  (90) 
hydroph_interaction:ALA:92    NaN
hydroph_interaction:ALA:92     -1
Name: 88, dtype: object

>  <saltbridge:ARG:93>  (90) 
saltbridge:ARG:93    NaN
saltbridge:ARG:93     -1
Name: 88, dtype: object

>  <hbond:ARG:93>  (90) 
hbond:ARG:93    NaN
hbond:ARG:93     -1
Name: 88, dtype: object

>  <hydroph_interaction:ARG:93>  (90) 
hydroph_interaction:ARG:93    NaN
hydroph_interaction:ARG:93     -1
Name: 88, dtype: object

>  <halogenbond:ARG:93>  (90) 
halogenbond:ARG:93    NaN
halogenbond:ARG:93     -1
Name: 88, dtype: object

>  <pication:ARG:93>  (90) 
pication:ARG:93    NaN
pication:ARG:93     -1
Name: 88, dtype: object

>  <hydroph_interaction:TYR:94>  (90) 
hydroph_interaction:TYR:94    NaN
hydroph_interaction:TYR:94     -1
Name: 88, dtype: object

>  <pistack:TYR:94>  (90) 
pistack:TYR:94    NaN
pistack:TYR:94     -1
Name: 88, dtype: object

>  <hbond:TYR:94>  (90) 
hbond:TYR:94    NaN
hbond:TYR:94     -1
Name: 88, dtype: object

>  <hbond:GLN:95>  (90) 
hbond:GLN:95    NaN
hbond:GLN:95     -1
Name: 88, dtype: object

>  <hydroph_interaction:GLN:95>  (90) 
hydroph_interaction:GLN:95    NaN
hydroph_interaction:GLN:95     -1
Name: 88, dtype: object

>  <halogenbond:GLN:95>  (90) 
halogenbond:GLN:95    NaN
halogenbond:GLN:95     -1
Name: 88, dtype: object

>  <hbond:SER:96>  (90) 
hbond:SER:96    NaN
hbond:SER:96     -1
Name: 88, dtype: object

>  <halogenbond:HIS:97>  (90) 
halogenbond:HIS:97    NaN
halogenbond:HIS:97     -1
Name: 88, dtype: object

>  <hydroph_interaction:LEU:98>  (90) 
hydroph_interaction:LEU:98    NaN
hydroph_interaction:LEU:98     -1
Name: 88, dtype: object

>  <hbond:LEU:98>  (90) 
hbond:LEU:98    NaN
hbond:LEU:98     -1
Name: 88, dtype: object

>  <halogenbond:LEU:98>  (90) 
halogenbond:LEU:98    NaN
halogenbond:LEU:98     -1
Name: 88, dtype: object

>  <hbond:MET:99>  (90) 
hbond:MET:99    NaN
hbond:MET:99     -1
Name: 88, dtype: object

>  <hydroph_interaction:MET:99>  (90) 
hydroph_interaction:MET:99    NaN
hydroph_interaction:MET:99     -1
Name: 88, dtype: object

>  <halogenbond:MET:99>  (90) 
halogenbond:MET:99    NaN
halogenbond:MET:99     -1
Name: 88, dtype: object

>  <hydroph_interaction:LEU:100>  (90) 
hydroph_interaction:LEU:100    NaN
hydroph_interaction:LEU:100     -1
Name: 88, dtype: object

>  <hbond:LEU:100>  (90) 
hbond:LEU:100    NaN
hbond:LEU:100     -1
Name: 88, dtype: object

>  <hbond:ALA:101>  (90) 
hbond:ALA:101    NaN
hbond:ALA:101     -1
Name: 88, dtype: object

>  <hydroph_interaction:ALA:101>  (90) 
hydroph_interaction:ALA:101    NaN
hydroph_interaction:ALA:101     -1
Name: 88, dtype: object

>  <hydroph_interaction:VAL:102>  (90) 
hydroph_interaction:VAL:102    NaN
hydroph_interaction:VAL:102     -1
Name: 88, dtype: object

>  <hbond:VAL:102>  (90) 
hbond:VAL:102    NaN
hbond:VAL:102     -1
Name: 88, dtype: object

>  <hbond:GLY:103>  (90) 
hbond:GLY:103    NaN
hbond:GLY:103     -1
Name: 88, dtype: object

>  <halogenbond:GLY:103>  (90) 
halogenbond:GLY:103    NaN
halogenbond:GLY:103     -1
Name: 88, dtype: object

>  <hbond:HIS:104>  (90) 
hbond:HIS:104    NaN
hbond:HIS:104     -1
Name: 88, dtype: object

>  <saltbridge:HIS:104>  (90) 
saltbridge:HIS:104    NaN
saltbridge:HIS:104     -1
Name: 88, dtype: object

>  <pication:HIS:104>  (90) 
pication:HIS:104    NaN
pication:HIS:104     -1
Name: 88, dtype: object

>  <halogenbond:HIS:104>  (90) 
halogenbond:HIS:104    NaN
halogenbond:HIS:104     -1
Name: 88, dtype: object

>  <hydroph_interaction:HIS:104>  (90) 
hydroph_interaction:HIS:104    NaN
hydroph_interaction:HIS:104     -1
Name: 88, dtype: object

>  <pistack:HIS:104>  (90) 
pistack:HIS:104    NaN
pistack:HIS:104     -1
Name: 88, dtype: object

>  <halogenbond:SER:105>  (90) 
halogenbond:SER:105    0.0
halogenbond:SER:105      0
Name: 88, dtype: object

>  <hbond:SER:105>  (90) 
hbond:SER:105    0.0
hbond:SER:105      0
Name: 88, dtype: object

>  <hbond:GLU:106>  (90) 
hbond:GLU:106    0.0
hbond:GLU:106      0
Name: 88, dtype: object

>  <hydroph_interaction:GLU:106>  (90) 
hydroph_interaction:GLU:106    NaN
hydroph_interaction:GLU:106     -1
Name: 88, dtype: object

>  <saltbridge:GLU:106>  (90) 
saltbridge:GLU:106    NaN
saltbridge:GLU:106     -1
Name: 88, dtype: object

>  <halogenbond:GLU:106>  (90) 
halogenbond:GLU:106    NaN
halogenbond:GLU:106     -1
Name: 88, dtype: object

>  <hydroph_interaction:PRO:107>  (90) 
hydroph_interaction:PRO:107    2
hydroph_interaction:PRO:107    2
Name: 88, dtype: object

>  <hbond:PRO:107>  (90) 
hbond:PRO:107    0.0
hbond:PRO:107      0
Name: 88, dtype: object

>  <halogenbond:PRO:107>  (90) 
halogenbond:PRO:107    NaN
halogenbond:PRO:107     -1
Name: 88, dtype: object

>  <hbond:GLY:108>  (90) 
hbond:GLY:108    NaN
hbond:GLY:108     -1
Name: 88, dtype: object

>  <halogenbond:GLY:108>  (90) 
halogenbond:GLY:108    NaN
halogenbond:GLY:108     -1
Name: 88, dtype: object

>  <hbond:ASP:109>  (90) 
hbond:ASP:109    0.0
hbond:ASP:109      0
Name: 88, dtype: object

>  <hydroph_interaction:ASP:109>  (90) 
hydroph_interaction:ASP:109    0.0
hydroph_interaction:ASP:109      0
Name: 88, dtype: object

>  <saltbridge:ASP:109>  (90) 
saltbridge:ASP:109    NaN
saltbridge:ASP:109     -1
Name: 88, dtype: object

>  <halogenbond:CYS:110>  (90) 
halogenbond:CYS:110    NaN
halogenbond:CYS:110     -1
Name: 88, dtype: object

>  <hbond:CYS:110>  (90) 
hbond:CYS:110    0.0
hbond:CYS:110      0
Name: 88, dtype: object

>  <hbond:GLY:111>  (90) 
hbond:GLY:111    NaN
hbond:GLY:111     -1
Name: 88, dtype: object

>  <hbond:GLY:112>  (90) 
hbond:GLY:112    NaN
hbond:GLY:112     -1
Name: 88, dtype: object

>  <hbond:ILE:113>  (90) 
hbond:ILE:113    NaN
hbond:ILE:113     -1
Name: 88, dtype: object

>  <hydroph_interaction:LEU:114>  (90) 
hydroph_interaction:LEU:114    NaN
hydroph_interaction:LEU:114     -1
Name: 88, dtype: object

>  <hbond:LEU:114>  (90) 
hbond:LEU:114    NaN
hbond:LEU:114     -1
Name: 88, dtype: object

>  <hydroph_interaction:ILE:123>  (90) 
hydroph_interaction:ILE:123    NaN
hydroph_interaction:ILE:123     -1
Name: 88, dtype: object

>  <hbond:ILE:123>  (90) 
hbond:ILE:123    NaN
hbond:ILE:123     -1
Name: 88, dtype: object

>  <hydroph_interaction:VAL:124>  (90) 
hydroph_interaction:VAL:124    0.0
hydroph_interaction:VAL:124      0
Name: 88, dtype: object

>  <hbond:VAL:124>  (90) 
hbond:VAL:124    NaN
hbond:VAL:124     -1
Name: 88, dtype: object

>  <halogenbond:VAL:124>  (90) 
halogenbond:VAL:124    NaN
halogenbond:VAL:124     -1
Name: 88, dtype: object

>  <hbond:SER:125>  (90) 
hbond:SER:125    0
hbond:SER:125    0
Name: 88, dtype: object

>  <halogenbond:SER:125>  (90) 
halogenbond:SER:125    NaN
halogenbond:SER:125     -1
Name: 88, dtype: object

>  <hydroph_interaction:THR:126>  (90) 
hydroph_interaction:THR:126    NaN
hydroph_interaction:THR:126     -1
Name: 88, dtype: object

>  <hbond:THR:126>  (90) 
hbond:THR:126    0.0
hbond:THR:126      0
Name: 88, dtype: object

>  <halogenbond:THR:126>  (90) 
halogenbond:THR:126    NaN
halogenbond:THR:126     -1
Name: 88, dtype: object

>  <hbond:GLY:127>  (90) 
hbond:GLY:127    0
hbond:GLY:127    0
Name: 88, dtype: object

>  <halogenbond:GLY:127>  (90) 
halogenbond:GLY:127    NaN
halogenbond:GLY:127     -1
Name: 88, dtype: object

>  <hydroph_interaction:GLY:127>  (90) 
hydroph_interaction:GLY:127    NaN
hydroph_interaction:GLY:127     -1
Name: 88, dtype: object

>  <hbond:GLY:128>  (90) 
hbond:GLY:128    NaN
hbond:GLY:128     -1
Name: 88, dtype: object

>  <halogenbond:GLY:128>  (90) 
halogenbond:GLY:128    NaN
halogenbond:GLY:128     -1
Name: 88, dtype: object

>  <hydroph_interaction:GLY:128>  (90) 
hydroph_interaction:GLY:128    NaN
hydroph_interaction:GLY:128     -1
Name: 88, dtype: object

>  <hbond:ASN:129>  (90) 
hbond:ASN:129    NaN
hbond:ASN:129     -1
Name: 88, dtype: object

>  <hydroph_interaction:ASN:129>  (90) 
hydroph_interaction:ASN:129    NaN
hydroph_interaction:ASN:129     -1
Name: 88, dtype: object

>  <halogenbond:ASN:129>  (90) 
halogenbond:ASN:129    NaN
halogenbond:ASN:129     -1
Name: 88, dtype: object

>  <hbond:GLY:130>  (90) 
hbond:GLY:130    NaN
hbond:GLY:130     -1
Name: 88, dtype: object

>  <hbond:LEU:131>  (90) 
hbond:LEU:131    NaN
hbond:LEU:131     -1
Name: 88, dtype: object

>  <hydroph_interaction:LEU:131>  (90) 
hydroph_interaction:LEU:131    NaN
hydroph_interaction:LEU:131     -1
Name: 88, dtype: object

>  <halogenbond:LEU:131>  (90) 
halogenbond:LEU:131    NaN
halogenbond:LEU:131     -1
Name: 88, dtype: object

>  <hydroph_interaction:VAL:132>  (90) 
hydroph_interaction:VAL:132    NaN
hydroph_interaction:VAL:132     -1
Name: 88, dtype: object

>  <hbond:VAL:132>  (90) 
hbond:VAL:132    NaN
hbond:VAL:132     -1
Name: 88, dtype: object

>  <hbond:GLY:133>  (90) 
hbond:GLY:133    NaN
hbond:GLY:133     -1
Name: 88, dtype: object

>  <halogenbond:GLY:133>  (90) 
halogenbond:GLY:133    NaN
halogenbond:GLY:133     -1
Name: 88, dtype: object

>  <hydroph_interaction:PHE:134>  (90) 
hydroph_interaction:PHE:134    NaN
hydroph_interaction:PHE:134     -1
Name: 88, dtype: object

>  <hbond:PHE:134>  (90) 
hbond:PHE:134    NaN
hbond:PHE:134     -1
Name: 88, dtype: object

>  <pistack:PHE:134>  (90) 
pistack:PHE:134    NaN
pistack:PHE:134     -1
Name: 88, dtype: object

>  <pication:PHE:134>  (90) 
pication:PHE:134    NaN
pication:PHE:134     -1
Name: 88, dtype: object

>  <halogenbond:PHE:134>  (90) 
halogenbond:PHE:134    NaN
halogenbond:PHE:134     -1
Name: 88, dtype: object

>  <hydroph_interaction:ALA:135>  (90) 
hydroph_interaction:ALA:135    NaN
hydroph_interaction:ALA:135     -1
Name: 88, dtype: object

>  <hbond:ALA:135>  (90) 
hbond:ALA:135    NaN
hbond:ALA:135     -1
Name: 88, dtype: object

$$$$
Z133624838
     RDKit          3D

 13 13  0  0  0  0  0  0  0  0999 V2000
   30.2946    8.5541    8.9894 C   0  0  0  0  0  0  0  0  0  0  0  0
   30.9450    9.5854    8.1321 C   0  0  0  0  0  0  0  0  0  0  0  0
   31.9725    9.2484    7.2578 C   0  0  0  0  0  0  0  0  0  0  0  0
   32.5850   10.2330    6.4772 C   0  0  0  0  0  0  0  0  0  0  0  0
   33.6958    9.8695    5.5455 C   0  0  0  0  0  0  0  0  0  0  0  0
   32.1461   11.5594    6.5853 C   0  0  0  0  0  0  0  0  0  0  0  0
   31.1088   11.9012    7.4566 C   0  0  0  0  0  0  0  0  0  0  0  0
   30.7566   13.2396    7.4814 O   0  0  0  0  0  0  0  0  0  0  0  0
   29.4694   13.8381    8.3045 S   0  0  0  0  0  6  0  0  0  0  0  0
   28.5951   14.5389    6.9265 C   0  0  0  0  0  0  0  0  0  0  0  0
   28.6150   12.7841    8.7606 O   0  0  0  0  0  0  0  0  0  0  0  0
   29.8784   14.9413    9.1658 O   0  0  0  0  0  0  0  0  0  0  0  0
   30.5220   10.9064    8.2157 C   0  0  0  0  0  0  0  0  0  0  0  0
  1  2  1  0
  2  3  2  0
  3  4  1  0
  4  5  1  0
  4  6  2  0
  6  7  1  0
  7  8  1  0
  8  9  1  0
  9 10  1  0
  9 11  2  0
  9 12  2  0
  7 13  2  0
 13  2  1  0
A    1
 C1 
A    2
 C2 
A    3
 C3 
A    4
 C4 
A    5
 C5 
A    6
 C6 
A    7
 C7 
A    8
 O1 
A    9
 S1 
A   10
 C8 
A   11
 O2 
A   12
 O3 
A   13
 C9 
M  END
>  <ref_pdb>  (91) 
Ax0310a

>  <ref_mols>  (91) 
Ax0554a,Ax0739a

>  <original SMILES>  (91) 
Cc1cc(C)cc(OS(C)(=O)=O)c1

>  <rationale>  (91) 
info halogenbond:G127+D39+Q95+E106+E88+T126+P107+H104+Y64+C65+S87+N129+F83+R93+L131+I82+G128+P91+N19+H21+V84+G133+Y90+Y89+H97+L81+F134+L98+R20+G103+S66+S67+S7+G108+R38+V124+M99+S36; hbond:S87+S125+Y90+Q95+G108+G103+G128+G130+L131+N129+N19+H104+R68+R93+P91+F83+S67+S7+S66+G112+V132+R20+Y89+S77+A135+Y63+A92+A101+M99+F134+L100+I82+Y64+S36+L98+V84+L81+Y94+S80+R38+S37+V102+G8+I123+G111+I113+L114+C65+L22+S96; hydroph_interaction:V124+L22+E106+E88+N129+D39+N19+L40+I123+A135+Q95+I82+L100+L98+L131+F83+R93+Y63+F134+H104+R20+A86+V74+P91+A101+F76+M99+L114+A92+Y94+R68+Y72+Y64+V18+V102+W28+G127+G128+L81; pication:H104+R93+Y63+F134+Y90+R68+F83+R20; pistack:H21+Y89+Y90+H104+F134+Y63+F83+Y94; saltbridge:D39+H21+R93+H104+E106+E85+E88+R68+R20; 

>  <intxn_cluster>  (91) 
-1

>  <intxn_cluster_rank>  (91) 
-1

>  <N_interactions>  (91) 
5

>  <∆∆G>  (91) 
-11.386434

>  <$/mg>  (91) 
163.0

>  <comRMSD>  (91) 
0.907461

>  <N_rotatable_bonds>  (91) 
5

>  <deep_P1_sidechain>  (91) 
nan

>  <farthest_distance_to_substrate>  (91) 
2.280362

>  <hbond:SER:7>  (91) 
hbond:SER:7    NaN
hbond:SER:7     -1
Name: 89, dtype: object

>  <halogenbond:SER:7>  (91) 
halogenbond:SER:7    NaN
halogenbond:SER:7     -1
Name: 89, dtype: object

>  <hbond:GLY:8>  (91) 
hbond:GLY:8    NaN
hbond:GLY:8     -1
Name: 89, dtype: object

>  <hydroph_interaction:VAL:18>  (91) 
hydroph_interaction:VAL:18    NaN
hydroph_interaction:VAL:18     -1
Name: 89, dtype: object

>  <hbond:ASN:19>  (91) 
hbond:ASN:19    NaN
hbond:ASN:19     -1
Name: 89, dtype: object

>  <hydroph_interaction:ASN:19>  (91) 
hydroph_interaction:ASN:19    NaN
hydroph_interaction:ASN:19     -1
Name: 89, dtype: object

>  <halogenbond:ASN:19>  (91) 
halogenbond:ASN:19    NaN
halogenbond:ASN:19     -1
Name: 89, dtype: object

>  <hbond:ARG:20>  (91) 
hbond:ARG:20    NaN
hbond:ARG:20     -1
Name: 89, dtype: object

>  <hydroph_interaction:ARG:20>  (91) 
hydroph_interaction:ARG:20    NaN
hydroph_interaction:ARG:20     -1
Name: 89, dtype: object

>  <saltbridge:ARG:20>  (91) 
saltbridge:ARG:20    NaN
saltbridge:ARG:20     -1
Name: 89, dtype: object

>  <halogenbond:ARG:20>  (91) 
halogenbond:ARG:20    NaN
halogenbond:ARG:20     -1
Name: 89, dtype: object

>  <pication:ARG:20>  (91) 
pication:ARG:20    NaN
pication:ARG:20     -1
Name: 89, dtype: object

>  <hbond:HIS:21>  (91) 
hbond:HIS:21    0.0
hbond:HIS:21      0
Name: 89, dtype: object

>  <hydroph_interaction:HIS:21>  (91) 
hydroph_interaction:HIS:21    0.0
hydroph_interaction:HIS:21      0
Name: 89, dtype: object

>  <pistack:HIS:21>  (91) 
pistack:HIS:21    NaN
pistack:HIS:21     -1
Name: 89, dtype: object

>  <pication:HIS:21>  (91) 
pication:HIS:21    0.0
pication:HIS:21      0
Name: 89, dtype: object

>  <saltbridge:HIS:21>  (91) 
saltbridge:HIS:21    1.0
saltbridge:HIS:21      1
Name: 89, dtype: object

>  <halogenbond:HIS:21>  (91) 
halogenbond:HIS:21    NaN
halogenbond:HIS:21     -1
Name: 89, dtype: object

>  <hydroph_interaction:LEU:22>  (91) 
hydroph_interaction:LEU:22    NaN
hydroph_interaction:LEU:22     -1
Name: 89, dtype: object

>  <hbond:LEU:22>  (91) 
hbond:LEU:22    NaN
hbond:LEU:22     -1
Name: 89, dtype: object

>  <hydroph_interaction:TRP:28>  (91) 
hydroph_interaction:TRP:28    NaN
hydroph_interaction:TRP:28     -1
Name: 89, dtype: object

>  <hbond:SER:36>  (91) 
hbond:SER:36    NaN
hbond:SER:36     -1
Name: 89, dtype: object

>  <halogenbond:SER:36>  (91) 
halogenbond:SER:36    NaN
halogenbond:SER:36     -1
Name: 89, dtype: object

>  <hbond:SER:37>  (91) 
hbond:SER:37    NaN
hbond:SER:37     -1
Name: 89, dtype: object

>  <hbond:ARG:38>  (91) 
hbond:ARG:38    NaN
hbond:ARG:38     -1
Name: 89, dtype: object

>  <halogenbond:ARG:38>  (91) 
halogenbond:ARG:38    NaN
halogenbond:ARG:38     -1
Name: 89, dtype: object

>  <saltbridge:ASP:39>  (91) 
saltbridge:ASP:39    NaN
saltbridge:ASP:39     -1
Name: 89, dtype: object

>  <halogenbond:ASP:39>  (91) 
halogenbond:ASP:39    NaN
halogenbond:ASP:39     -1
Name: 89, dtype: object

>  <hbond:ASP:39>  (91) 
hbond:ASP:39    0.0
hbond:ASP:39      0
Name: 89, dtype: object

>  <hydroph_interaction:ASP:39>  (91) 
hydroph_interaction:ASP:39    NaN
hydroph_interaction:ASP:39     -1
Name: 89, dtype: object

>  <hydroph_interaction:LEU:40>  (91) 
hydroph_interaction:LEU:40    NaN
hydroph_interaction:LEU:40     -1
Name: 89, dtype: object

>  <hydroph_interaction:TYR:63>  (91) 
hydroph_interaction:TYR:63    NaN
hydroph_interaction:TYR:63     -1
Name: 89, dtype: object

>  <hbond:TYR:63>  (91) 
hbond:TYR:63    NaN
hbond:TYR:63     -1
Name: 89, dtype: object

>  <pistack:TYR:63>  (91) 
pistack:TYR:63    NaN
pistack:TYR:63     -1
Name: 89, dtype: object

>  <pication:TYR:63>  (91) 
pication:TYR:63    NaN
pication:TYR:63     -1
Name: 89, dtype: object

>  <halogenbond:TYR:64>  (91) 
halogenbond:TYR:64    NaN
halogenbond:TYR:64     -1
Name: 89, dtype: object

>  <hbond:TYR:64>  (91) 
hbond:TYR:64    NaN
hbond:TYR:64     -1
Name: 89, dtype: object

>  <hydroph_interaction:TYR:64>  (91) 
hydroph_interaction:TYR:64    NaN
hydroph_interaction:TYR:64     -1
Name: 89, dtype: object

>  <halogenbond:CYS:65>  (91) 
halogenbond:CYS:65    NaN
halogenbond:CYS:65     -1
Name: 89, dtype: object

>  <hbond:CYS:65>  (91) 
hbond:CYS:65    NaN
hbond:CYS:65     -1
Name: 89, dtype: object

>  <hbond:SER:66>  (91) 
hbond:SER:66    NaN
hbond:SER:66     -1
Name: 89, dtype: object

>  <halogenbond:SER:66>  (91) 
halogenbond:SER:66    NaN
halogenbond:SER:66     -1
Name: 89, dtype: object

>  <hbond:SER:67>  (91) 
hbond:SER:67    NaN
hbond:SER:67     -1
Name: 89, dtype: object

>  <halogenbond:SER:67>  (91) 
halogenbond:SER:67    NaN
halogenbond:SER:67     -1
Name: 89, dtype: object

>  <hbond:ARG:68>  (91) 
hbond:ARG:68    NaN
hbond:ARG:68     -1
Name: 89, dtype: object

>  <saltbridge:ARG:68>  (91) 
saltbridge:ARG:68    NaN
saltbridge:ARG:68     -1
Name: 89, dtype: object

>  <hydroph_interaction:ARG:68>  (91) 
hydroph_interaction:ARG:68    NaN
hydroph_interaction:ARG:68     -1
Name: 89, dtype: object

>  <pication:ARG:68>  (91) 
pication:ARG:68    NaN
pication:ARG:68     -1
Name: 89, dtype: object

>  <hydroph_interaction:TYR:72>  (91) 
hydroph_interaction:TYR:72    NaN
hydroph_interaction:TYR:72     -1
Name: 89, dtype: object

>  <hydroph_interaction:VAL:74>  (91) 
hydroph_interaction:VAL:74    NaN
hydroph_interaction:VAL:74     -1
Name: 89, dtype: object

>  <hydroph_interaction:PHE:76>  (91) 
hydroph_interaction:PHE:76    NaN
hydroph_interaction:PHE:76     -1
Name: 89, dtype: object

>  <hbond:SER:77>  (91) 
hbond:SER:77    NaN
hbond:SER:77     -1
Name: 89, dtype: object

>  <hbond:SER:80>  (91) 
hbond:SER:80    NaN
hbond:SER:80     -1
Name: 89, dtype: object

>  <hbond:LEU:81>  (91) 
hbond:LEU:81    NaN
hbond:LEU:81     -1
Name: 89, dtype: object

>  <halogenbond:LEU:81>  (91) 
halogenbond:LEU:81    NaN
halogenbond:LEU:81     -1
Name: 89, dtype: object

>  <hydroph_interaction:LEU:81>  (91) 
hydroph_interaction:LEU:81    NaN
hydroph_interaction:LEU:81     -1
Name: 89, dtype: object

>  <hydroph_interaction:ILE:82>  (91) 
hydroph_interaction:ILE:82    NaN
hydroph_interaction:ILE:82     -1
Name: 89, dtype: object

>  <halogenbond:ILE:82>  (91) 
halogenbond:ILE:82    NaN
halogenbond:ILE:82     -1
Name: 89, dtype: object

>  <hbond:ILE:82>  (91) 
hbond:ILE:82    NaN
hbond:ILE:82     -1
Name: 89, dtype: object

>  <hbond:PHE:83>  (91) 
hbond:PHE:83    NaN
hbond:PHE:83     -1
Name: 89, dtype: object

>  <hydroph_interaction:PHE:83>  (91) 
hydroph_interaction:PHE:83    NaN
hydroph_interaction:PHE:83     -1
Name: 89, dtype: object

>  <halogenbond:PHE:83>  (91) 
halogenbond:PHE:83    NaN
halogenbond:PHE:83     -1
Name: 89, dtype: object

>  <pistack:PHE:83>  (91) 
pistack:PHE:83    NaN
pistack:PHE:83     -1
Name: 89, dtype: object

>  <pication:PHE:83>  (91) 
pication:PHE:83    NaN
pication:PHE:83     -1
Name: 89, dtype: object

>  <hydroph_interaction:VAL:84>  (91) 
hydroph_interaction:VAL:84    0.0
hydroph_interaction:VAL:84      0
Name: 89, dtype: object

>  <halogenbond:VAL:84>  (91) 
halogenbond:VAL:84    NaN
halogenbond:VAL:84     -1
Name: 89, dtype: object

>  <hbond:VAL:84>  (91) 
hbond:VAL:84    NaN
hbond:VAL:84     -1
Name: 89, dtype: object

>  <hydroph_interaction:GLU:85>  (91) 
hydroph_interaction:GLU:85    0.0
hydroph_interaction:GLU:85      0
Name: 89, dtype: object

>  <hbond:GLU:85>  (91) 
hbond:GLU:85    0.0
hbond:GLU:85      0
Name: 89, dtype: object

>  <halogenbond:GLU:85>  (91) 
halogenbond:GLU:85    0.0
halogenbond:GLU:85      0
Name: 89, dtype: object

>  <saltbridge:GLU:85>  (91) 
saltbridge:GLU:85    NaN
saltbridge:GLU:85     -1
Name: 89, dtype: object

>  <halogenbond:ALA:86>  (91) 
halogenbond:ALA:86    0.0
halogenbond:ALA:86      0
Name: 89, dtype: object

>  <hbond:ALA:86>  (91) 
hbond:ALA:86    0.0
hbond:ALA:86      0
Name: 89, dtype: object

>  <hydroph_interaction:ALA:86>  (91) 
hydroph_interaction:ALA:86    NaN
hydroph_interaction:ALA:86     -1
Name: 89, dtype: object

>  <hbond:SER:87>  (91) 
hbond:SER:87    1
hbond:SER:87    1
Name: 89, dtype: object

>  <halogenbond:SER:87>  (91) 
halogenbond:SER:87    NaN
halogenbond:SER:87     -1
Name: 89, dtype: object

>  <hbond:GLU:88>  (91) 
hbond:GLU:88    0.0
hbond:GLU:88      0
Name: 89, dtype: object

>  <hydroph_interaction:GLU:88>  (91) 
hydroph_interaction:GLU:88    NaN
hydroph_interaction:GLU:88     -1
Name: 89, dtype: object

>  <halogenbond:GLU:88>  (91) 
halogenbond:GLU:88    NaN
halogenbond:GLU:88     -1
Name: 89, dtype: object

>  <saltbridge:GLU:88>  (91) 
saltbridge:GLU:88    NaN
saltbridge:GLU:88     -1
Name: 89, dtype: object

>  <hydroph_interaction:TYR:89>  (91) 
hydroph_interaction:TYR:89    0.0
hydroph_interaction:TYR:89      0
Name: 89, dtype: object

>  <pistack:TYR:89>  (91) 
pistack:TYR:89    NaN
pistack:TYR:89     -1
Name: 89, dtype: object

>  <hbond:TYR:89>  (91) 
hbond:TYR:89    NaN
hbond:TYR:89     -1
Name: 89, dtype: object

>  <halogenbond:TYR:89>  (91) 
halogenbond:TYR:89    NaN
halogenbond:TYR:89     -1
Name: 89, dtype: object

>  <hydroph_interaction:TYR:90>  (91) 
hydroph_interaction:TYR:90    0.0
hydroph_interaction:TYR:90      0
Name: 89, dtype: object

>  <hbond:TYR:90>  (91) 
hbond:TYR:90    NaN
hbond:TYR:90     -1
Name: 89, dtype: object

>  <pistack:TYR:90>  (91) 
pistack:TYR:90    NaN
pistack:TYR:90     -1
Name: 89, dtype: object

>  <halogenbond:TYR:90>  (91) 
halogenbond:TYR:90    NaN
halogenbond:TYR:90     -1
Name: 89, dtype: object

>  <pication:TYR:90>  (91) 
pication:TYR:90    NaN
pication:TYR:90     -1
Name: 89, dtype: object

>  <hbond:PRO:91>  (91) 
hbond:PRO:91    NaN
hbond:PRO:91     -1
Name: 89, dtype: object

>  <hydroph_interaction:PRO:91>  (91) 
hydroph_interaction:PRO:91    NaN
hydroph_interaction:PRO:91     -1
Name: 89, dtype: object

>  <halogenbond:PRO:91>  (91) 
halogenbond:PRO:91    NaN
halogenbond:PRO:91     -1
Name: 89, dtype: object

>  <hbond:ALA:92>  (91) 
hbond:ALA:92    NaN
hbond:ALA:92     -1
Name: 89, dtype: object

>  <hydroph_interaction:ALA:92>  (91) 
hydroph_interaction:ALA:92    NaN
hydroph_interaction:ALA:92     -1
Name: 89, dtype: object

>  <saltbridge:ARG:93>  (91) 
saltbridge:ARG:93    NaN
saltbridge:ARG:93     -1
Name: 89, dtype: object

>  <hbond:ARG:93>  (91) 
hbond:ARG:93    NaN
hbond:ARG:93     -1
Name: 89, dtype: object

>  <hydroph_interaction:ARG:93>  (91) 
hydroph_interaction:ARG:93    NaN
hydroph_interaction:ARG:93     -1
Name: 89, dtype: object

>  <halogenbond:ARG:93>  (91) 
halogenbond:ARG:93    NaN
halogenbond:ARG:93     -1
Name: 89, dtype: object

>  <pication:ARG:93>  (91) 
pication:ARG:93    NaN
pication:ARG:93     -1
Name: 89, dtype: object

>  <hydroph_interaction:TYR:94>  (91) 
hydroph_interaction:TYR:94    NaN
hydroph_interaction:TYR:94     -1
Name: 89, dtype: object

>  <pistack:TYR:94>  (91) 
pistack:TYR:94    NaN
pistack:TYR:94     -1
Name: 89, dtype: object

>  <hbond:TYR:94>  (91) 
hbond:TYR:94    NaN
hbond:TYR:94     -1
Name: 89, dtype: object

>  <hbond:GLN:95>  (91) 
hbond:GLN:95    NaN
hbond:GLN:95     -1
Name: 89, dtype: object

>  <hydroph_interaction:GLN:95>  (91) 
hydroph_interaction:GLN:95    NaN
hydroph_interaction:GLN:95     -1
Name: 89, dtype: object

>  <halogenbond:GLN:95>  (91) 
halogenbond:GLN:95    NaN
halogenbond:GLN:95     -1
Name: 89, dtype: object

>  <hbond:SER:96>  (91) 
hbond:SER:96    NaN
hbond:SER:96     -1
Name: 89, dtype: object

>  <halogenbond:HIS:97>  (91) 
halogenbond:HIS:97    NaN
halogenbond:HIS:97     -1
Name: 89, dtype: object

>  <hydroph_interaction:LEU:98>  (91) 
hydroph_interaction:LEU:98    NaN
hydroph_interaction:LEU:98     -1
Name: 89, dtype: object

>  <hbond:LEU:98>  (91) 
hbond:LEU:98    NaN
hbond:LEU:98     -1
Name: 89, dtype: object

>  <halogenbond:LEU:98>  (91) 
halogenbond:LEU:98    NaN
halogenbond:LEU:98     -1
Name: 89, dtype: object

>  <hbond:MET:99>  (91) 
hbond:MET:99    NaN
hbond:MET:99     -1
Name: 89, dtype: object

>  <hydroph_interaction:MET:99>  (91) 
hydroph_interaction:MET:99    NaN
hydroph_interaction:MET:99     -1
Name: 89, dtype: object

>  <halogenbond:MET:99>  (91) 
halogenbond:MET:99    NaN
halogenbond:MET:99     -1
Name: 89, dtype: object

>  <hydroph_interaction:LEU:100>  (91) 
hydroph_interaction:LEU:100    NaN
hydroph_interaction:LEU:100     -1
Name: 89, dtype: object

>  <hbond:LEU:100>  (91) 
hbond:LEU:100    NaN
hbond:LEU:100     -1
Name: 89, dtype: object

>  <hbond:ALA:101>  (91) 
hbond:ALA:101    NaN
hbond:ALA:101     -1
Name: 89, dtype: object

>  <hydroph_interaction:ALA:101>  (91) 
hydroph_interaction:ALA:101    NaN
hydroph_interaction:ALA:101     -1
Name: 89, dtype: object

>  <hydroph_interaction:VAL:102>  (91) 
hydroph_interaction:VAL:102    NaN
hydroph_interaction:VAL:102     -1
Name: 89, dtype: object

>  <hbond:VAL:102>  (91) 
hbond:VAL:102    NaN
hbond:VAL:102     -1
Name: 89, dtype: object

>  <hbond:GLY:103>  (91) 
hbond:GLY:103    NaN
hbond:GLY:103     -1
Name: 89, dtype: object

>  <halogenbond:GLY:103>  (91) 
halogenbond:GLY:103    NaN
halogenbond:GLY:103     -1
Name: 89, dtype: object

>  <hbond:HIS:104>  (91) 
hbond:HIS:104    NaN
hbond:HIS:104     -1
Name: 89, dtype: object

>  <saltbridge:HIS:104>  (91) 
saltbridge:HIS:104    NaN
saltbridge:HIS:104     -1
Name: 89, dtype: object

>  <pication:HIS:104>  (91) 
pication:HIS:104    NaN
pication:HIS:104     -1
Name: 89, dtype: object

>  <halogenbond:HIS:104>  (91) 
halogenbond:HIS:104    NaN
halogenbond:HIS:104     -1
Name: 89, dtype: object

>  <hydroph_interaction:HIS:104>  (91) 
hydroph_interaction:HIS:104    NaN
hydroph_interaction:HIS:104     -1
Name: 89, dtype: object

>  <pistack:HIS:104>  (91) 
pistack:HIS:104    NaN
pistack:HIS:104     -1
Name: 89, dtype: object

>  <halogenbond:SER:105>  (91) 
halogenbond:SER:105    0.0
halogenbond:SER:105      0
Name: 89, dtype: object

>  <hbond:SER:105>  (91) 
hbond:SER:105    0.0
hbond:SER:105      0
Name: 89, dtype: object

>  <hbond:GLU:106>  (91) 
hbond:GLU:106    0.0
hbond:GLU:106      0
Name: 89, dtype: object

>  <hydroph_interaction:GLU:106>  (91) 
hydroph_interaction:GLU:106    NaN
hydroph_interaction:GLU:106     -1
Name: 89, dtype: object

>  <saltbridge:GLU:106>  (91) 
saltbridge:GLU:106    NaN
saltbridge:GLU:106     -1
Name: 89, dtype: object

>  <halogenbond:GLU:106>  (91) 
halogenbond:GLU:106    NaN
halogenbond:GLU:106     -1
Name: 89, dtype: object

>  <hydroph_interaction:PRO:107>  (91) 
hydroph_interaction:PRO:107    0
hydroph_interaction:PRO:107    0
Name: 89, dtype: object

>  <hbond:PRO:107>  (91) 
hbond:PRO:107    0.0
hbond:PRO:107      0
Name: 89, dtype: object

>  <halogenbond:PRO:107>  (91) 
halogenbond:PRO:107    NaN
halogenbond:PRO:107     -1
Name: 89, dtype: object

>  <hbond:GLY:108>  (91) 
hbond:GLY:108    NaN
hbond:GLY:108     -1
Name: 89, dtype: object

>  <halogenbond:GLY:108>  (91) 
halogenbond:GLY:108    NaN
halogenbond:GLY:108     -1
Name: 89, dtype: object

>  <hbond:ASP:109>  (91) 
hbond:ASP:109    0.0
hbond:ASP:109      0
Name: 89, dtype: object

>  <hydroph_interaction:ASP:109>  (91) 
hydroph_interaction:ASP:109    0.0
hydroph_interaction:ASP:109      0
Name: 89, dtype: object

>  <saltbridge:ASP:109>  (91) 
saltbridge:ASP:109    0.0
saltbridge:ASP:109      0
Name: 89, dtype: object

>  <halogenbond:CYS:110>  (91) 
halogenbond:CYS:110    0.0
halogenbond:CYS:110      0
Name: 89, dtype: object

>  <hbond:CYS:110>  (91) 
hbond:CYS:110    0.0
hbond:CYS:110      0
Name: 89, dtype: object

>  <hbond:GLY:111>  (91) 
hbond:GLY:111    NaN
hbond:GLY:111     -1
Name: 89, dtype: object

>  <hbond:GLY:112>  (91) 
hbond:GLY:112    NaN
hbond:GLY:112     -1
Name: 89, dtype: object

>  <hbond:ILE:113>  (91) 
hbond:ILE:113    NaN
hbond:ILE:113     -1
Name: 89, dtype: object

>  <hydroph_interaction:LEU:114>  (91) 
hydroph_interaction:LEU:114    NaN
hydroph_interaction:LEU:114     -1
Name: 89, dtype: object

>  <hbond:LEU:114>  (91) 
hbond:LEU:114    NaN
hbond:LEU:114     -1
Name: 89, dtype: object

>  <hydroph_interaction:ILE:123>  (91) 
hydroph_interaction:ILE:123    NaN
hydroph_interaction:ILE:123     -1
Name: 89, dtype: object

>  <hbond:ILE:123>  (91) 
hbond:ILE:123    NaN
hbond:ILE:123     -1
Name: 89, dtype: object

>  <hydroph_interaction:VAL:124>  (91) 
hydroph_interaction:VAL:124    1.0
hydroph_interaction:VAL:124      1
Name: 89, dtype: object

>  <hbond:VAL:124>  (91) 
hbond:VAL:124    0.0
hbond:VAL:124      0
Name: 89, dtype: object

>  <halogenbond:VAL:124>  (91) 
halogenbond:VAL:124    NaN
halogenbond:VAL:124     -1
Name: 89, dtype: object

>  <hbond:SER:125>  (91) 
hbond:SER:125    2
hbond:SER:125    2
Name: 89, dtype: object

>  <halogenbond:SER:125>  (91) 
halogenbond:SER:125    0.0
halogenbond:SER:125      0
Name: 89, dtype: object

>  <hydroph_interaction:THR:126>  (91) 
hydroph_interaction:THR:126    0.0
hydroph_interaction:THR:126      0
Name: 89, dtype: object

>  <hbond:THR:126>  (91) 
hbond:THR:126    0.0
hbond:THR:126      0
Name: 89, dtype: object

>  <halogenbond:THR:126>  (91) 
halogenbond:THR:126    NaN
halogenbond:THR:126     -1
Name: 89, dtype: object

>  <hbond:GLY:127>  (91) 
hbond:GLY:127    0
hbond:GLY:127    0
Name: 89, dtype: object

>  <halogenbond:GLY:127>  (91) 
halogenbond:GLY:127    NaN
halogenbond:GLY:127     -1
Name: 89, dtype: object

>  <hydroph_interaction:GLY:127>  (91) 
hydroph_interaction:GLY:127    NaN
hydroph_interaction:GLY:127     -1
Name: 89, dtype: object

>  <hbond:GLY:128>  (91) 
hbond:GLY:128    NaN
hbond:GLY:128     -1
Name: 89, dtype: object

>  <halogenbond:GLY:128>  (91) 
halogenbond:GLY:128    NaN
halogenbond:GLY:128     -1
Name: 89, dtype: object

>  <hydroph_interaction:GLY:128>  (91) 
hydroph_interaction:GLY:128    NaN
hydroph_interaction:GLY:128     -1
Name: 89, dtype: object

>  <hbond:ASN:129>  (91) 
hbond:ASN:129    NaN
hbond:ASN:129     -1
Name: 89, dtype: object

>  <hydroph_interaction:ASN:129>  (91) 
hydroph_interaction:ASN:129    NaN
hydroph_interaction:ASN:129     -1
Name: 89, dtype: object

>  <halogenbond:ASN:129>  (91) 
halogenbond:ASN:129    NaN
halogenbond:ASN:129     -1
Name: 89, dtype: object

>  <hbond:GLY:130>  (91) 
hbond:GLY:130    NaN
hbond:GLY:130     -1
Name: 89, dtype: object

>  <hbond:LEU:131>  (91) 
hbond:LEU:131    NaN
hbond:LEU:131     -1
Name: 89, dtype: object

>  <hydroph_interaction:LEU:131>  (91) 
hydroph_interaction:LEU:131    NaN
hydroph_interaction:LEU:131     -1
Name: 89, dtype: object

>  <halogenbond:LEU:131>  (91) 
halogenbond:LEU:131    NaN
halogenbond:LEU:131     -1
Name: 89, dtype: object

>  <hydroph_interaction:VAL:132>  (91) 
hydroph_interaction:VAL:132    0.0
hydroph_interaction:VAL:132      0
Name: 89, dtype: object

>  <hbond:VAL:132>  (91) 
hbond:VAL:132    NaN
hbond:VAL:132     -1
Name: 89, dtype: object

>  <hbond:GLY:133>  (91) 
hbond:GLY:133    0.0
hbond:GLY:133      0
Name: 89, dtype: object

>  <halogenbond:GLY:133>  (91) 
halogenbond:GLY:133    NaN
halogenbond:GLY:133     -1
Name: 89, dtype: object

>  <hydroph_interaction:PHE:134>  (91) 
hydroph_interaction:PHE:134    NaN
hydroph_interaction:PHE:134     -1
Name: 89, dtype: object

>  <hbond:PHE:134>  (91) 
hbond:PHE:134    NaN
hbond:PHE:134     -1
Name: 89, dtype: object

>  <pistack:PHE:134>  (91) 
pistack:PHE:134    NaN
pistack:PHE:134     -1
Name: 89, dtype: object

>  <pication:PHE:134>  (91) 
pication:PHE:134    NaN
pication:PHE:134     -1
Name: 89, dtype: object

>  <halogenbond:PHE:134>  (91) 
halogenbond:PHE:134    NaN
halogenbond:PHE:134     -1
Name: 89, dtype: object

>  <hydroph_interaction:ALA:135>  (91) 
hydroph_interaction:ALA:135    NaN
hydroph_interaction:ALA:135     -1
Name: 89, dtype: object

>  <hbond:ALA:135>  (91) 
hbond:ALA:135    NaN
hbond:ALA:135     -1
Name: 89, dtype: object

$$$$
Z2511835122
     RDKit          3D

 10 10  0  0  0  0  0  0  0  0999 V2000
   29.1529   13.4096    8.2762 C   0  0  0  0  0  0  0  0  0  0  0  0
   30.5411   13.1697    7.8682 N   0  0  0  0  0  0  0  0  0  0  0  0
   31.0324   11.8465    7.6410 C   0  0  0  0  0  0  0  0  0  0  0  0
   30.4985   10.7601    8.3129 C   0  0  0  0  0  0  0  0  0  0  0  0
   30.9431    9.4502    8.1495 C   0  0  0  0  0  0  0  0  0  0  0  0
   30.3005    8.3799    8.9502 C   0  0  0  0  0  0  0  0  0  0  0  0
   31.9640    9.1794    7.2633 C   0  0  0  0  0  0  0  0  0  0  0  0
   32.5384   10.2215    6.5551 C   0  0  0  0  0  0  0  0  0  0  0  0
   32.0827   11.5309    6.7451 C   0  0  0  0  0  0  0  0  0  0  0  0
   33.0741   12.9838    5.6106 I   0  0  0  0  0  0  0  0  0  0  0  0
  1  2  1  0
  2  3  1  0
  3  4  2  0
  4  5  1  0
  5  6  1  0
  5  7  2  0
  7  8  1  0
  8  9  2  0
  9 10  1  0
  9  3  1  0
A    1
 C1 
A    2
 N1 
A    3
 C2 
A    4
 C3 
A    5
 C4 
A    6
 C5 
A    7
 C6 
A    8
 C7 
A    9
 C8 
A   10
 I1 
M  END
>  <ref_pdb>  (92) 
Ax0310a

>  <ref_mols>  (92) 
Ax0451a,Ax0739a

>  <original SMILES>  (92) 
CNc1cc(C)ccc1I

>  <rationale>  (92) 
info halogenbond:C110+D39+A86+S125+E85+Q95+E106+E88+T126+P107+H104+Y64+C65+S87+N129+F83+R93+L131+I82+G128+P91+N19+H21+V84+G133+Y90+Y89+H97+L81+F134+L98+R20+G103+S66+S67+S7+G108+R38+V124+M99+S36; hbond:S87+Y90+P107+Q95+D39+A86+C110+E85+G108+G103+G128+G130+L131+N129+N19+H104+R68+V124+R93+P91+F83+S67+S7+S66+G112+G133+V132+R20+Y89+S77+A135+Y63+A92+A101+M99+F134+L100+I82+Y64+S36+L98+V84+L81+Y94+S80+R38+S37+V102+G8+I123+G111+I113+L114+C65+L22+S96; hydroph_interaction:V124+T126+H21+L22+E85+E106+E88+N129+D39+N19+L40+I123+A135+Q95+I82+L100+L98+L131+F83+R93+V132+Y63+F134+H104+R20+A86+V74+P91+A101+F76+M99+L114+A92+Y94+R68+Y72+Y64+V18+V102+W28+G127+G128+L81; pication:H21+H104+R93+Y63+F134+Y90+R68+F83+R20; pistack:H21+Y89+Y90+H104+F134+Y63+F83+Y94; saltbridge:D39+H21+R93+H104+E106+D109+E85+E88+R68+R20; 

>  <intxn_cluster>  (92) 
-1

>  <intxn_cluster_rank>  (92) 
-1

>  <N_interactions>  (92) 
3

>  <∆∆G>  (92) 
-9.544612

>  <$/mg>  (92) 
0.0

>  <comRMSD>  (92) 
0.815246

>  <N_rotatable_bonds>  (92) 
3

>  <deep_P1_sidechain>  (92) 
nan

>  <farthest_distance_to_substrate>  (92) 
2.326393

>  <hbond:SER:7>  (92) 
hbond:SER:7    NaN
hbond:SER:7     -1
Name: 90, dtype: object

>  <halogenbond:SER:7>  (92) 
halogenbond:SER:7    NaN
halogenbond:SER:7     -1
Name: 90, dtype: object

>  <hbond:GLY:8>  (92) 
hbond:GLY:8    NaN
hbond:GLY:8     -1
Name: 90, dtype: object

>  <hydroph_interaction:VAL:18>  (92) 
hydroph_interaction:VAL:18    NaN
hydroph_interaction:VAL:18     -1
Name: 90, dtype: object

>  <hbond:ASN:19>  (92) 
hbond:ASN:19    NaN
hbond:ASN:19     -1
Name: 90, dtype: object

>  <hydroph_interaction:ASN:19>  (92) 
hydroph_interaction:ASN:19    NaN
hydroph_interaction:ASN:19     -1
Name: 90, dtype: object

>  <halogenbond:ASN:19>  (92) 
halogenbond:ASN:19    NaN
halogenbond:ASN:19     -1
Name: 90, dtype: object

>  <hbond:ARG:20>  (92) 
hbond:ARG:20    NaN
hbond:ARG:20     -1
Name: 90, dtype: object

>  <hydroph_interaction:ARG:20>  (92) 
hydroph_interaction:ARG:20    NaN
hydroph_interaction:ARG:20     -1
Name: 90, dtype: object

>  <saltbridge:ARG:20>  (92) 
saltbridge:ARG:20    NaN
saltbridge:ARG:20     -1
Name: 90, dtype: object

>  <halogenbond:ARG:20>  (92) 
halogenbond:ARG:20    NaN
halogenbond:ARG:20     -1
Name: 90, dtype: object

>  <pication:ARG:20>  (92) 
pication:ARG:20    NaN
pication:ARG:20     -1
Name: 90, dtype: object

>  <hbond:HIS:21>  (92) 
hbond:HIS:21    0.0
hbond:HIS:21      0
Name: 90, dtype: object

>  <hydroph_interaction:HIS:21>  (92) 
hydroph_interaction:HIS:21    NaN
hydroph_interaction:HIS:21     -1
Name: 90, dtype: object

>  <pistack:HIS:21>  (92) 
pistack:HIS:21    NaN
pistack:HIS:21     -1
Name: 90, dtype: object

>  <pication:HIS:21>  (92) 
pication:HIS:21    NaN
pication:HIS:21     -1
Name: 90, dtype: object

>  <saltbridge:HIS:21>  (92) 
saltbridge:HIS:21    NaN
saltbridge:HIS:21     -1
Name: 90, dtype: object

>  <halogenbond:HIS:21>  (92) 
halogenbond:HIS:21    NaN
halogenbond:HIS:21     -1
Name: 90, dtype: object

>  <hydroph_interaction:LEU:22>  (92) 
hydroph_interaction:LEU:22    NaN
hydroph_interaction:LEU:22     -1
Name: 90, dtype: object

>  <hbond:LEU:22>  (92) 
hbond:LEU:22    NaN
hbond:LEU:22     -1
Name: 90, dtype: object

>  <hydroph_interaction:TRP:28>  (92) 
hydroph_interaction:TRP:28    NaN
hydroph_interaction:TRP:28     -1
Name: 90, dtype: object

>  <hbond:SER:36>  (92) 
hbond:SER:36    NaN
hbond:SER:36     -1
Name: 90, dtype: object

>  <halogenbond:SER:36>  (92) 
halogenbond:SER:36    NaN
halogenbond:SER:36     -1
Name: 90, dtype: object

>  <hbond:SER:37>  (92) 
hbond:SER:37    NaN
hbond:SER:37     -1
Name: 90, dtype: object

>  <hbond:ARG:38>  (92) 
hbond:ARG:38    NaN
hbond:ARG:38     -1
Name: 90, dtype: object

>  <halogenbond:ARG:38>  (92) 
halogenbond:ARG:38    NaN
halogenbond:ARG:38     -1
Name: 90, dtype: object

>  <saltbridge:ASP:39>  (92) 
saltbridge:ASP:39    NaN
saltbridge:ASP:39     -1
Name: 90, dtype: object

>  <halogenbond:ASP:39>  (92) 
halogenbond:ASP:39    NaN
halogenbond:ASP:39     -1
Name: 90, dtype: object

>  <hbond:ASP:39>  (92) 
hbond:ASP:39    NaN
hbond:ASP:39     -1
Name: 90, dtype: object

>  <hydroph_interaction:ASP:39>  (92) 
hydroph_interaction:ASP:39    NaN
hydroph_interaction:ASP:39     -1
Name: 90, dtype: object

>  <hydroph_interaction:LEU:40>  (92) 
hydroph_interaction:LEU:40    NaN
hydroph_interaction:LEU:40     -1
Name: 90, dtype: object

>  <hydroph_interaction:TYR:63>  (92) 
hydroph_interaction:TYR:63    NaN
hydroph_interaction:TYR:63     -1
Name: 90, dtype: object

>  <hbond:TYR:63>  (92) 
hbond:TYR:63    NaN
hbond:TYR:63     -1
Name: 90, dtype: object

>  <pistack:TYR:63>  (92) 
pistack:TYR:63    NaN
pistack:TYR:63     -1
Name: 90, dtype: object

>  <pication:TYR:63>  (92) 
pication:TYR:63    NaN
pication:TYR:63     -1
Name: 90, dtype: object

>  <halogenbond:TYR:64>  (92) 
halogenbond:TYR:64    NaN
halogenbond:TYR:64     -1
Name: 90, dtype: object

>  <hbond:TYR:64>  (92) 
hbond:TYR:64    NaN
hbond:TYR:64     -1
Name: 90, dtype: object

>  <hydroph_interaction:TYR:64>  (92) 
hydroph_interaction:TYR:64    NaN
hydroph_interaction:TYR:64     -1
Name: 90, dtype: object

>  <halogenbond:CYS:65>  (92) 
halogenbond:CYS:65    NaN
halogenbond:CYS:65     -1
Name: 90, dtype: object

>  <hbond:CYS:65>  (92) 
hbond:CYS:65    NaN
hbond:CYS:65     -1
Name: 90, dtype: object

>  <hbond:SER:66>  (92) 
hbond:SER:66    NaN
hbond:SER:66     -1
Name: 90, dtype: object

>  <halogenbond:SER:66>  (92) 
halogenbond:SER:66    NaN
halogenbond:SER:66     -1
Name: 90, dtype: object

>  <hbond:SER:67>  (92) 
hbond:SER:67    NaN
hbond:SER:67     -1
Name: 90, dtype: object

>  <halogenbond:SER:67>  (92) 
halogenbond:SER:67    NaN
halogenbond:SER:67     -1
Name: 90, dtype: object

>  <hbond:ARG:68>  (92) 
hbond:ARG:68    NaN
hbond:ARG:68     -1
Name: 90, dtype: object

>  <saltbridge:ARG:68>  (92) 
saltbridge:ARG:68    NaN
saltbridge:ARG:68     -1
Name: 90, dtype: object

>  <hydroph_interaction:ARG:68>  (92) 
hydroph_interaction:ARG:68    NaN
hydroph_interaction:ARG:68     -1
Name: 90, dtype: object

>  <pication:ARG:68>  (92) 
pication:ARG:68    NaN
pication:ARG:68     -1
Name: 90, dtype: object

>  <hydroph_interaction:TYR:72>  (92) 
hydroph_interaction:TYR:72    NaN
hydroph_interaction:TYR:72     -1
Name: 90, dtype: object

>  <hydroph_interaction:VAL:74>  (92) 
hydroph_interaction:VAL:74    NaN
hydroph_interaction:VAL:74     -1
Name: 90, dtype: object

>  <hydroph_interaction:PHE:76>  (92) 
hydroph_interaction:PHE:76    NaN
hydroph_interaction:PHE:76     -1
Name: 90, dtype: object

>  <hbond:SER:77>  (92) 
hbond:SER:77    NaN
hbond:SER:77     -1
Name: 90, dtype: object

>  <hbond:SER:80>  (92) 
hbond:SER:80    NaN
hbond:SER:80     -1
Name: 90, dtype: object

>  <hbond:LEU:81>  (92) 
hbond:LEU:81    NaN
hbond:LEU:81     -1
Name: 90, dtype: object

>  <halogenbond:LEU:81>  (92) 
halogenbond:LEU:81    NaN
halogenbond:LEU:81     -1
Name: 90, dtype: object

>  <hydroph_interaction:LEU:81>  (92) 
hydroph_interaction:LEU:81    NaN
hydroph_interaction:LEU:81     -1
Name: 90, dtype: object

>  <hydroph_interaction:ILE:82>  (92) 
hydroph_interaction:ILE:82    NaN
hydroph_interaction:ILE:82     -1
Name: 90, dtype: object

>  <halogenbond:ILE:82>  (92) 
halogenbond:ILE:82    NaN
halogenbond:ILE:82     -1
Name: 90, dtype: object

>  <hbond:ILE:82>  (92) 
hbond:ILE:82    NaN
hbond:ILE:82     -1
Name: 90, dtype: object

>  <hbond:PHE:83>  (92) 
hbond:PHE:83    NaN
hbond:PHE:83     -1
Name: 90, dtype: object

>  <hydroph_interaction:PHE:83>  (92) 
hydroph_interaction:PHE:83    NaN
hydroph_interaction:PHE:83     -1
Name: 90, dtype: object

>  <halogenbond:PHE:83>  (92) 
halogenbond:PHE:83    NaN
halogenbond:PHE:83     -1
Name: 90, dtype: object

>  <pistack:PHE:83>  (92) 
pistack:PHE:83    NaN
pistack:PHE:83     -1
Name: 90, dtype: object

>  <pication:PHE:83>  (92) 
pication:PHE:83    NaN
pication:PHE:83     -1
Name: 90, dtype: object

>  <hydroph_interaction:VAL:84>  (92) 
hydroph_interaction:VAL:84    0.0
hydroph_interaction:VAL:84      0
Name: 90, dtype: object

>  <halogenbond:VAL:84>  (92) 
halogenbond:VAL:84    NaN
halogenbond:VAL:84     -1
Name: 90, dtype: object

>  <hbond:VAL:84>  (92) 
hbond:VAL:84    NaN
hbond:VAL:84     -1
Name: 90, dtype: object

>  <hydroph_interaction:GLU:85>  (92) 
hydroph_interaction:GLU:85    NaN
hydroph_interaction:GLU:85     -1
Name: 90, dtype: object

>  <hbond:GLU:85>  (92) 
hbond:GLU:85    NaN
hbond:GLU:85     -1
Name: 90, dtype: object

>  <halogenbond:GLU:85>  (92) 
halogenbond:GLU:85    NaN
halogenbond:GLU:85     -1
Name: 90, dtype: object

>  <saltbridge:GLU:85>  (92) 
saltbridge:GLU:85    NaN
saltbridge:GLU:85     -1
Name: 90, dtype: object

>  <halogenbond:ALA:86>  (92) 
halogenbond:ALA:86    NaN
halogenbond:ALA:86     -1
Name: 90, dtype: object

>  <hbond:ALA:86>  (92) 
hbond:ALA:86    NaN
hbond:ALA:86     -1
Name: 90, dtype: object

>  <hydroph_interaction:ALA:86>  (92) 
hydroph_interaction:ALA:86    NaN
hydroph_interaction:ALA:86     -1
Name: 90, dtype: object

>  <hbond:SER:87>  (92) 
hbond:SER:87    2
hbond:SER:87    2
Name: 90, dtype: object

>  <halogenbond:SER:87>  (92) 
halogenbond:SER:87    NaN
halogenbond:SER:87     -1
Name: 90, dtype: object

>  <hbond:GLU:88>  (92) 
hbond:GLU:88    0.0
hbond:GLU:88      0
Name: 90, dtype: object

>  <hydroph_interaction:GLU:88>  (92) 
hydroph_interaction:GLU:88    NaN
hydroph_interaction:GLU:88     -1
Name: 90, dtype: object

>  <halogenbond:GLU:88>  (92) 
halogenbond:GLU:88    NaN
halogenbond:GLU:88     -1
Name: 90, dtype: object

>  <saltbridge:GLU:88>  (92) 
saltbridge:GLU:88    NaN
saltbridge:GLU:88     -1
Name: 90, dtype: object

>  <hydroph_interaction:TYR:89>  (92) 
hydroph_interaction:TYR:89    0.0
hydroph_interaction:TYR:89      0
Name: 90, dtype: object

>  <pistack:TYR:89>  (92) 
pistack:TYR:89    NaN
pistack:TYR:89     -1
Name: 90, dtype: object

>  <hbond:TYR:89>  (92) 
hbond:TYR:89    NaN
hbond:TYR:89     -1
Name: 90, dtype: object

>  <halogenbond:TYR:89>  (92) 
halogenbond:TYR:89    NaN
halogenbond:TYR:89     -1
Name: 90, dtype: object

>  <hydroph_interaction:TYR:90>  (92) 
hydroph_interaction:TYR:90    0.0
hydroph_interaction:TYR:90      0
Name: 90, dtype: object

>  <hbond:TYR:90>  (92) 
hbond:TYR:90    NaN
hbond:TYR:90     -1
Name: 90, dtype: object

>  <pistack:TYR:90>  (92) 
pistack:TYR:90    NaN
pistack:TYR:90     -1
Name: 90, dtype: object

>  <halogenbond:TYR:90>  (92) 
halogenbond:TYR:90    NaN
halogenbond:TYR:90     -1
Name: 90, dtype: object

>  <pication:TYR:90>  (92) 
pication:TYR:90    NaN
pication:TYR:90     -1
Name: 90, dtype: object

>  <hbond:PRO:91>  (92) 
hbond:PRO:91    NaN
hbond:PRO:91     -1
Name: 90, dtype: object

>  <hydroph_interaction:PRO:91>  (92) 
hydroph_interaction:PRO:91    NaN
hydroph_interaction:PRO:91     -1
Name: 90, dtype: object

>  <halogenbond:PRO:91>  (92) 
halogenbond:PRO:91    NaN
halogenbond:PRO:91     -1
Name: 90, dtype: object

>  <hbond:ALA:92>  (92) 
hbond:ALA:92    NaN
hbond:ALA:92     -1
Name: 90, dtype: object

>  <hydroph_interaction:ALA:92>  (92) 
hydroph_interaction:ALA:92    NaN
hydroph_interaction:ALA:92     -1
Name: 90, dtype: object

>  <saltbridge:ARG:93>  (92) 
saltbridge:ARG:93    NaN
saltbridge:ARG:93     -1
Name: 90, dtype: object

>  <hbond:ARG:93>  (92) 
hbond:ARG:93    NaN
hbond:ARG:93     -1
Name: 90, dtype: object

>  <hydroph_interaction:ARG:93>  (92) 
hydroph_interaction:ARG:93    NaN
hydroph_interaction:ARG:93     -1
Name: 90, dtype: object

>  <halogenbond:ARG:93>  (92) 
halogenbond:ARG:93    NaN
halogenbond:ARG:93     -1
Name: 90, dtype: object

>  <pication:ARG:93>  (92) 
pication:ARG:93    NaN
pication:ARG:93     -1
Name: 90, dtype: object

>  <hydroph_interaction:TYR:94>  (92) 
hydroph_interaction:TYR:94    NaN
hydroph_interaction:TYR:94     -1
Name: 90, dtype: object

>  <pistack:TYR:94>  (92) 
pistack:TYR:94    NaN
pistack:TYR:94     -1
Name: 90, dtype: object

>  <hbond:TYR:94>  (92) 
hbond:TYR:94    NaN
hbond:TYR:94     -1
Name: 90, dtype: object

>  <hbond:GLN:95>  (92) 
hbond:GLN:95    NaN
hbond:GLN:95     -1
Name: 90, dtype: object

>  <hydroph_interaction:GLN:95>  (92) 
hydroph_interaction:GLN:95    NaN
hydroph_interaction:GLN:95     -1
Name: 90, dtype: object

>  <halogenbond:GLN:95>  (92) 
halogenbond:GLN:95    NaN
halogenbond:GLN:95     -1
Name: 90, dtype: object

>  <hbond:SER:96>  (92) 
hbond:SER:96    NaN
hbond:SER:96     -1
Name: 90, dtype: object

>  <halogenbond:HIS:97>  (92) 
halogenbond:HIS:97    NaN
halogenbond:HIS:97     -1
Name: 90, dtype: object

>  <hydroph_interaction:LEU:98>  (92) 
hydroph_interaction:LEU:98    NaN
hydroph_interaction:LEU:98     -1
Name: 90, dtype: object

>  <hbond:LEU:98>  (92) 
hbond:LEU:98    NaN
hbond:LEU:98     -1
Name: 90, dtype: object

>  <halogenbond:LEU:98>  (92) 
halogenbond:LEU:98    NaN
halogenbond:LEU:98     -1
Name: 90, dtype: object

>  <hbond:MET:99>  (92) 
hbond:MET:99    NaN
hbond:MET:99     -1
Name: 90, dtype: object

>  <hydroph_interaction:MET:99>  (92) 
hydroph_interaction:MET:99    NaN
hydroph_interaction:MET:99     -1
Name: 90, dtype: object

>  <halogenbond:MET:99>  (92) 
halogenbond:MET:99    NaN
halogenbond:MET:99     -1
Name: 90, dtype: object

>  <hydroph_interaction:LEU:100>  (92) 
hydroph_interaction:LEU:100    NaN
hydroph_interaction:LEU:100     -1
Name: 90, dtype: object

>  <hbond:LEU:100>  (92) 
hbond:LEU:100    NaN
hbond:LEU:100     -1
Name: 90, dtype: object

>  <hbond:ALA:101>  (92) 
hbond:ALA:101    NaN
hbond:ALA:101     -1
Name: 90, dtype: object

>  <hydroph_interaction:ALA:101>  (92) 
hydroph_interaction:ALA:101    NaN
hydroph_interaction:ALA:101     -1
Name: 90, dtype: object

>  <hydroph_interaction:VAL:102>  (92) 
hydroph_interaction:VAL:102    NaN
hydroph_interaction:VAL:102     -1
Name: 90, dtype: object

>  <hbond:VAL:102>  (92) 
hbond:VAL:102    NaN
hbond:VAL:102     -1
Name: 90, dtype: object

>  <hbond:GLY:103>  (92) 
hbond:GLY:103    NaN
hbond:GLY:103     -1
Name: 90, dtype: object

>  <halogenbond:GLY:103>  (92) 
halogenbond:GLY:103    NaN
halogenbond:GLY:103     -1
Name: 90, dtype: object

>  <hbond:HIS:104>  (92) 
hbond:HIS:104    NaN
hbond:HIS:104     -1
Name: 90, dtype: object

>  <saltbridge:HIS:104>  (92) 
saltbridge:HIS:104    NaN
saltbridge:HIS:104     -1
Name: 90, dtype: object

>  <pication:HIS:104>  (92) 
pication:HIS:104    NaN
pication:HIS:104     -1
Name: 90, dtype: object

>  <halogenbond:HIS:104>  (92) 
halogenbond:HIS:104    NaN
halogenbond:HIS:104     -1
Name: 90, dtype: object

>  <hydroph_interaction:HIS:104>  (92) 
hydroph_interaction:HIS:104    NaN
hydroph_interaction:HIS:104     -1
Name: 90, dtype: object

>  <pistack:HIS:104>  (92) 
pistack:HIS:104    NaN
pistack:HIS:104     -1
Name: 90, dtype: object

>  <halogenbond:SER:105>  (92) 
halogenbond:SER:105    0.0
halogenbond:SER:105      0
Name: 90, dtype: object

>  <hbond:SER:105>  (92) 
hbond:SER:105    0.0
hbond:SER:105      0
Name: 90, dtype: object

>  <hbond:GLU:106>  (92) 
hbond:GLU:106    0.0
hbond:GLU:106      0
Name: 90, dtype: object

>  <hydroph_interaction:GLU:106>  (92) 
hydroph_interaction:GLU:106    NaN
hydroph_interaction:GLU:106     -1
Name: 90, dtype: object

>  <saltbridge:GLU:106>  (92) 
saltbridge:GLU:106    NaN
saltbridge:GLU:106     -1
Name: 90, dtype: object

>  <halogenbond:GLU:106>  (92) 
halogenbond:GLU:106    NaN
halogenbond:GLU:106     -1
Name: 90, dtype: object

>  <hydroph_interaction:PRO:107>  (92) 
hydroph_interaction:PRO:107    0
hydroph_interaction:PRO:107    0
Name: 90, dtype: object

>  <hbond:PRO:107>  (92) 
hbond:PRO:107    NaN
hbond:PRO:107     -1
Name: 90, dtype: object

>  <halogenbond:PRO:107>  (92) 
halogenbond:PRO:107    NaN
halogenbond:PRO:107     -1
Name: 90, dtype: object

>  <hbond:GLY:108>  (92) 
hbond:GLY:108    NaN
hbond:GLY:108     -1
Name: 90, dtype: object

>  <halogenbond:GLY:108>  (92) 
halogenbond:GLY:108    NaN
halogenbond:GLY:108     -1
Name: 90, dtype: object

>  <hbond:ASP:109>  (92) 
hbond:ASP:109    0.0
hbond:ASP:109      0
Name: 90, dtype: object

>  <hydroph_interaction:ASP:109>  (92) 
hydroph_interaction:ASP:109    0.0
hydroph_interaction:ASP:109      0
Name: 90, dtype: object

>  <saltbridge:ASP:109>  (92) 
saltbridge:ASP:109    NaN
saltbridge:ASP:109     -1
Name: 90, dtype: object

>  <halogenbond:CYS:110>  (92) 
halogenbond:CYS:110    NaN
halogenbond:CYS:110     -1
Name: 90, dtype: object

>  <hbond:CYS:110>  (92) 
hbond:CYS:110    NaN
hbond:CYS:110     -1
Name: 90, dtype: object

>  <hbond:GLY:111>  (92) 
hbond:GLY:111    NaN
hbond:GLY:111     -1
Name: 90, dtype: object

>  <hbond:GLY:112>  (92) 
hbond:GLY:112    NaN
hbond:GLY:112     -1
Name: 90, dtype: object

>  <hbond:ILE:113>  (92) 
hbond:ILE:113    NaN
hbond:ILE:113     -1
Name: 90, dtype: object

>  <hydroph_interaction:LEU:114>  (92) 
hydroph_interaction:LEU:114    NaN
hydroph_interaction:LEU:114     -1
Name: 90, dtype: object

>  <hbond:LEU:114>  (92) 
hbond:LEU:114    NaN
hbond:LEU:114     -1
Name: 90, dtype: object

>  <hydroph_interaction:ILE:123>  (92) 
hydroph_interaction:ILE:123    NaN
hydroph_interaction:ILE:123     -1
Name: 90, dtype: object

>  <hbond:ILE:123>  (92) 
hbond:ILE:123    NaN
hbond:ILE:123     -1
Name: 90, dtype: object

>  <hydroph_interaction:VAL:124>  (92) 
hydroph_interaction:VAL:124    1.0
hydroph_interaction:VAL:124      1
Name: 90, dtype: object

>  <hbond:VAL:124>  (92) 
hbond:VAL:124    NaN
hbond:VAL:124     -1
Name: 90, dtype: object

>  <halogenbond:VAL:124>  (92) 
halogenbond:VAL:124    NaN
halogenbond:VAL:124     -1
Name: 90, dtype: object

>  <hbond:SER:125>  (92) 
hbond:SER:125    0
hbond:SER:125    0
Name: 90, dtype: object

>  <halogenbond:SER:125>  (92) 
halogenbond:SER:125    NaN
halogenbond:SER:125     -1
Name: 90, dtype: object

>  <hydroph_interaction:THR:126>  (92) 
hydroph_interaction:THR:126    NaN
hydroph_interaction:THR:126     -1
Name: 90, dtype: object

>  <hbond:THR:126>  (92) 
hbond:THR:126    0.0
hbond:THR:126      0
Name: 90, dtype: object

>  <halogenbond:THR:126>  (92) 
halogenbond:THR:126    NaN
halogenbond:THR:126     -1
Name: 90, dtype: object

>  <hbond:GLY:127>  (92) 
hbond:GLY:127    0
hbond:GLY:127    0
Name: 90, dtype: object

>  <halogenbond:GLY:127>  (92) 
halogenbond:GLY:127    0.0
halogenbond:GLY:127      0
Name: 90, dtype: object

>  <hydroph_interaction:GLY:127>  (92) 
hydroph_interaction:GLY:127    NaN
hydroph_interaction:GLY:127     -1
Name: 90, dtype: object

>  <hbond:GLY:128>  (92) 
hbond:GLY:128    NaN
hbond:GLY:128     -1
Name: 90, dtype: object

>  <halogenbond:GLY:128>  (92) 
halogenbond:GLY:128    NaN
halogenbond:GLY:128     -1
Name: 90, dtype: object

>  <hydroph_interaction:GLY:128>  (92) 
hydroph_interaction:GLY:128    NaN
hydroph_interaction:GLY:128     -1
Name: 90, dtype: object

>  <hbond:ASN:129>  (92) 
hbond:ASN:129    NaN
hbond:ASN:129     -1
Name: 90, dtype: object

>  <hydroph_interaction:ASN:129>  (92) 
hydroph_interaction:ASN:129    NaN
hydroph_interaction:ASN:129     -1
Name: 90, dtype: object

>  <halogenbond:ASN:129>  (92) 
halogenbond:ASN:129    NaN
halogenbond:ASN:129     -1
Name: 90, dtype: object

>  <hbond:GLY:130>  (92) 
hbond:GLY:130    NaN
hbond:GLY:130     -1
Name: 90, dtype: object

>  <hbond:LEU:131>  (92) 
hbond:LEU:131    NaN
hbond:LEU:131     -1
Name: 90, dtype: object

>  <hydroph_interaction:LEU:131>  (92) 
hydroph_interaction:LEU:131    NaN
hydroph_interaction:LEU:131     -1
Name: 90, dtype: object

>  <halogenbond:LEU:131>  (92) 
halogenbond:LEU:131    NaN
halogenbond:LEU:131     -1
Name: 90, dtype: object

>  <hydroph_interaction:VAL:132>  (92) 
hydroph_interaction:VAL:132    NaN
hydroph_interaction:VAL:132     -1
Name: 90, dtype: object

>  <hbond:VAL:132>  (92) 
hbond:VAL:132    NaN
hbond:VAL:132     -1
Name: 90, dtype: object

>  <hbond:GLY:133>  (92) 
hbond:GLY:133    NaN
hbond:GLY:133     -1
Name: 90, dtype: object

>  <halogenbond:GLY:133>  (92) 
halogenbond:GLY:133    NaN
halogenbond:GLY:133     -1
Name: 90, dtype: object

>  <hydroph_interaction:PHE:134>  (92) 
hydroph_interaction:PHE:134    NaN
hydroph_interaction:PHE:134     -1
Name: 90, dtype: object

>  <hbond:PHE:134>  (92) 
hbond:PHE:134    NaN
hbond:PHE:134     -1
Name: 90, dtype: object

>  <pistack:PHE:134>  (92) 
pistack:PHE:134    NaN
pistack:PHE:134     -1
Name: 90, dtype: object

>  <pication:PHE:134>  (92) 
pication:PHE:134    NaN
pication:PHE:134     -1
Name: 90, dtype: object

>  <halogenbond:PHE:134>  (92) 
halogenbond:PHE:134    NaN
halogenbond:PHE:134     -1
Name: 90, dtype: object

>  <hydroph_interaction:ALA:135>  (92) 
hydroph_interaction:ALA:135    NaN
hydroph_interaction:ALA:135     -1
Name: 90, dtype: object

>  <hbond:ALA:135>  (92) 
hbond:ALA:135    NaN
hbond:ALA:135     -1
Name: 90, dtype: object

$$$$
Z46279956
     RDKit          3D

 12 12  0  0  0  0  0  0  0  0999 V2000
   30.2723    8.7328    8.8677 C   0  0  0  0  0  0  0  0  0  0  0  0
   31.1658    9.4489    7.8837 C   0  0  0  0  0  0  0  0  0  0  0  0
   32.0426    8.7423    7.1604 N   0  0  0  0  0  0  0  0  0  0  0  0
   32.6589    9.6691    6.4288 N   0  0  0  0  0  0  0  0  0  0  0  0
   32.2020   11.0028    6.6537 C   0  0  0  0  0  0  0  0  0  0  0  0
   32.7604   12.0742    5.9674 C   0  0  0  0  0  0  0  0  0  0  0  0
   31.2132   10.8624    7.6024 C   0  0  0  0  0  0  0  0  0  0  0  0
   30.4149   11.8232    8.1908 N   0  0  0  0  0  0  0  0  0  0  0  0
   29.6973   12.8634    7.4984 C   0  0  0  0  0  0  0  0  0  0  0  0
   29.7329   13.1084    6.2943 O   0  0  0  0  0  0  0  0  0  0  0  0
   28.8663   13.6865    8.4280 C   0  0  0  0  0  0  0  0  0  0  0  0
   28.5147   15.0008    7.8073 N   0  0  0  0  0  0  0  0  0  0  0  0
  1  2  1  0
  2  3  2  0
  3  4  1  0
  4  5  1  0
  5  6  1  0
  5  7  2  0
  7  8  1  0
  8  9  1  0
  9 10  2  0
  9 11  1  0
 11 12  1  0
  7  2  1  0
A    1
 C1 
A    2
 C2 
A    3
 N1 
A    4
 N2 
A    5
 C3 
A    6
 C4 
A    7
 C5 
A    8
 N3 
A    9
 C6 
A   10
 O1 
A   11
 C7 
A   12
 N4 
M  END
>  <ref_pdb>  (93) 
Ax0310a

>  <ref_mols>  (93) 
Ax0310a,Ax0365a

>  <original SMILES>  (93) 
Cc1n[nH]c(C)c1NC(=O)CN

>  <rationale>  (93) 
info halogenbond:G127+A86+E85+Q95+E106+E88+T126+P107+H104+Y64+C65+S87+N129+F83+R93+L131+I82+G128+P91+H21+V84+G133+Y90+Y89+H97+L81+F134+L98+R20+G103+S66+S67+S7+G108+R38+V124+M99+S36; hbond:S87+S125+E88+S105+D39+G108+G103+G130+N19+R68+V124+R93+P91+F83+S7+S66+G112+V132+R20+Y89+S77+A135+Y63+A92+A101+M99+F134+L100+I82+Y64+S36+L98+V84+L81+Y94+S80+R38+S37+V102+G8+I123+G111+I113+L114+C65+L22+S96; hydroph_interaction:V124+L22+N129+D39+N19+L40+I123+A135+Q95+I82+L98+L131+F83+R93+H104+R20+A86+V74+P91+A101+F76+M99+L114+A92+Y94+R68+Y72+Y64+V18+V102+W28+G127+G128+L81; pication:H104+R93+Y63+F134+Y90+R68+F83+R20; pistack:Y89+Y90+H104+F134+Y63+F83+Y94; saltbridge:R93+H104+E106+E85+E88+R68+R20; 

>  <intxn_cluster>  (93) 
-1

>  <intxn_cluster_rank>  (93) 
-1

>  <N_interactions>  (93) 
5

>  <∆∆G>  (93) 
-9.969531

>  <$/mg>  (93) 
163.0

>  <comRMSD>  (93) 
0.445863

>  <N_rotatable_bonds>  (93) 
5

>  <deep_P1_sidechain>  (93) 
nan

>  <farthest_distance_to_substrate>  (93) 
2.342681

>  <hbond:SER:7>  (93) 
hbond:SER:7    NaN
hbond:SER:7     -1
Name: 91, dtype: object

>  <halogenbond:SER:7>  (93) 
halogenbond:SER:7    NaN
halogenbond:SER:7     -1
Name: 91, dtype: object

>  <hbond:GLY:8>  (93) 
hbond:GLY:8    NaN
hbond:GLY:8     -1
Name: 91, dtype: object

>  <hydroph_interaction:VAL:18>  (93) 
hydroph_interaction:VAL:18    NaN
hydroph_interaction:VAL:18     -1
Name: 91, dtype: object

>  <hbond:ASN:19>  (93) 
hbond:ASN:19    NaN
hbond:ASN:19     -1
Name: 91, dtype: object

>  <hydroph_interaction:ASN:19>  (93) 
hydroph_interaction:ASN:19    NaN
hydroph_interaction:ASN:19     -1
Name: 91, dtype: object

>  <halogenbond:ASN:19>  (93) 
halogenbond:ASN:19    0.0
halogenbond:ASN:19      0
Name: 91, dtype: object

>  <hbond:ARG:20>  (93) 
hbond:ARG:20    NaN
hbond:ARG:20     -1
Name: 91, dtype: object

>  <hydroph_interaction:ARG:20>  (93) 
hydroph_interaction:ARG:20    NaN
hydroph_interaction:ARG:20     -1
Name: 91, dtype: object

>  <saltbridge:ARG:20>  (93) 
saltbridge:ARG:20    NaN
saltbridge:ARG:20     -1
Name: 91, dtype: object

>  <halogenbond:ARG:20>  (93) 
halogenbond:ARG:20    NaN
halogenbond:ARG:20     -1
Name: 91, dtype: object

>  <pication:ARG:20>  (93) 
pication:ARG:20    NaN
pication:ARG:20     -1
Name: 91, dtype: object

>  <hbond:HIS:21>  (93) 
hbond:HIS:21    0.0
hbond:HIS:21      0
Name: 91, dtype: object

>  <hydroph_interaction:HIS:21>  (93) 
hydroph_interaction:HIS:21    0.0
hydroph_interaction:HIS:21      0
Name: 91, dtype: object

>  <pistack:HIS:21>  (93) 
pistack:HIS:21    0.0
pistack:HIS:21      0
Name: 91, dtype: object

>  <pication:HIS:21>  (93) 
pication:HIS:21    0.0
pication:HIS:21      0
Name: 91, dtype: object

>  <saltbridge:HIS:21>  (93) 
saltbridge:HIS:21    0.0
saltbridge:HIS:21      0
Name: 91, dtype: object

>  <halogenbond:HIS:21>  (93) 
halogenbond:HIS:21    NaN
halogenbond:HIS:21     -1
Name: 91, dtype: object

>  <hydroph_interaction:LEU:22>  (93) 
hydroph_interaction:LEU:22    NaN
hydroph_interaction:LEU:22     -1
Name: 91, dtype: object

>  <hbond:LEU:22>  (93) 
hbond:LEU:22    NaN
hbond:LEU:22     -1
Name: 91, dtype: object

>  <hydroph_interaction:TRP:28>  (93) 
hydroph_interaction:TRP:28    NaN
hydroph_interaction:TRP:28     -1
Name: 91, dtype: object

>  <hbond:SER:36>  (93) 
hbond:SER:36    NaN
hbond:SER:36     -1
Name: 91, dtype: object

>  <halogenbond:SER:36>  (93) 
halogenbond:SER:36    NaN
halogenbond:SER:36     -1
Name: 91, dtype: object

>  <hbond:SER:37>  (93) 
hbond:SER:37    NaN
hbond:SER:37     -1
Name: 91, dtype: object

>  <hbond:ARG:38>  (93) 
hbond:ARG:38    NaN
hbond:ARG:38     -1
Name: 91, dtype: object

>  <halogenbond:ARG:38>  (93) 
halogenbond:ARG:38    NaN
halogenbond:ARG:38     -1
Name: 91, dtype: object

>  <saltbridge:ASP:39>  (93) 
saltbridge:ASP:39    0.0
saltbridge:ASP:39      0
Name: 91, dtype: object

>  <halogenbond:ASP:39>  (93) 
halogenbond:ASP:39    0.0
halogenbond:ASP:39      0
Name: 91, dtype: object

>  <hbond:ASP:39>  (93) 
hbond:ASP:39    NaN
hbond:ASP:39     -1
Name: 91, dtype: object

>  <hydroph_interaction:ASP:39>  (93) 
hydroph_interaction:ASP:39    NaN
hydroph_interaction:ASP:39     -1
Name: 91, dtype: object

>  <hydroph_interaction:LEU:40>  (93) 
hydroph_interaction:LEU:40    NaN
hydroph_interaction:LEU:40     -1
Name: 91, dtype: object

>  <hydroph_interaction:TYR:63>  (93) 
hydroph_interaction:TYR:63    0.0
hydroph_interaction:TYR:63      0
Name: 91, dtype: object

>  <hbond:TYR:63>  (93) 
hbond:TYR:63    NaN
hbond:TYR:63     -1
Name: 91, dtype: object

>  <pistack:TYR:63>  (93) 
pistack:TYR:63    NaN
pistack:TYR:63     -1
Name: 91, dtype: object

>  <pication:TYR:63>  (93) 
pication:TYR:63    NaN
pication:TYR:63     -1
Name: 91, dtype: object

>  <halogenbond:TYR:64>  (93) 
halogenbond:TYR:64    NaN
halogenbond:TYR:64     -1
Name: 91, dtype: object

>  <hbond:TYR:64>  (93) 
hbond:TYR:64    NaN
hbond:TYR:64     -1
Name: 91, dtype: object

>  <hydroph_interaction:TYR:64>  (93) 
hydroph_interaction:TYR:64    NaN
hydroph_interaction:TYR:64     -1
Name: 91, dtype: object

>  <halogenbond:CYS:65>  (93) 
halogenbond:CYS:65    NaN
halogenbond:CYS:65     -1
Name: 91, dtype: object

>  <hbond:CYS:65>  (93) 
hbond:CYS:65    NaN
hbond:CYS:65     -1
Name: 91, dtype: object

>  <hbond:SER:66>  (93) 
hbond:SER:66    NaN
hbond:SER:66     -1
Name: 91, dtype: object

>  <halogenbond:SER:66>  (93) 
halogenbond:SER:66    NaN
halogenbond:SER:66     -1
Name: 91, dtype: object

>  <hbond:SER:67>  (93) 
hbond:SER:67    0.0
hbond:SER:67      0
Name: 91, dtype: object

>  <halogenbond:SER:67>  (93) 
halogenbond:SER:67    NaN
halogenbond:SER:67     -1
Name: 91, dtype: object

>  <hbond:ARG:68>  (93) 
hbond:ARG:68    NaN
hbond:ARG:68     -1
Name: 91, dtype: object

>  <saltbridge:ARG:68>  (93) 
saltbridge:ARG:68    NaN
saltbridge:ARG:68     -1
Name: 91, dtype: object

>  <hydroph_interaction:ARG:68>  (93) 
hydroph_interaction:ARG:68    NaN
hydroph_interaction:ARG:68     -1
Name: 91, dtype: object

>  <pication:ARG:68>  (93) 
pication:ARG:68    NaN
pication:ARG:68     -1
Name: 91, dtype: object

>  <hydroph_interaction:TYR:72>  (93) 
hydroph_interaction:TYR:72    NaN
hydroph_interaction:TYR:72     -1
Name: 91, dtype: object

>  <hydroph_interaction:VAL:74>  (93) 
hydroph_interaction:VAL:74    NaN
hydroph_interaction:VAL:74     -1
Name: 91, dtype: object

>  <hydroph_interaction:PHE:76>  (93) 
hydroph_interaction:PHE:76    NaN
hydroph_interaction:PHE:76     -1
Name: 91, dtype: object

>  <hbond:SER:77>  (93) 
hbond:SER:77    NaN
hbond:SER:77     -1
Name: 91, dtype: object

>  <hbond:SER:80>  (93) 
hbond:SER:80    NaN
hbond:SER:80     -1
Name: 91, dtype: object

>  <hbond:LEU:81>  (93) 
hbond:LEU:81    NaN
hbond:LEU:81     -1
Name: 91, dtype: object

>  <halogenbond:LEU:81>  (93) 
halogenbond:LEU:81    NaN
halogenbond:LEU:81     -1
Name: 91, dtype: object

>  <hydroph_interaction:LEU:81>  (93) 
hydroph_interaction:LEU:81    NaN
hydroph_interaction:LEU:81     -1
Name: 91, dtype: object

>  <hydroph_interaction:ILE:82>  (93) 
hydroph_interaction:ILE:82    NaN
hydroph_interaction:ILE:82     -1
Name: 91, dtype: object

>  <halogenbond:ILE:82>  (93) 
halogenbond:ILE:82    NaN
halogenbond:ILE:82     -1
Name: 91, dtype: object

>  <hbond:ILE:82>  (93) 
hbond:ILE:82    NaN
hbond:ILE:82     -1
Name: 91, dtype: object

>  <hbond:PHE:83>  (93) 
hbond:PHE:83    NaN
hbond:PHE:83     -1
Name: 91, dtype: object

>  <hydroph_interaction:PHE:83>  (93) 
hydroph_interaction:PHE:83    NaN
hydroph_interaction:PHE:83     -1
Name: 91, dtype: object

>  <halogenbond:PHE:83>  (93) 
halogenbond:PHE:83    NaN
halogenbond:PHE:83     -1
Name: 91, dtype: object

>  <pistack:PHE:83>  (93) 
pistack:PHE:83    NaN
pistack:PHE:83     -1
Name: 91, dtype: object

>  <pication:PHE:83>  (93) 
pication:PHE:83    NaN
pication:PHE:83     -1
Name: 91, dtype: object

>  <hydroph_interaction:VAL:84>  (93) 
hydroph_interaction:VAL:84    0.0
hydroph_interaction:VAL:84      0
Name: 91, dtype: object

>  <halogenbond:VAL:84>  (93) 
halogenbond:VAL:84    NaN
halogenbond:VAL:84     -1
Name: 91, dtype: object

>  <hbond:VAL:84>  (93) 
hbond:VAL:84    NaN
hbond:VAL:84     -1
Name: 91, dtype: object

>  <hydroph_interaction:GLU:85>  (93) 
hydroph_interaction:GLU:85    0.0
hydroph_interaction:GLU:85      0
Name: 91, dtype: object

>  <hbond:GLU:85>  (93) 
hbond:GLU:85    0.0
hbond:GLU:85      0
Name: 91, dtype: object

>  <halogenbond:GLU:85>  (93) 
halogenbond:GLU:85    NaN
halogenbond:GLU:85     -1
Name: 91, dtype: object

>  <saltbridge:GLU:85>  (93) 
saltbridge:GLU:85    NaN
saltbridge:GLU:85     -1
Name: 91, dtype: object

>  <halogenbond:ALA:86>  (93) 
halogenbond:ALA:86    NaN
halogenbond:ALA:86     -1
Name: 91, dtype: object

>  <hbond:ALA:86>  (93) 
hbond:ALA:86    0.0
hbond:ALA:86      0
Name: 91, dtype: object

>  <hydroph_interaction:ALA:86>  (93) 
hydroph_interaction:ALA:86    NaN
hydroph_interaction:ALA:86     -1
Name: 91, dtype: object

>  <hbond:SER:87>  (93) 
hbond:SER:87    1
hbond:SER:87    1
Name: 91, dtype: object

>  <halogenbond:SER:87>  (93) 
halogenbond:SER:87    NaN
halogenbond:SER:87     -1
Name: 91, dtype: object

>  <hbond:GLU:88>  (93) 
hbond:GLU:88    1.0
hbond:GLU:88      1
Name: 91, dtype: object

>  <hydroph_interaction:GLU:88>  (93) 
hydroph_interaction:GLU:88    0.0
hydroph_interaction:GLU:88      0
Name: 91, dtype: object

>  <halogenbond:GLU:88>  (93) 
halogenbond:GLU:88    NaN
halogenbond:GLU:88     -1
Name: 91, dtype: object

>  <saltbridge:GLU:88>  (93) 
saltbridge:GLU:88    NaN
saltbridge:GLU:88     -1
Name: 91, dtype: object

>  <hydroph_interaction:TYR:89>  (93) 
hydroph_interaction:TYR:89    0.0
hydroph_interaction:TYR:89      0
Name: 91, dtype: object

>  <pistack:TYR:89>  (93) 
pistack:TYR:89    NaN
pistack:TYR:89     -1
Name: 91, dtype: object

>  <hbond:TYR:89>  (93) 
hbond:TYR:89    NaN
hbond:TYR:89     -1
Name: 91, dtype: object

>  <halogenbond:TYR:89>  (93) 
halogenbond:TYR:89    NaN
halogenbond:TYR:89     -1
Name: 91, dtype: object

>  <hydroph_interaction:TYR:90>  (93) 
hydroph_interaction:TYR:90    0.0
hydroph_interaction:TYR:90      0
Name: 91, dtype: object

>  <hbond:TYR:90>  (93) 
hbond:TYR:90    0.0
hbond:TYR:90      0
Name: 91, dtype: object

>  <pistack:TYR:90>  (93) 
pistack:TYR:90    NaN
pistack:TYR:90     -1
Name: 91, dtype: object

>  <halogenbond:TYR:90>  (93) 
halogenbond:TYR:90    NaN
halogenbond:TYR:90     -1
Name: 91, dtype: object

>  <pication:TYR:90>  (93) 
pication:TYR:90    NaN
pication:TYR:90     -1
Name: 91, dtype: object

>  <hbond:PRO:91>  (93) 
hbond:PRO:91    NaN
hbond:PRO:91     -1
Name: 91, dtype: object

>  <hydroph_interaction:PRO:91>  (93) 
hydroph_interaction:PRO:91    NaN
hydroph_interaction:PRO:91     -1
Name: 91, dtype: object

>  <halogenbond:PRO:91>  (93) 
halogenbond:PRO:91    NaN
halogenbond:PRO:91     -1
Name: 91, dtype: object

>  <hbond:ALA:92>  (93) 
hbond:ALA:92    NaN
hbond:ALA:92     -1
Name: 91, dtype: object

>  <hydroph_interaction:ALA:92>  (93) 
hydroph_interaction:ALA:92    NaN
hydroph_interaction:ALA:92     -1
Name: 91, dtype: object

>  <saltbridge:ARG:93>  (93) 
saltbridge:ARG:93    NaN
saltbridge:ARG:93     -1
Name: 91, dtype: object

>  <hbond:ARG:93>  (93) 
hbond:ARG:93    NaN
hbond:ARG:93     -1
Name: 91, dtype: object

>  <hydroph_interaction:ARG:93>  (93) 
hydroph_interaction:ARG:93    NaN
hydroph_interaction:ARG:93     -1
Name: 91, dtype: object

>  <halogenbond:ARG:93>  (93) 
halogenbond:ARG:93    NaN
halogenbond:ARG:93     -1
Name: 91, dtype: object

>  <pication:ARG:93>  (93) 
pication:ARG:93    NaN
pication:ARG:93     -1
Name: 91, dtype: object

>  <hydroph_interaction:TYR:94>  (93) 
hydroph_interaction:TYR:94    NaN
hydroph_interaction:TYR:94     -1
Name: 91, dtype: object

>  <pistack:TYR:94>  (93) 
pistack:TYR:94    NaN
pistack:TYR:94     -1
Name: 91, dtype: object

>  <hbond:TYR:94>  (93) 
hbond:TYR:94    NaN
hbond:TYR:94     -1
Name: 91, dtype: object

>  <hbond:GLN:95>  (93) 
hbond:GLN:95    0.0
hbond:GLN:95      0
Name: 91, dtype: object

>  <hydroph_interaction:GLN:95>  (93) 
hydroph_interaction:GLN:95    NaN
hydroph_interaction:GLN:95     -1
Name: 91, dtype: object

>  <halogenbond:GLN:95>  (93) 
halogenbond:GLN:95    NaN
halogenbond:GLN:95     -1
Name: 91, dtype: object

>  <hbond:SER:96>  (93) 
hbond:SER:96    NaN
hbond:SER:96     -1
Name: 91, dtype: object

>  <halogenbond:HIS:97>  (93) 
halogenbond:HIS:97    NaN
halogenbond:HIS:97     -1
Name: 91, dtype: object

>  <hydroph_interaction:LEU:98>  (93) 
hydroph_interaction:LEU:98    NaN
hydroph_interaction:LEU:98     -1
Name: 91, dtype: object

>  <hbond:LEU:98>  (93) 
hbond:LEU:98    NaN
hbond:LEU:98     -1
Name: 91, dtype: object

>  <halogenbond:LEU:98>  (93) 
halogenbond:LEU:98    NaN
halogenbond:LEU:98     -1
Name: 91, dtype: object

>  <hbond:MET:99>  (93) 
hbond:MET:99    NaN
hbond:MET:99     -1
Name: 91, dtype: object

>  <hydroph_interaction:MET:99>  (93) 
hydroph_interaction:MET:99    NaN
hydroph_interaction:MET:99     -1
Name: 91, dtype: object

>  <halogenbond:MET:99>  (93) 
halogenbond:MET:99    NaN
halogenbond:MET:99     -1
Name: 91, dtype: object

>  <hydroph_interaction:LEU:100>  (93) 
hydroph_interaction:LEU:100    0.0
hydroph_interaction:LEU:100      0
Name: 91, dtype: object

>  <hbond:LEU:100>  (93) 
hbond:LEU:100    NaN
hbond:LEU:100     -1
Name: 91, dtype: object

>  <hbond:ALA:101>  (93) 
hbond:ALA:101    NaN
hbond:ALA:101     -1
Name: 91, dtype: object

>  <hydroph_interaction:ALA:101>  (93) 
hydroph_interaction:ALA:101    NaN
hydroph_interaction:ALA:101     -1
Name: 91, dtype: object

>  <hydroph_interaction:VAL:102>  (93) 
hydroph_interaction:VAL:102    NaN
hydroph_interaction:VAL:102     -1
Name: 91, dtype: object

>  <hbond:VAL:102>  (93) 
hbond:VAL:102    NaN
hbond:VAL:102     -1
Name: 91, dtype: object

>  <hbond:GLY:103>  (93) 
hbond:GLY:103    NaN
hbond:GLY:103     -1
Name: 91, dtype: object

>  <halogenbond:GLY:103>  (93) 
halogenbond:GLY:103    NaN
halogenbond:GLY:103     -1
Name: 91, dtype: object

>  <hbond:HIS:104>  (93) 
hbond:HIS:104    0.0
hbond:HIS:104      0
Name: 91, dtype: object

>  <saltbridge:HIS:104>  (93) 
saltbridge:HIS:104    NaN
saltbridge:HIS:104     -1
Name: 91, dtype: object

>  <pication:HIS:104>  (93) 
pication:HIS:104    NaN
pication:HIS:104     -1
Name: 91, dtype: object

>  <halogenbond:HIS:104>  (93) 
halogenbond:HIS:104    NaN
halogenbond:HIS:104     -1
Name: 91, dtype: object

>  <hydroph_interaction:HIS:104>  (93) 
hydroph_interaction:HIS:104    NaN
hydroph_interaction:HIS:104     -1
Name: 91, dtype: object

>  <pistack:HIS:104>  (93) 
pistack:HIS:104    NaN
pistack:HIS:104     -1
Name: 91, dtype: object

>  <halogenbond:SER:105>  (93) 
halogenbond:SER:105    0.0
halogenbond:SER:105      0
Name: 91, dtype: object

>  <hbond:SER:105>  (93) 
hbond:SER:105    1.0
hbond:SER:105      1
Name: 91, dtype: object

>  <hbond:GLU:106>  (93) 
hbond:GLU:106    0.0
hbond:GLU:106      0
Name: 91, dtype: object

>  <hydroph_interaction:GLU:106>  (93) 
hydroph_interaction:GLU:106    0.0
hydroph_interaction:GLU:106      0
Name: 91, dtype: object

>  <saltbridge:GLU:106>  (93) 
saltbridge:GLU:106    NaN
saltbridge:GLU:106     -1
Name: 91, dtype: object

>  <halogenbond:GLU:106>  (93) 
halogenbond:GLU:106    NaN
halogenbond:GLU:106     -1
Name: 91, dtype: object

>  <hydroph_interaction:PRO:107>  (93) 
hydroph_interaction:PRO:107    0
hydroph_interaction:PRO:107    0
Name: 91, dtype: object

>  <hbond:PRO:107>  (93) 
hbond:PRO:107    0.0
hbond:PRO:107      0
Name: 91, dtype: object

>  <halogenbond:PRO:107>  (93) 
halogenbond:PRO:107    NaN
halogenbond:PRO:107     -1
Name: 91, dtype: object

>  <hbond:GLY:108>  (93) 
hbond:GLY:108    NaN
hbond:GLY:108     -1
Name: 91, dtype: object

>  <halogenbond:GLY:108>  (93) 
halogenbond:GLY:108    NaN
halogenbond:GLY:108     -1
Name: 91, dtype: object

>  <hbond:ASP:109>  (93) 
hbond:ASP:109    0.0
hbond:ASP:109      0
Name: 91, dtype: object

>  <hydroph_interaction:ASP:109>  (93) 
hydroph_interaction:ASP:109    0.0
hydroph_interaction:ASP:109      0
Name: 91, dtype: object

>  <saltbridge:ASP:109>  (93) 
saltbridge:ASP:109    0.0
saltbridge:ASP:109      0
Name: 91, dtype: object

>  <halogenbond:CYS:110>  (93) 
halogenbond:CYS:110    0.0
halogenbond:CYS:110      0
Name: 91, dtype: object

>  <hbond:CYS:110>  (93) 
hbond:CYS:110    0.0
hbond:CYS:110      0
Name: 91, dtype: object

>  <hbond:GLY:111>  (93) 
hbond:GLY:111    NaN
hbond:GLY:111     -1
Name: 91, dtype: object

>  <hbond:GLY:112>  (93) 
hbond:GLY:112    NaN
hbond:GLY:112     -1
Name: 91, dtype: object

>  <hbond:ILE:113>  (93) 
hbond:ILE:113    NaN
hbond:ILE:113     -1
Name: 91, dtype: object

>  <hydroph_interaction:LEU:114>  (93) 
hydroph_interaction:LEU:114    NaN
hydroph_interaction:LEU:114     -1
Name: 91, dtype: object

>  <hbond:LEU:114>  (93) 
hbond:LEU:114    NaN
hbond:LEU:114     -1
Name: 91, dtype: object

>  <hydroph_interaction:ILE:123>  (93) 
hydroph_interaction:ILE:123    NaN
hydroph_interaction:ILE:123     -1
Name: 91, dtype: object

>  <hbond:ILE:123>  (93) 
hbond:ILE:123    NaN
hbond:ILE:123     -1
Name: 91, dtype: object

>  <hydroph_interaction:VAL:124>  (93) 
hydroph_interaction:VAL:124    1.0
hydroph_interaction:VAL:124      1
Name: 91, dtype: object

>  <hbond:VAL:124>  (93) 
hbond:VAL:124    NaN
hbond:VAL:124     -1
Name: 91, dtype: object

>  <halogenbond:VAL:124>  (93) 
halogenbond:VAL:124    NaN
halogenbond:VAL:124     -1
Name: 91, dtype: object

>  <hbond:SER:125>  (93) 
hbond:SER:125    1
hbond:SER:125    1
Name: 91, dtype: object

>  <halogenbond:SER:125>  (93) 
halogenbond:SER:125    0.0
halogenbond:SER:125      0
Name: 91, dtype: object

>  <hydroph_interaction:THR:126>  (93) 
hydroph_interaction:THR:126    0.0
hydroph_interaction:THR:126      0
Name: 91, dtype: object

>  <hbond:THR:126>  (93) 
hbond:THR:126    0.0
hbond:THR:126      0
Name: 91, dtype: object

>  <halogenbond:THR:126>  (93) 
halogenbond:THR:126    NaN
halogenbond:THR:126     -1
Name: 91, dtype: object

>  <hbond:GLY:127>  (93) 
hbond:GLY:127    0
hbond:GLY:127    0
Name: 91, dtype: object

>  <halogenbond:GLY:127>  (93) 
halogenbond:GLY:127    NaN
halogenbond:GLY:127     -1
Name: 91, dtype: object

>  <hydroph_interaction:GLY:127>  (93) 
hydroph_interaction:GLY:127    NaN
hydroph_interaction:GLY:127     -1
Name: 91, dtype: object

>  <hbond:GLY:128>  (93) 
hbond:GLY:128    0.0
hbond:GLY:128      0
Name: 91, dtype: object

>  <halogenbond:GLY:128>  (93) 
halogenbond:GLY:128    NaN
halogenbond:GLY:128     -1
Name: 91, dtype: object

>  <hydroph_interaction:GLY:128>  (93) 
hydroph_interaction:GLY:128    NaN
hydroph_interaction:GLY:128     -1
Name: 91, dtype: object

>  <hbond:ASN:129>  (93) 
hbond:ASN:129    0.0
hbond:ASN:129      0
Name: 91, dtype: object

>  <hydroph_interaction:ASN:129>  (93) 
hydroph_interaction:ASN:129    NaN
hydroph_interaction:ASN:129     -1
Name: 91, dtype: object

>  <halogenbond:ASN:129>  (93) 
halogenbond:ASN:129    NaN
halogenbond:ASN:129     -1
Name: 91, dtype: object

>  <hbond:GLY:130>  (93) 
hbond:GLY:130    NaN
hbond:GLY:130     -1
Name: 91, dtype: object

>  <hbond:LEU:131>  (93) 
hbond:LEU:131    0.0
hbond:LEU:131      0
Name: 91, dtype: object

>  <hydroph_interaction:LEU:131>  (93) 
hydroph_interaction:LEU:131    NaN
hydroph_interaction:LEU:131     -1
Name: 91, dtype: object

>  <halogenbond:LEU:131>  (93) 
halogenbond:LEU:131    NaN
halogenbond:LEU:131     -1
Name: 91, dtype: object

>  <hydroph_interaction:VAL:132>  (93) 
hydroph_interaction:VAL:132    0.0
hydroph_interaction:VAL:132      0
Name: 91, dtype: object

>  <hbond:VAL:132>  (93) 
hbond:VAL:132    NaN
hbond:VAL:132     -1
Name: 91, dtype: object

>  <hbond:GLY:133>  (93) 
hbond:GLY:133    0.0
hbond:GLY:133      0
Name: 91, dtype: object

>  <halogenbond:GLY:133>  (93) 
halogenbond:GLY:133    NaN
halogenbond:GLY:133     -1
Name: 91, dtype: object

>  <hydroph_interaction:PHE:134>  (93) 
hydroph_interaction:PHE:134    0.0
hydroph_interaction:PHE:134      0
Name: 91, dtype: object

>  <hbond:PHE:134>  (93) 
hbond:PHE:134    NaN
hbond:PHE:134     -1
Name: 91, dtype: object

>  <pistack:PHE:134>  (93) 
pistack:PHE:134    NaN
pistack:PHE:134     -1
Name: 91, dtype: object

>  <pication:PHE:134>  (93) 
pication:PHE:134    NaN
pication:PHE:134     -1
Name: 91, dtype: object

>  <halogenbond:PHE:134>  (93) 
halogenbond:PHE:134    NaN
halogenbond:PHE:134     -1
Name: 91, dtype: object

>  <hydroph_interaction:ALA:135>  (93) 
hydroph_interaction:ALA:135    NaN
hydroph_interaction:ALA:135     -1
Name: 91, dtype: object

>  <hbond:ALA:135>  (93) 
hbond:ALA:135    NaN
hbond:ALA:135     -1
Name: 91, dtype: object

$$$$
Z5116054929
     RDKit          3D

 24 26  0  0  0  0  0  0  0  0999 V2000
   34.5856   12.2283    5.3055 C   0  0  0  0  0  0  0  0  0  0  0  0
   34.1623   11.0176    4.6519 N   0  0  0  0  0  0  0  0  0  0  0  0
   33.7873    9.9300    5.4191 C   0  0  0  0  0  0  0  0  0  0  0  0
   34.2767    8.8199    5.4292 O   0  0  0  0  0  0  0  0  0  0  0  0
   32.6281   10.1735    6.3745 C   0  0  0  0  0  0  0  0  0  0  0  0
   32.1638    9.0803    7.1697 C   0  0  0  0  0  0  0  0  0  0  0  0
   31.0313    9.4763    8.0808 C   0  0  0  0  0  0  0  0  0  0  0  0
   30.3380    8.5946    9.0373 C   0  0  0  0  0  0  0  0  0  0  0  0
   30.5523   10.7935    8.0574 C   0  0  0  0  0  0  0  0  0  0  0  0
   31.1108   11.7196    7.2080 C   0  0  0  0  0  0  0  0  0  0  0  0
   30.5827   12.9518    7.2199 N   0  0  0  0  0  0  0  0  0  0  0  0
   29.8438   13.6632    8.1068 C   0  0  0  0  0  0  0  0  0  0  0  0
   30.3941   14.3907    9.1116 C   0  0  0  0  0  0  0  0  0  0  0  0
   29.6275   15.1713   10.0442 C   0  0  0  0  0  0  0  0  0  0  0  0
   30.0659   15.9308   11.0351 N   0  0  0  0  0  0  0  0  0  0  0  0
   31.4209   16.3513   11.0233 C   0  0  0  0  0  0  0  0  0  0  0  0
   32.0200   17.1671   12.1747 C   0  0  0  0  0  0  0  0  0  0  0  0
   30.9384   17.8089   13.0331 C   0  0  0  0  0  0  0  0  0  0  0  0
   29.6945   16.9579   13.2880 C   0  0  0  0  0  0  0  0  0  0  0  0
   29.4593   15.7569   12.3452 C   0  0  0  0  0  0  0  0  0  0  0  0
   28.2843   15.1513    9.8966 N   0  0  0  0  0  0  0  0  0  0  0  0
   27.8077   14.4123    8.8835 C   0  0  0  0  0  0  0  0  0  0  0  0
   28.4596   13.6752    7.9847 N   0  0  0  0  0  0  0  0  0  0  0  0
   32.1268   11.4278    6.3901 C   0  0  0  0  0  0  0  0  0  0  0  0
  1  2  1  0
  2  3  1  0
  3  4  2  0
  3  5  1  0
  5  6  2  0
  6  7  1  0
  7  8  1  0
  7  9  2  0
  9 10  1  0
 10 11  1  0
 11 12  1  0
 12 13  2  0
 13 14  1  0
 14 15  1  0
 15 16  1  0
 16 17  1  0
 17 18  1  0
 18 19  1  0
 19 20  1  0
 14 21  2  0
 21 22  1  0
 22 23  2  0
 10 24  2  0
 24  5  1  0
 23 12  1  0
 20 15  1  0
A    1
 C1 
A    2
 N1 
A    3
 C2 
A    4
 O1 
A    5
 C3 
A    6
 C4 
A    7
 C5 
A    8
 C6 
A    9
 C7 
A   10
 C8 
A   11
 N2 
A   12
 C9 
A   13
 C10
A   14
 C11
A   15
 N3 
A   16
 C12
A   17
 C13
A   18
 C14
A   19
 C15
A   20
 C16
A   21
 N4 
A   22
 C17
A   23
 N5 
A   24
 C18
M  END
>  <ref_pdb>  (94) 
Ax0310a

>  <ref_mols>  (94) 
Ax0554a,Ax0739a

>  <original SMILES>  (94) 
CNC(=O)c1cc(C)cc(Nc2cc(N3CCCCC3)ncn2)c1

>  <rationale>  (94) 
info halogenbond:I82+H97+F134+L98+S66; hbond:S87+A92+S37; hydroph_interaction:V84+V124+Y90+P107+D39+Q95+V18; pication:Y63+F83; pistack:H21+Y94; 

>  <intxn_cluster>  (94) 
103

>  <intxn_cluster_rank>  (94) 
1

>  <N_interactions>  (94) 
12

>  <∆∆G>  (94) 
-9.341001

>  <$/mg>  (94) 
0.0

>  <comRMSD>  (94) 
0.785557

>  <N_rotatable_bonds>  (94) 
6

>  <deep_P1_sidechain>  (94) 
True

>  <farthest_distance_to_substrate>  (94) 
3.403137

>  <hbond:SER:7>  (94) 
hbond:SER:7    0.0
hbond:SER:7      0
Name: 92, dtype: object

>  <halogenbond:SER:7>  (94) 
halogenbond:SER:7    0.0
halogenbond:SER:7      0
Name: 92, dtype: object

>  <hbond:GLY:8>  (94) 
hbond:GLY:8    0.0
hbond:GLY:8      0
Name: 92, dtype: object

>  <hydroph_interaction:VAL:18>  (94) 
hydroph_interaction:VAL:18    NaN
hydroph_interaction:VAL:18     -1
Name: 92, dtype: object

>  <hbond:ASN:19>  (94) 
hbond:ASN:19    0.0
hbond:ASN:19      0
Name: 92, dtype: object

>  <hydroph_interaction:ASN:19>  (94) 
hydroph_interaction:ASN:19    0.0
hydroph_interaction:ASN:19      0
Name: 92, dtype: object

>  <halogenbond:ASN:19>  (94) 
halogenbond:ASN:19    0.0
halogenbond:ASN:19      0
Name: 92, dtype: object

>  <hbond:ARG:20>  (94) 
hbond:ARG:20    0.0
hbond:ARG:20      0
Name: 92, dtype: object

>  <hydroph_interaction:ARG:20>  (94) 
hydroph_interaction:ARG:20    0.0
hydroph_interaction:ARG:20      0
Name: 92, dtype: object

>  <saltbridge:ARG:20>  (94) 
saltbridge:ARG:20    0.0
saltbridge:ARG:20      0
Name: 92, dtype: object

>  <halogenbond:ARG:20>  (94) 
halogenbond:ARG:20    0.0
halogenbond:ARG:20      0
Name: 92, dtype: object

>  <pication:ARG:20>  (94) 
pication:ARG:20    0.0
pication:ARG:20      0
Name: 92, dtype: object

>  <hbond:HIS:21>  (94) 
hbond:HIS:21    0.0
hbond:HIS:21      0
Name: 92, dtype: object

>  <hydroph_interaction:HIS:21>  (94) 
hydroph_interaction:HIS:21    0.0
hydroph_interaction:HIS:21      0
Name: 92, dtype: object

>  <pistack:HIS:21>  (94) 
pistack:HIS:21    1.0
pistack:HIS:21      1
Name: 92, dtype: object

>  <pication:HIS:21>  (94) 
pication:HIS:21    0.0
pication:HIS:21      0
Name: 92, dtype: object

>  <saltbridge:HIS:21>  (94) 
saltbridge:HIS:21    0.0
saltbridge:HIS:21      0
Name: 92, dtype: object

>  <halogenbond:HIS:21>  (94) 
halogenbond:HIS:21    0.0
halogenbond:HIS:21      0
Name: 92, dtype: object

>  <hydroph_interaction:LEU:22>  (94) 
hydroph_interaction:LEU:22    0.0
hydroph_interaction:LEU:22      0
Name: 92, dtype: object

>  <hbond:LEU:22>  (94) 
hbond:LEU:22    0.0
hbond:LEU:22      0
Name: 92, dtype: object

>  <hydroph_interaction:TRP:28>  (94) 
hydroph_interaction:TRP:28    0.0
hydroph_interaction:TRP:28      0
Name: 92, dtype: object

>  <hbond:SER:36>  (94) 
hbond:SER:36    0.0
hbond:SER:36      0
Name: 92, dtype: object

>  <halogenbond:SER:36>  (94) 
halogenbond:SER:36    0.0
halogenbond:SER:36      0
Name: 92, dtype: object

>  <hbond:SER:37>  (94) 
hbond:SER:37    NaN
hbond:SER:37     -1
Name: 92, dtype: object

>  <hbond:ARG:38>  (94) 
hbond:ARG:38    0.0
hbond:ARG:38      0
Name: 92, dtype: object

>  <halogenbond:ARG:38>  (94) 
halogenbond:ARG:38    0.0
halogenbond:ARG:38      0
Name: 92, dtype: object

>  <saltbridge:ASP:39>  (94) 
saltbridge:ASP:39    0.0
saltbridge:ASP:39      0
Name: 92, dtype: object

>  <halogenbond:ASP:39>  (94) 
halogenbond:ASP:39    0.0
halogenbond:ASP:39      0
Name: 92, dtype: object

>  <hbond:ASP:39>  (94) 
hbond:ASP:39    0.0
hbond:ASP:39      0
Name: 92, dtype: object

>  <hydroph_interaction:ASP:39>  (94) 
hydroph_interaction:ASP:39    1.0
hydroph_interaction:ASP:39      1
Name: 92, dtype: object

>  <hydroph_interaction:LEU:40>  (94) 
hydroph_interaction:LEU:40    0.0
hydroph_interaction:LEU:40      0
Name: 92, dtype: object

>  <hydroph_interaction:TYR:63>  (94) 
hydroph_interaction:TYR:63    0.0
hydroph_interaction:TYR:63      0
Name: 92, dtype: object

>  <hbond:TYR:63>  (94) 
hbond:TYR:63    0.0
hbond:TYR:63      0
Name: 92, dtype: object

>  <pistack:TYR:63>  (94) 
pistack:TYR:63    0.0
pistack:TYR:63      0
Name: 92, dtype: object

>  <pication:TYR:63>  (94) 
pication:TYR:63    NaN
pication:TYR:63     -1
Name: 92, dtype: object

>  <halogenbond:TYR:64>  (94) 
halogenbond:TYR:64    0.0
halogenbond:TYR:64      0
Name: 92, dtype: object

>  <hbond:TYR:64>  (94) 
hbond:TYR:64    0.0
hbond:TYR:64      0
Name: 92, dtype: object

>  <hydroph_interaction:TYR:64>  (94) 
hydroph_interaction:TYR:64    0.0
hydroph_interaction:TYR:64      0
Name: 92, dtype: object

>  <halogenbond:CYS:65>  (94) 
halogenbond:CYS:65    0.0
halogenbond:CYS:65      0
Name: 92, dtype: object

>  <hbond:CYS:65>  (94) 
hbond:CYS:65    0.0
hbond:CYS:65      0
Name: 92, dtype: object

>  <hbond:SER:66>  (94) 
hbond:SER:66    0.0
hbond:SER:66      0
Name: 92, dtype: object

>  <halogenbond:SER:66>  (94) 
halogenbond:SER:66    NaN
halogenbond:SER:66     -1
Name: 92, dtype: object

>  <hbond:SER:67>  (94) 
hbond:SER:67    0.0
hbond:SER:67      0
Name: 92, dtype: object

>  <halogenbond:SER:67>  (94) 
halogenbond:SER:67    0.0
halogenbond:SER:67      0
Name: 92, dtype: object

>  <hbond:ARG:68>  (94) 
hbond:ARG:68    0.0
hbond:ARG:68      0
Name: 92, dtype: object

>  <saltbridge:ARG:68>  (94) 
saltbridge:ARG:68    0.0
saltbridge:ARG:68      0
Name: 92, dtype: object

>  <hydroph_interaction:ARG:68>  (94) 
hydroph_interaction:ARG:68    0.0
hydroph_interaction:ARG:68      0
Name: 92, dtype: object

>  <pication:ARG:68>  (94) 
pication:ARG:68    0.0
pication:ARG:68      0
Name: 92, dtype: object

>  <hydroph_interaction:TYR:72>  (94) 
hydroph_interaction:TYR:72    0.0
hydroph_interaction:TYR:72      0
Name: 92, dtype: object

>  <hydroph_interaction:VAL:74>  (94) 
hydroph_interaction:VAL:74    0.0
hydroph_interaction:VAL:74      0
Name: 92, dtype: object

>  <hydroph_interaction:PHE:76>  (94) 
hydroph_interaction:PHE:76    0.0
hydroph_interaction:PHE:76      0
Name: 92, dtype: object

>  <hbond:SER:77>  (94) 
hbond:SER:77    0.0
hbond:SER:77      0
Name: 92, dtype: object

>  <hbond:SER:80>  (94) 
hbond:SER:80    0.0
hbond:SER:80      0
Name: 92, dtype: object

>  <hbond:LEU:81>  (94) 
hbond:LEU:81    0.0
hbond:LEU:81      0
Name: 92, dtype: object

>  <halogenbond:LEU:81>  (94) 
halogenbond:LEU:81    0.0
halogenbond:LEU:81      0
Name: 92, dtype: object

>  <hydroph_interaction:LEU:81>  (94) 
hydroph_interaction:LEU:81    0.0
hydroph_interaction:LEU:81      0
Name: 92, dtype: object

>  <hydroph_interaction:ILE:82>  (94) 
hydroph_interaction:ILE:82    0.0
hydroph_interaction:ILE:82      0
Name: 92, dtype: object

>  <halogenbond:ILE:82>  (94) 
halogenbond:ILE:82    NaN
halogenbond:ILE:82     -1
Name: 92, dtype: object

>  <hbond:ILE:82>  (94) 
hbond:ILE:82    0.0
hbond:ILE:82      0
Name: 92, dtype: object

>  <hbond:PHE:83>  (94) 
hbond:PHE:83    0.0
hbond:PHE:83      0
Name: 92, dtype: object

>  <hydroph_interaction:PHE:83>  (94) 
hydroph_interaction:PHE:83    0.0
hydroph_interaction:PHE:83      0
Name: 92, dtype: object

>  <halogenbond:PHE:83>  (94) 
halogenbond:PHE:83    0.0
halogenbond:PHE:83      0
Name: 92, dtype: object

>  <pistack:PHE:83>  (94) 
pistack:PHE:83    0.0
pistack:PHE:83      0
Name: 92, dtype: object

>  <pication:PHE:83>  (94) 
pication:PHE:83    NaN
pication:PHE:83     -1
Name: 92, dtype: object

>  <hydroph_interaction:VAL:84>  (94) 
hydroph_interaction:VAL:84    1.0
hydroph_interaction:VAL:84      1
Name: 92, dtype: object

>  <halogenbond:VAL:84>  (94) 
halogenbond:VAL:84    0.0
halogenbond:VAL:84      0
Name: 92, dtype: object

>  <hbond:VAL:84>  (94) 
hbond:VAL:84    0.0
hbond:VAL:84      0
Name: 92, dtype: object

>  <hydroph_interaction:GLU:85>  (94) 
hydroph_interaction:GLU:85    0.0
hydroph_interaction:GLU:85      0
Name: 92, dtype: object

>  <hbond:GLU:85>  (94) 
hbond:GLU:85    0.0
hbond:GLU:85      0
Name: 92, dtype: object

>  <halogenbond:GLU:85>  (94) 
halogenbond:GLU:85    0.0
halogenbond:GLU:85      0
Name: 92, dtype: object

>  <saltbridge:GLU:85>  (94) 
saltbridge:GLU:85    0.0
saltbridge:GLU:85      0
Name: 92, dtype: object

>  <halogenbond:ALA:86>  (94) 
halogenbond:ALA:86    0.0
halogenbond:ALA:86      0
Name: 92, dtype: object

>  <hbond:ALA:86>  (94) 
hbond:ALA:86    0.0
hbond:ALA:86      0
Name: 92, dtype: object

>  <hydroph_interaction:ALA:86>  (94) 
hydroph_interaction:ALA:86    0.0
hydroph_interaction:ALA:86      0
Name: 92, dtype: object

>  <hbond:SER:87>  (94) 
hbond:SER:87    2
hbond:SER:87    2
Name: 92, dtype: object

>  <halogenbond:SER:87>  (94) 
halogenbond:SER:87    0.0
halogenbond:SER:87      0
Name: 92, dtype: object

>  <hbond:GLU:88>  (94) 
hbond:GLU:88    0.0
hbond:GLU:88      0
Name: 92, dtype: object

>  <hydroph_interaction:GLU:88>  (94) 
hydroph_interaction:GLU:88    0.0
hydroph_interaction:GLU:88      0
Name: 92, dtype: object

>  <halogenbond:GLU:88>  (94) 
halogenbond:GLU:88    0.0
halogenbond:GLU:88      0
Name: 92, dtype: object

>  <saltbridge:GLU:88>  (94) 
saltbridge:GLU:88    0.0
saltbridge:GLU:88      0
Name: 92, dtype: object

>  <hydroph_interaction:TYR:89>  (94) 
hydroph_interaction:TYR:89    0.0
hydroph_interaction:TYR:89      0
Name: 92, dtype: object

>  <pistack:TYR:89>  (94) 
pistack:TYR:89    0.0
pistack:TYR:89      0
Name: 92, dtype: object

>  <hbond:TYR:89>  (94) 
hbond:TYR:89    0.0
hbond:TYR:89      0
Name: 92, dtype: object

>  <halogenbond:TYR:89>  (94) 
halogenbond:TYR:89    0.0
halogenbond:TYR:89      0
Name: 92, dtype: object

>  <hydroph_interaction:TYR:90>  (94) 
hydroph_interaction:TYR:90    3.0
hydroph_interaction:TYR:90      3
Name: 92, dtype: object

>  <hbond:TYR:90>  (94) 
hbond:TYR:90    0.0
hbond:TYR:90      0
Name: 92, dtype: object

>  <pistack:TYR:90>  (94) 
pistack:TYR:90    0.0
pistack:TYR:90      0
Name: 92, dtype: object

>  <halogenbond:TYR:90>  (94) 
halogenbond:TYR:90    0.0
halogenbond:TYR:90      0
Name: 92, dtype: object

>  <pication:TYR:90>  (94) 
pication:TYR:90    0.0
pication:TYR:90      0
Name: 92, dtype: object

>  <hbond:PRO:91>  (94) 
hbond:PRO:91    0.0
hbond:PRO:91      0
Name: 92, dtype: object

>  <hydroph_interaction:PRO:91>  (94) 
hydroph_interaction:PRO:91    0.0
hydroph_interaction:PRO:91      0
Name: 92, dtype: object

>  <halogenbond:PRO:91>  (94) 
halogenbond:PRO:91    0.0
halogenbond:PRO:91      0
Name: 92, dtype: object

>  <hbond:ALA:92>  (94) 
hbond:ALA:92    NaN
hbond:ALA:92     -1
Name: 92, dtype: object

>  <hydroph_interaction:ALA:92>  (94) 
hydroph_interaction:ALA:92    0.0
hydroph_interaction:ALA:92      0
Name: 92, dtype: object

>  <saltbridge:ARG:93>  (94) 
saltbridge:ARG:93    0.0
saltbridge:ARG:93      0
Name: 92, dtype: object

>  <hbond:ARG:93>  (94) 
hbond:ARG:93    0.0
hbond:ARG:93      0
Name: 92, dtype: object

>  <hydroph_interaction:ARG:93>  (94) 
hydroph_interaction:ARG:93    0.0
hydroph_interaction:ARG:93      0
Name: 92, dtype: object

>  <halogenbond:ARG:93>  (94) 
halogenbond:ARG:93    0.0
halogenbond:ARG:93      0
Name: 92, dtype: object

>  <pication:ARG:93>  (94) 
pication:ARG:93    0.0
pication:ARG:93      0
Name: 92, dtype: object

>  <hydroph_interaction:TYR:94>  (94) 
hydroph_interaction:TYR:94    0.0
hydroph_interaction:TYR:94      0
Name: 92, dtype: object

>  <pistack:TYR:94>  (94) 
pistack:TYR:94    NaN
pistack:TYR:94     -1
Name: 92, dtype: object

>  <hbond:TYR:94>  (94) 
hbond:TYR:94    0.0
hbond:TYR:94      0
Name: 92, dtype: object

>  <hbond:GLN:95>  (94) 
hbond:GLN:95    0.0
hbond:GLN:95      0
Name: 92, dtype: object

>  <hydroph_interaction:GLN:95>  (94) 
hydroph_interaction:GLN:95    2.0
hydroph_interaction:GLN:95      2
Name: 92, dtype: object

>  <halogenbond:GLN:95>  (94) 
halogenbond:GLN:95    0.0
halogenbond:GLN:95      0
Name: 92, dtype: object

>  <hbond:SER:96>  (94) 
hbond:SER:96    0.0
hbond:SER:96      0
Name: 92, dtype: object

>  <halogenbond:HIS:97>  (94) 
halogenbond:HIS:97    NaN
halogenbond:HIS:97     -1
Name: 92, dtype: object

>  <hydroph_interaction:LEU:98>  (94) 
hydroph_interaction:LEU:98    0.0
hydroph_interaction:LEU:98      0
Name: 92, dtype: object

>  <hbond:LEU:98>  (94) 
hbond:LEU:98    0.0
hbond:LEU:98      0
Name: 92, dtype: object

>  <halogenbond:LEU:98>  (94) 
halogenbond:LEU:98    NaN
halogenbond:LEU:98     -1
Name: 92, dtype: object

>  <hbond:MET:99>  (94) 
hbond:MET:99    0.0
hbond:MET:99      0
Name: 92, dtype: object

>  <hydroph_interaction:MET:99>  (94) 
hydroph_interaction:MET:99    0.0
hydroph_interaction:MET:99      0
Name: 92, dtype: object

>  <halogenbond:MET:99>  (94) 
halogenbond:MET:99    0.0
halogenbond:MET:99      0
Name: 92, dtype: object

>  <hydroph_interaction:LEU:100>  (94) 
hydroph_interaction:LEU:100    0.0
hydroph_interaction:LEU:100      0
Name: 92, dtype: object

>  <hbond:LEU:100>  (94) 
hbond:LEU:100    0.0
hbond:LEU:100      0
Name: 92, dtype: object

>  <hbond:ALA:101>  (94) 
hbond:ALA:101    0.0
hbond:ALA:101      0
Name: 92, dtype: object

>  <hydroph_interaction:ALA:101>  (94) 
hydroph_interaction:ALA:101    0.0
hydroph_interaction:ALA:101      0
Name: 92, dtype: object

>  <hydroph_interaction:VAL:102>  (94) 
hydroph_interaction:VAL:102    0.0
hydroph_interaction:VAL:102      0
Name: 92, dtype: object

>  <hbond:VAL:102>  (94) 
hbond:VAL:102    0.0
hbond:VAL:102      0
Name: 92, dtype: object

>  <hbond:GLY:103>  (94) 
hbond:GLY:103    0.0
hbond:GLY:103      0
Name: 92, dtype: object

>  <halogenbond:GLY:103>  (94) 
halogenbond:GLY:103    0.0
halogenbond:GLY:103      0
Name: 92, dtype: object

>  <hbond:HIS:104>  (94) 
hbond:HIS:104    0.0
hbond:HIS:104      0
Name: 92, dtype: object

>  <saltbridge:HIS:104>  (94) 
saltbridge:HIS:104    0.0
saltbridge:HIS:104      0
Name: 92, dtype: object

>  <pication:HIS:104>  (94) 
pication:HIS:104    0.0
pication:HIS:104      0
Name: 92, dtype: object

>  <halogenbond:HIS:104>  (94) 
halogenbond:HIS:104    0.0
halogenbond:HIS:104      0
Name: 92, dtype: object

>  <hydroph_interaction:HIS:104>  (94) 
hydroph_interaction:HIS:104    0.0
hydroph_interaction:HIS:104      0
Name: 92, dtype: object

>  <pistack:HIS:104>  (94) 
pistack:HIS:104    0.0
pistack:HIS:104      0
Name: 92, dtype: object

>  <halogenbond:SER:105>  (94) 
halogenbond:SER:105    0.0
halogenbond:SER:105      0
Name: 92, dtype: object

>  <hbond:SER:105>  (94) 
hbond:SER:105    0.0
hbond:SER:105      0
Name: 92, dtype: object

>  <hbond:GLU:106>  (94) 
hbond:GLU:106    0.0
hbond:GLU:106      0
Name: 92, dtype: object

>  <hydroph_interaction:GLU:106>  (94) 
hydroph_interaction:GLU:106    0.0
hydroph_interaction:GLU:106      0
Name: 92, dtype: object

>  <saltbridge:GLU:106>  (94) 
saltbridge:GLU:106    0.0
saltbridge:GLU:106      0
Name: 92, dtype: object

>  <halogenbond:GLU:106>  (94) 
halogenbond:GLU:106    0.0
halogenbond:GLU:106      0
Name: 92, dtype: object

>  <hydroph_interaction:PRO:107>  (94) 
hydroph_interaction:PRO:107    1
hydroph_interaction:PRO:107    1
Name: 92, dtype: object

>  <hbond:PRO:107>  (94) 
hbond:PRO:107    0.0
hbond:PRO:107      0
Name: 92, dtype: object

>  <halogenbond:PRO:107>  (94) 
halogenbond:PRO:107    0.0
halogenbond:PRO:107      0
Name: 92, dtype: object

>  <hbond:GLY:108>  (94) 
hbond:GLY:108    0.0
hbond:GLY:108      0
Name: 92, dtype: object

>  <halogenbond:GLY:108>  (94) 
halogenbond:GLY:108    0.0
halogenbond:GLY:108      0
Name: 92, dtype: object

>  <hbond:ASP:109>  (94) 
hbond:ASP:109    0.0
hbond:ASP:109      0
Name: 92, dtype: object

>  <hydroph_interaction:ASP:109>  (94) 
hydroph_interaction:ASP:109    0.0
hydroph_interaction:ASP:109      0
Name: 92, dtype: object

>  <saltbridge:ASP:109>  (94) 
saltbridge:ASP:109    0.0
saltbridge:ASP:109      0
Name: 92, dtype: object

>  <halogenbond:CYS:110>  (94) 
halogenbond:CYS:110    0.0
halogenbond:CYS:110      0
Name: 92, dtype: object

>  <hbond:CYS:110>  (94) 
hbond:CYS:110    0.0
hbond:CYS:110      0
Name: 92, dtype: object

>  <hbond:GLY:111>  (94) 
hbond:GLY:111    0.0
hbond:GLY:111      0
Name: 92, dtype: object

>  <hbond:GLY:112>  (94) 
hbond:GLY:112    0.0
hbond:GLY:112      0
Name: 92, dtype: object

>  <hbond:ILE:113>  (94) 
hbond:ILE:113    0.0
hbond:ILE:113      0
Name: 92, dtype: object

>  <hydroph_interaction:LEU:114>  (94) 
hydroph_interaction:LEU:114    0.0
hydroph_interaction:LEU:114      0
Name: 92, dtype: object

>  <hbond:LEU:114>  (94) 
hbond:LEU:114    0.0
hbond:LEU:114      0
Name: 92, dtype: object

>  <hydroph_interaction:ILE:123>  (94) 
hydroph_interaction:ILE:123    0.0
hydroph_interaction:ILE:123      0
Name: 92, dtype: object

>  <hbond:ILE:123>  (94) 
hbond:ILE:123    0.0
hbond:ILE:123      0
Name: 92, dtype: object

>  <hydroph_interaction:VAL:124>  (94) 
hydroph_interaction:VAL:124    1.0
hydroph_interaction:VAL:124      1
Name: 92, dtype: object

>  <hbond:VAL:124>  (94) 
hbond:VAL:124    0.0
hbond:VAL:124      0
Name: 92, dtype: object

>  <halogenbond:VAL:124>  (94) 
halogenbond:VAL:124    0.0
halogenbond:VAL:124      0
Name: 92, dtype: object

>  <hbond:SER:125>  (94) 
hbond:SER:125    0
hbond:SER:125    0
Name: 92, dtype: object

>  <halogenbond:SER:125>  (94) 
halogenbond:SER:125    0.0
halogenbond:SER:125      0
Name: 92, dtype: object

>  <hydroph_interaction:THR:126>  (94) 
hydroph_interaction:THR:126    0.0
hydroph_interaction:THR:126      0
Name: 92, dtype: object

>  <hbond:THR:126>  (94) 
hbond:THR:126    0.0
hbond:THR:126      0
Name: 92, dtype: object

>  <halogenbond:THR:126>  (94) 
halogenbond:THR:126    0.0
halogenbond:THR:126      0
Name: 92, dtype: object

>  <hbond:GLY:127>  (94) 
hbond:GLY:127    0
hbond:GLY:127    0
Name: 92, dtype: object

>  <halogenbond:GLY:127>  (94) 
halogenbond:GLY:127    0.0
halogenbond:GLY:127      0
Name: 92, dtype: object

>  <hydroph_interaction:GLY:127>  (94) 
hydroph_interaction:GLY:127    0.0
hydroph_interaction:GLY:127      0
Name: 92, dtype: object

>  <hbond:GLY:128>  (94) 
hbond:GLY:128    0.0
hbond:GLY:128      0
Name: 92, dtype: object

>  <halogenbond:GLY:128>  (94) 
halogenbond:GLY:128    0.0
halogenbond:GLY:128      0
Name: 92, dtype: object

>  <hydroph_interaction:GLY:128>  (94) 
hydroph_interaction:GLY:128    0.0
hydroph_interaction:GLY:128      0
Name: 92, dtype: object

>  <hbond:ASN:129>  (94) 
hbond:ASN:129    0.0
hbond:ASN:129      0
Name: 92, dtype: object

>  <hydroph_interaction:ASN:129>  (94) 
hydroph_interaction:ASN:129    0.0
hydroph_interaction:ASN:129      0
Name: 92, dtype: object

>  <halogenbond:ASN:129>  (94) 
halogenbond:ASN:129    0.0
halogenbond:ASN:129      0
Name: 92, dtype: object

>  <hbond:GLY:130>  (94) 
hbond:GLY:130    0.0
hbond:GLY:130      0
Name: 92, dtype: object

>  <hbond:LEU:131>  (94) 
hbond:LEU:131    0.0
hbond:LEU:131      0
Name: 92, dtype: object

>  <hydroph_interaction:LEU:131>  (94) 
hydroph_interaction:LEU:131    0.0
hydroph_interaction:LEU:131      0
Name: 92, dtype: object

>  <halogenbond:LEU:131>  (94) 
halogenbond:LEU:131    0.0
halogenbond:LEU:131      0
Name: 92, dtype: object

>  <hydroph_interaction:VAL:132>  (94) 
hydroph_interaction:VAL:132    0.0
hydroph_interaction:VAL:132      0
Name: 92, dtype: object

>  <hbond:VAL:132>  (94) 
hbond:VAL:132    0.0
hbond:VAL:132      0
Name: 92, dtype: object

>  <hbond:GLY:133>  (94) 
hbond:GLY:133    0.0
hbond:GLY:133      0
Name: 92, dtype: object

>  <halogenbond:GLY:133>  (94) 
halogenbond:GLY:133    0.0
halogenbond:GLY:133      0
Name: 92, dtype: object

>  <hydroph_interaction:PHE:134>  (94) 
hydroph_interaction:PHE:134    0.0
hydroph_interaction:PHE:134      0
Name: 92, dtype: object

>  <hbond:PHE:134>  (94) 
hbond:PHE:134    0.0
hbond:PHE:134      0
Name: 92, dtype: object

>  <pistack:PHE:134>  (94) 
pistack:PHE:134    0.0
pistack:PHE:134      0
Name: 92, dtype: object

>  <pication:PHE:134>  (94) 
pication:PHE:134    0.0
pication:PHE:134      0
Name: 92, dtype: object

>  <halogenbond:PHE:134>  (94) 
halogenbond:PHE:134    NaN
halogenbond:PHE:134     -1
Name: 92, dtype: object

>  <hydroph_interaction:ALA:135>  (94) 
hydroph_interaction:ALA:135    0.0
hydroph_interaction:ALA:135      0
Name: 92, dtype: object

>  <hbond:ALA:135>  (94) 
hbond:ALA:135    0.0
hbond:ALA:135      0
Name: 92, dtype: object

$$$$
Z1193332108
     RDKit          3D

 23 24  0  0  0  0  0  0  0  0999 V2000
   25.3405   19.2588   10.9404 C   0  0  0  0  0  0  0  0  0  0  0  0
   26.2093   18.1399   10.7690 O   0  0  0  0  0  0  0  0  0  0  0  0
   26.6595   17.6820   11.9709 C   0  0  0  0  0  0  0  0  0  0  0  0
   25.9610   17.7435   12.9671 O   0  0  0  0  0  0  0  0  0  0  0  0
   28.0572   17.2000   11.9203 C   0  0  0  0  0  0  0  0  0  0  0  0
   28.5647   16.3278   10.8114 C   0  0  0  0  0  0  0  0  0  0  0  0
   27.9204   15.8816    9.8505 O   0  0  0  0  0  0  0  0  0  0  0  0
   28.4418   14.6285    9.3525 C   0  0  0  0  0  0  0  0  0  0  0  0
   28.3946   14.2610    7.9850 C   0  0  0  0  0  0  0  0  0  0  0  0
   27.4601   14.5241    7.2477 O   0  0  0  0  0  0  0  0  0  0  0  0
   29.4958   13.5500    7.5141 N   0  0  0  0  0  0  0  0  0  0  0  0
   30.0459   12.5655    8.3859 C   0  0  0  0  0  0  0  0  0  0  0  0
   30.8827   11.4198    7.7512 C   0  0  0  0  0  0  0  0  0  0  0  0
   30.6652   10.1313    8.2217 C   0  0  0  0  0  0  0  0  0  0  0  0
   31.4408    8.9562    7.6644 C   0  0  0  0  0  0  0  0  0  0  0  0
   32.4340    9.2963    6.5969 C   0  0  0  0  0  0  0  0  0  0  0  0
   32.5940   10.6039    6.1820 C   0  0  0  0  0  0  0  0  0  0  0  0
   31.8361   11.6310    6.7470 C   0  0  0  0  0  0  0  0  0  0  0  0
   32.0505   12.8613    6.2909 F   0  0  0  0  0  0  0  0  0  0  0  0
   29.9526   16.0910   10.9991 C   0  0  0  0  0  0  0  0  0  0  0  0
   30.4372   16.7254   12.1459 C   0  0  0  0  0  0  0  0  0  0  0  0
   31.7683   16.6724   12.5056 C   0  0  0  0  0  0  0  0  0  0  0  0
   29.2813   17.5848   13.0597 S   0  0  0  0  0  0  0  0  0  0  0  0
  1  2  1  0
  2  3  1  0
  3  4  2  0
  3  5  1  0
  5  6  2  0
  6  7  1  0
  7  8  1  0
  8  9  1  0
  9 10  2  0
  9 11  1  0
 11 12  1  0
 12 13  1  0
 13 14  2  0
 14 15  1  0
 15 16  2  0
 16 17  1  0
 17 18  2  0
 18 19  1  0
  6 20  1  0
 20 21  2  0
 21 22  1  0
 21 23  1  0
 23  5  1  0
 18 13  1  0
A    1
 C1 
A    2
 O1 
A    3
 C2 
A    4
 O2 
A    5
 C3 
A    6
 C4 
A    7
 O3 
A    8
 C5 
A    9
 C6 
A   10
 O4 
A   11
 N1 
A   12
 C7 
A   13
 C8 
A   14
 C9 
A   15
 C10
A   16
 C11
A   17
 C12
A   18
 C13
A   19
 F1 
A   20
 C14
A   21
 C15
A   22
 C16
A   23
 S1 
M  END
>  <ref_pdb>  (95) 
Ax0310a

>  <ref_mols>  (95) 
Ax0554a,Ax0732a

>  <original SMILES>  (95) 
COC(=O)c1sc(C)cc1OCC(=O)NCc1ccccc1F

>  <rationale>  (95) 
info halogenbond:S87+I82+H97+F134+L98+S66; hbond:S87+A92+S37; hydroph_interaction:V84+Y90+T126+P107+Q95+V18; pication:Y63+F83; pistack:Y94; saltbridge:H21; 

>  <intxn_cluster>  (95) 
204

>  <intxn_cluster_rank>  (95) 
1

>  <N_interactions>  (95) 
10

>  <∆∆G>  (95) 
-11.445446

>  <$/mg>  (95) 
163.0

>  <comRMSD>  (95) 
0.894205

>  <N_rotatable_bonds>  (95) 
8

>  <deep_P1_sidechain>  (95) 
False

>  <farthest_distance_to_substrate>  (95) 
3.400807

>  <hbond:SER:7>  (95) 
hbond:SER:7    0.0
hbond:SER:7      0
Name: 93, dtype: object

>  <halogenbond:SER:7>  (95) 
halogenbond:SER:7    0.0
halogenbond:SER:7      0
Name: 93, dtype: object

>  <hbond:GLY:8>  (95) 
hbond:GLY:8    0.0
hbond:GLY:8      0
Name: 93, dtype: object

>  <hydroph_interaction:VAL:18>  (95) 
hydroph_interaction:VAL:18    NaN
hydroph_interaction:VAL:18     -1
Name: 93, dtype: object

>  <hbond:ASN:19>  (95) 
hbond:ASN:19    0.0
hbond:ASN:19      0
Name: 93, dtype: object

>  <hydroph_interaction:ASN:19>  (95) 
hydroph_interaction:ASN:19    0.0
hydroph_interaction:ASN:19      0
Name: 93, dtype: object

>  <halogenbond:ASN:19>  (95) 
halogenbond:ASN:19    0.0
halogenbond:ASN:19      0
Name: 93, dtype: object

>  <hbond:ARG:20>  (95) 
hbond:ARG:20    0.0
hbond:ARG:20      0
Name: 93, dtype: object

>  <hydroph_interaction:ARG:20>  (95) 
hydroph_interaction:ARG:20    0.0
hydroph_interaction:ARG:20      0
Name: 93, dtype: object

>  <saltbridge:ARG:20>  (95) 
saltbridge:ARG:20    0.0
saltbridge:ARG:20      0
Name: 93, dtype: object

>  <halogenbond:ARG:20>  (95) 
halogenbond:ARG:20    0.0
halogenbond:ARG:20      0
Name: 93, dtype: object

>  <pication:ARG:20>  (95) 
pication:ARG:20    0.0
pication:ARG:20      0
Name: 93, dtype: object

>  <hbond:HIS:21>  (95) 
hbond:HIS:21    0.0
hbond:HIS:21      0
Name: 93, dtype: object

>  <hydroph_interaction:HIS:21>  (95) 
hydroph_interaction:HIS:21    0.0
hydroph_interaction:HIS:21      0
Name: 93, dtype: object

>  <pistack:HIS:21>  (95) 
pistack:HIS:21    0.0
pistack:HIS:21      0
Name: 93, dtype: object

>  <pication:HIS:21>  (95) 
pication:HIS:21    0.0
pication:HIS:21      0
Name: 93, dtype: object

>  <saltbridge:HIS:21>  (95) 
saltbridge:HIS:21    1.0
saltbridge:HIS:21      1
Name: 93, dtype: object

>  <halogenbond:HIS:21>  (95) 
halogenbond:HIS:21    0.0
halogenbond:HIS:21      0
Name: 93, dtype: object

>  <hydroph_interaction:LEU:22>  (95) 
hydroph_interaction:LEU:22    0.0
hydroph_interaction:LEU:22      0
Name: 93, dtype: object

>  <hbond:LEU:22>  (95) 
hbond:LEU:22    0.0
hbond:LEU:22      0
Name: 93, dtype: object

>  <hydroph_interaction:TRP:28>  (95) 
hydroph_interaction:TRP:28    0.0
hydroph_interaction:TRP:28      0
Name: 93, dtype: object

>  <hbond:SER:36>  (95) 
hbond:SER:36    0.0
hbond:SER:36      0
Name: 93, dtype: object

>  <halogenbond:SER:36>  (95) 
halogenbond:SER:36    0.0
halogenbond:SER:36      0
Name: 93, dtype: object

>  <hbond:SER:37>  (95) 
hbond:SER:37    NaN
hbond:SER:37     -1
Name: 93, dtype: object

>  <hbond:ARG:38>  (95) 
hbond:ARG:38    0.0
hbond:ARG:38      0
Name: 93, dtype: object

>  <halogenbond:ARG:38>  (95) 
halogenbond:ARG:38    0.0
halogenbond:ARG:38      0
Name: 93, dtype: object

>  <saltbridge:ASP:39>  (95) 
saltbridge:ASP:39    0.0
saltbridge:ASP:39      0
Name: 93, dtype: object

>  <halogenbond:ASP:39>  (95) 
halogenbond:ASP:39    0.0
halogenbond:ASP:39      0
Name: 93, dtype: object

>  <hbond:ASP:39>  (95) 
hbond:ASP:39    0.0
hbond:ASP:39      0
Name: 93, dtype: object

>  <hydroph_interaction:ASP:39>  (95) 
hydroph_interaction:ASP:39    0.0
hydroph_interaction:ASP:39      0
Name: 93, dtype: object

>  <hydroph_interaction:LEU:40>  (95) 
hydroph_interaction:LEU:40    0.0
hydroph_interaction:LEU:40      0
Name: 93, dtype: object

>  <hydroph_interaction:TYR:63>  (95) 
hydroph_interaction:TYR:63    0.0
hydroph_interaction:TYR:63      0
Name: 93, dtype: object

>  <hbond:TYR:63>  (95) 
hbond:TYR:63    0.0
hbond:TYR:63      0
Name: 93, dtype: object

>  <pistack:TYR:63>  (95) 
pistack:TYR:63    0.0
pistack:TYR:63      0
Name: 93, dtype: object

>  <pication:TYR:63>  (95) 
pication:TYR:63    NaN
pication:TYR:63     -1
Name: 93, dtype: object

>  <halogenbond:TYR:64>  (95) 
halogenbond:TYR:64    0.0
halogenbond:TYR:64      0
Name: 93, dtype: object

>  <hbond:TYR:64>  (95) 
hbond:TYR:64    0.0
hbond:TYR:64      0
Name: 93, dtype: object

>  <hydroph_interaction:TYR:64>  (95) 
hydroph_interaction:TYR:64    0.0
hydroph_interaction:TYR:64      0
Name: 93, dtype: object

>  <halogenbond:CYS:65>  (95) 
halogenbond:CYS:65    0.0
halogenbond:CYS:65      0
Name: 93, dtype: object

>  <hbond:CYS:65>  (95) 
hbond:CYS:65    0.0
hbond:CYS:65      0
Name: 93, dtype: object

>  <hbond:SER:66>  (95) 
hbond:SER:66    0.0
hbond:SER:66      0
Name: 93, dtype: object

>  <halogenbond:SER:66>  (95) 
halogenbond:SER:66    NaN
halogenbond:SER:66     -1
Name: 93, dtype: object

>  <hbond:SER:67>  (95) 
hbond:SER:67    0.0
hbond:SER:67      0
Name: 93, dtype: object

>  <halogenbond:SER:67>  (95) 
halogenbond:SER:67    0.0
halogenbond:SER:67      0
Name: 93, dtype: object

>  <hbond:ARG:68>  (95) 
hbond:ARG:68    0.0
hbond:ARG:68      0
Name: 93, dtype: object

>  <saltbridge:ARG:68>  (95) 
saltbridge:ARG:68    0.0
saltbridge:ARG:68      0
Name: 93, dtype: object

>  <hydroph_interaction:ARG:68>  (95) 
hydroph_interaction:ARG:68    0.0
hydroph_interaction:ARG:68      0
Name: 93, dtype: object

>  <pication:ARG:68>  (95) 
pication:ARG:68    0.0
pication:ARG:68      0
Name: 93, dtype: object

>  <hydroph_interaction:TYR:72>  (95) 
hydroph_interaction:TYR:72    0.0
hydroph_interaction:TYR:72      0
Name: 93, dtype: object

>  <hydroph_interaction:VAL:74>  (95) 
hydroph_interaction:VAL:74    0.0
hydroph_interaction:VAL:74      0
Name: 93, dtype: object

>  <hydroph_interaction:PHE:76>  (95) 
hydroph_interaction:PHE:76    0.0
hydroph_interaction:PHE:76      0
Name: 93, dtype: object

>  <hbond:SER:77>  (95) 
hbond:SER:77    0.0
hbond:SER:77      0
Name: 93, dtype: object

>  <hbond:SER:80>  (95) 
hbond:SER:80    0.0
hbond:SER:80      0
Name: 93, dtype: object

>  <hbond:LEU:81>  (95) 
hbond:LEU:81    0.0
hbond:LEU:81      0
Name: 93, dtype: object

>  <halogenbond:LEU:81>  (95) 
halogenbond:LEU:81    0.0
halogenbond:LEU:81      0
Name: 93, dtype: object

>  <hydroph_interaction:LEU:81>  (95) 
hydroph_interaction:LEU:81    0.0
hydroph_interaction:LEU:81      0
Name: 93, dtype: object

>  <hydroph_interaction:ILE:82>  (95) 
hydroph_interaction:ILE:82    0.0
hydroph_interaction:ILE:82      0
Name: 93, dtype: object

>  <halogenbond:ILE:82>  (95) 
halogenbond:ILE:82    NaN
halogenbond:ILE:82     -1
Name: 93, dtype: object

>  <hbond:ILE:82>  (95) 
hbond:ILE:82    0.0
hbond:ILE:82      0
Name: 93, dtype: object

>  <hbond:PHE:83>  (95) 
hbond:PHE:83    0.0
hbond:PHE:83      0
Name: 93, dtype: object

>  <hydroph_interaction:PHE:83>  (95) 
hydroph_interaction:PHE:83    0.0
hydroph_interaction:PHE:83      0
Name: 93, dtype: object

>  <halogenbond:PHE:83>  (95) 
halogenbond:PHE:83    0.0
halogenbond:PHE:83      0
Name: 93, dtype: object

>  <pistack:PHE:83>  (95) 
pistack:PHE:83    0.0
pistack:PHE:83      0
Name: 93, dtype: object

>  <pication:PHE:83>  (95) 
pication:PHE:83    NaN
pication:PHE:83     -1
Name: 93, dtype: object

>  <hydroph_interaction:VAL:84>  (95) 
hydroph_interaction:VAL:84    1.0
hydroph_interaction:VAL:84      1
Name: 93, dtype: object

>  <halogenbond:VAL:84>  (95) 
halogenbond:VAL:84    0.0
halogenbond:VAL:84      0
Name: 93, dtype: object

>  <hbond:VAL:84>  (95) 
hbond:VAL:84    0.0
hbond:VAL:84      0
Name: 93, dtype: object

>  <hydroph_interaction:GLU:85>  (95) 
hydroph_interaction:GLU:85    0.0
hydroph_interaction:GLU:85      0
Name: 93, dtype: object

>  <hbond:GLU:85>  (95) 
hbond:GLU:85    0.0
hbond:GLU:85      0
Name: 93, dtype: object

>  <halogenbond:GLU:85>  (95) 
halogenbond:GLU:85    0.0
halogenbond:GLU:85      0
Name: 93, dtype: object

>  <saltbridge:GLU:85>  (95) 
saltbridge:GLU:85    0.0
saltbridge:GLU:85      0
Name: 93, dtype: object

>  <halogenbond:ALA:86>  (95) 
halogenbond:ALA:86    0.0
halogenbond:ALA:86      0
Name: 93, dtype: object

>  <hbond:ALA:86>  (95) 
hbond:ALA:86    0.0
hbond:ALA:86      0
Name: 93, dtype: object

>  <hydroph_interaction:ALA:86>  (95) 
hydroph_interaction:ALA:86    0.0
hydroph_interaction:ALA:86      0
Name: 93, dtype: object

>  <hbond:SER:87>  (95) 
hbond:SER:87    2
hbond:SER:87    2
Name: 93, dtype: object

>  <halogenbond:SER:87>  (95) 
halogenbond:SER:87    1.0
halogenbond:SER:87      1
Name: 93, dtype: object

>  <hbond:GLU:88>  (95) 
hbond:GLU:88    0.0
hbond:GLU:88      0
Name: 93, dtype: object

>  <hydroph_interaction:GLU:88>  (95) 
hydroph_interaction:GLU:88    0.0
hydroph_interaction:GLU:88      0
Name: 93, dtype: object

>  <halogenbond:GLU:88>  (95) 
halogenbond:GLU:88    0.0
halogenbond:GLU:88      0
Name: 93, dtype: object

>  <saltbridge:GLU:88>  (95) 
saltbridge:GLU:88    0.0
saltbridge:GLU:88      0
Name: 93, dtype: object

>  <hydroph_interaction:TYR:89>  (95) 
hydroph_interaction:TYR:89    0.0
hydroph_interaction:TYR:89      0
Name: 93, dtype: object

>  <pistack:TYR:89>  (95) 
pistack:TYR:89    0.0
pistack:TYR:89      0
Name: 93, dtype: object

>  <hbond:TYR:89>  (95) 
hbond:TYR:89    0.0
hbond:TYR:89      0
Name: 93, dtype: object

>  <halogenbond:TYR:89>  (95) 
halogenbond:TYR:89    0.0
halogenbond:TYR:89      0
Name: 93, dtype: object

>  <hydroph_interaction:TYR:90>  (95) 
hydroph_interaction:TYR:90    2.0
hydroph_interaction:TYR:90      2
Name: 93, dtype: object

>  <hbond:TYR:90>  (95) 
hbond:TYR:90    0.0
hbond:TYR:90      0
Name: 93, dtype: object

>  <pistack:TYR:90>  (95) 
pistack:TYR:90    0.0
pistack:TYR:90      0
Name: 93, dtype: object

>  <halogenbond:TYR:90>  (95) 
halogenbond:TYR:90    0.0
halogenbond:TYR:90      0
Name: 93, dtype: object

>  <pication:TYR:90>  (95) 
pication:TYR:90    0.0
pication:TYR:90      0
Name: 93, dtype: object

>  <hbond:PRO:91>  (95) 
hbond:PRO:91    0.0
hbond:PRO:91      0
Name: 93, dtype: object

>  <hydroph_interaction:PRO:91>  (95) 
hydroph_interaction:PRO:91    0.0
hydroph_interaction:PRO:91      0
Name: 93, dtype: object

>  <halogenbond:PRO:91>  (95) 
halogenbond:PRO:91    0.0
halogenbond:PRO:91      0
Name: 93, dtype: object

>  <hbond:ALA:92>  (95) 
hbond:ALA:92    NaN
hbond:ALA:92     -1
Name: 93, dtype: object

>  <hydroph_interaction:ALA:92>  (95) 
hydroph_interaction:ALA:92    0.0
hydroph_interaction:ALA:92      0
Name: 93, dtype: object

>  <saltbridge:ARG:93>  (95) 
saltbridge:ARG:93    0.0
saltbridge:ARG:93      0
Name: 93, dtype: object

>  <hbond:ARG:93>  (95) 
hbond:ARG:93    0.0
hbond:ARG:93      0
Name: 93, dtype: object

>  <hydroph_interaction:ARG:93>  (95) 
hydroph_interaction:ARG:93    0.0
hydroph_interaction:ARG:93      0
Name: 93, dtype: object

>  <halogenbond:ARG:93>  (95) 
halogenbond:ARG:93    0.0
halogenbond:ARG:93      0
Name: 93, dtype: object

>  <pication:ARG:93>  (95) 
pication:ARG:93    0.0
pication:ARG:93      0
Name: 93, dtype: object

>  <hydroph_interaction:TYR:94>  (95) 
hydroph_interaction:TYR:94    0.0
hydroph_interaction:TYR:94      0
Name: 93, dtype: object

>  <pistack:TYR:94>  (95) 
pistack:TYR:94    NaN
pistack:TYR:94     -1
Name: 93, dtype: object

>  <hbond:TYR:94>  (95) 
hbond:TYR:94    0.0
hbond:TYR:94      0
Name: 93, dtype: object

>  <hbond:GLN:95>  (95) 
hbond:GLN:95    0.0
hbond:GLN:95      0
Name: 93, dtype: object

>  <hydroph_interaction:GLN:95>  (95) 
hydroph_interaction:GLN:95    1.0
hydroph_interaction:GLN:95      1
Name: 93, dtype: object

>  <halogenbond:GLN:95>  (95) 
halogenbond:GLN:95    0.0
halogenbond:GLN:95      0
Name: 93, dtype: object

>  <hbond:SER:96>  (95) 
hbond:SER:96    0.0
hbond:SER:96      0
Name: 93, dtype: object

>  <halogenbond:HIS:97>  (95) 
halogenbond:HIS:97    NaN
halogenbond:HIS:97     -1
Name: 93, dtype: object

>  <hydroph_interaction:LEU:98>  (95) 
hydroph_interaction:LEU:98    0.0
hydroph_interaction:LEU:98      0
Name: 93, dtype: object

>  <hbond:LEU:98>  (95) 
hbond:LEU:98    0.0
hbond:LEU:98      0
Name: 93, dtype: object

>  <halogenbond:LEU:98>  (95) 
halogenbond:LEU:98    NaN
halogenbond:LEU:98     -1
Name: 93, dtype: object

>  <hbond:MET:99>  (95) 
hbond:MET:99    0.0
hbond:MET:99      0
Name: 93, dtype: object

>  <hydroph_interaction:MET:99>  (95) 
hydroph_interaction:MET:99    0.0
hydroph_interaction:MET:99      0
Name: 93, dtype: object

>  <halogenbond:MET:99>  (95) 
halogenbond:MET:99    0.0
halogenbond:MET:99      0
Name: 93, dtype: object

>  <hydroph_interaction:LEU:100>  (95) 
hydroph_interaction:LEU:100    0.0
hydroph_interaction:LEU:100      0
Name: 93, dtype: object

>  <hbond:LEU:100>  (95) 
hbond:LEU:100    0.0
hbond:LEU:100      0
Name: 93, dtype: object

>  <hbond:ALA:101>  (95) 
hbond:ALA:101    0.0
hbond:ALA:101      0
Name: 93, dtype: object

>  <hydroph_interaction:ALA:101>  (95) 
hydroph_interaction:ALA:101    0.0
hydroph_interaction:ALA:101      0
Name: 93, dtype: object

>  <hydroph_interaction:VAL:102>  (95) 
hydroph_interaction:VAL:102    0.0
hydroph_interaction:VAL:102      0
Name: 93, dtype: object

>  <hbond:VAL:102>  (95) 
hbond:VAL:102    0.0
hbond:VAL:102      0
Name: 93, dtype: object

>  <hbond:GLY:103>  (95) 
hbond:GLY:103    0.0
hbond:GLY:103      0
Name: 93, dtype: object

>  <halogenbond:GLY:103>  (95) 
halogenbond:GLY:103    0.0
halogenbond:GLY:103      0
Name: 93, dtype: object

>  <hbond:HIS:104>  (95) 
hbond:HIS:104    0.0
hbond:HIS:104      0
Name: 93, dtype: object

>  <saltbridge:HIS:104>  (95) 
saltbridge:HIS:104    0.0
saltbridge:HIS:104      0
Name: 93, dtype: object

>  <pication:HIS:104>  (95) 
pication:HIS:104    0.0
pication:HIS:104      0
Name: 93, dtype: object

>  <halogenbond:HIS:104>  (95) 
halogenbond:HIS:104    0.0
halogenbond:HIS:104      0
Name: 93, dtype: object

>  <hydroph_interaction:HIS:104>  (95) 
hydroph_interaction:HIS:104    0.0
hydroph_interaction:HIS:104      0
Name: 93, dtype: object

>  <pistack:HIS:104>  (95) 
pistack:HIS:104    0.0
pistack:HIS:104      0
Name: 93, dtype: object

>  <halogenbond:SER:105>  (95) 
halogenbond:SER:105    0.0
halogenbond:SER:105      0
Name: 93, dtype: object

>  <hbond:SER:105>  (95) 
hbond:SER:105    0.0
hbond:SER:105      0
Name: 93, dtype: object

>  <hbond:GLU:106>  (95) 
hbond:GLU:106    0.0
hbond:GLU:106      0
Name: 93, dtype: object

>  <hydroph_interaction:GLU:106>  (95) 
hydroph_interaction:GLU:106    0.0
hydroph_interaction:GLU:106      0
Name: 93, dtype: object

>  <saltbridge:GLU:106>  (95) 
saltbridge:GLU:106    0.0
saltbridge:GLU:106      0
Name: 93, dtype: object

>  <halogenbond:GLU:106>  (95) 
halogenbond:GLU:106    0.0
halogenbond:GLU:106      0
Name: 93, dtype: object

>  <hydroph_interaction:PRO:107>  (95) 
hydroph_interaction:PRO:107    1
hydroph_interaction:PRO:107    1
Name: 93, dtype: object

>  <hbond:PRO:107>  (95) 
hbond:PRO:107    0.0
hbond:PRO:107      0
Name: 93, dtype: object

>  <halogenbond:PRO:107>  (95) 
halogenbond:PRO:107    0.0
halogenbond:PRO:107      0
Name: 93, dtype: object

>  <hbond:GLY:108>  (95) 
hbond:GLY:108    0.0
hbond:GLY:108      0
Name: 93, dtype: object

>  <halogenbond:GLY:108>  (95) 
halogenbond:GLY:108    0.0
halogenbond:GLY:108      0
Name: 93, dtype: object

>  <hbond:ASP:109>  (95) 
hbond:ASP:109    0.0
hbond:ASP:109      0
Name: 93, dtype: object

>  <hydroph_interaction:ASP:109>  (95) 
hydroph_interaction:ASP:109    0.0
hydroph_interaction:ASP:109      0
Name: 93, dtype: object

>  <saltbridge:ASP:109>  (95) 
saltbridge:ASP:109    0.0
saltbridge:ASP:109      0
Name: 93, dtype: object

>  <halogenbond:CYS:110>  (95) 
halogenbond:CYS:110    0.0
halogenbond:CYS:110      0
Name: 93, dtype: object

>  <hbond:CYS:110>  (95) 
hbond:CYS:110    0.0
hbond:CYS:110      0
Name: 93, dtype: object

>  <hbond:GLY:111>  (95) 
hbond:GLY:111    0.0
hbond:GLY:111      0
Name: 93, dtype: object

>  <hbond:GLY:112>  (95) 
hbond:GLY:112    0.0
hbond:GLY:112      0
Name: 93, dtype: object

>  <hbond:ILE:113>  (95) 
hbond:ILE:113    0.0
hbond:ILE:113      0
Name: 93, dtype: object

>  <hydroph_interaction:LEU:114>  (95) 
hydroph_interaction:LEU:114    0.0
hydroph_interaction:LEU:114      0
Name: 93, dtype: object

>  <hbond:LEU:114>  (95) 
hbond:LEU:114    0.0
hbond:LEU:114      0
Name: 93, dtype: object

>  <hydroph_interaction:ILE:123>  (95) 
hydroph_interaction:ILE:123    0.0
hydroph_interaction:ILE:123      0
Name: 93, dtype: object

>  <hbond:ILE:123>  (95) 
hbond:ILE:123    0.0
hbond:ILE:123      0
Name: 93, dtype: object

>  <hydroph_interaction:VAL:124>  (95) 
hydroph_interaction:VAL:124    0.0
hydroph_interaction:VAL:124      0
Name: 93, dtype: object

>  <hbond:VAL:124>  (95) 
hbond:VAL:124    0.0
hbond:VAL:124      0
Name: 93, dtype: object

>  <halogenbond:VAL:124>  (95) 
halogenbond:VAL:124    0.0
halogenbond:VAL:124      0
Name: 93, dtype: object

>  <hbond:SER:125>  (95) 
hbond:SER:125    0
hbond:SER:125    0
Name: 93, dtype: object

>  <halogenbond:SER:125>  (95) 
halogenbond:SER:125    0.0
halogenbond:SER:125      0
Name: 93, dtype: object

>  <hydroph_interaction:THR:126>  (95) 
hydroph_interaction:THR:126    1.0
hydroph_interaction:THR:126      1
Name: 93, dtype: object

>  <hbond:THR:126>  (95) 
hbond:THR:126    0.0
hbond:THR:126      0
Name: 93, dtype: object

>  <halogenbond:THR:126>  (95) 
halogenbond:THR:126    0.0
halogenbond:THR:126      0
Name: 93, dtype: object

>  <hbond:GLY:127>  (95) 
hbond:GLY:127    0
hbond:GLY:127    0
Name: 93, dtype: object

>  <halogenbond:GLY:127>  (95) 
halogenbond:GLY:127    0.0
halogenbond:GLY:127      0
Name: 93, dtype: object

>  <hydroph_interaction:GLY:127>  (95) 
hydroph_interaction:GLY:127    0.0
hydroph_interaction:GLY:127      0
Name: 93, dtype: object

>  <hbond:GLY:128>  (95) 
hbond:GLY:128    0.0
hbond:GLY:128      0
Name: 93, dtype: object

>  <halogenbond:GLY:128>  (95) 
halogenbond:GLY:128    0.0
halogenbond:GLY:128      0
Name: 93, dtype: object

>  <hydroph_interaction:GLY:128>  (95) 
hydroph_interaction:GLY:128    0.0
hydroph_interaction:GLY:128      0
Name: 93, dtype: object

>  <hbond:ASN:129>  (95) 
hbond:ASN:129    0.0
hbond:ASN:129      0
Name: 93, dtype: object

>  <hydroph_interaction:ASN:129>  (95) 
hydroph_interaction:ASN:129    0.0
hydroph_interaction:ASN:129      0
Name: 93, dtype: object

>  <halogenbond:ASN:129>  (95) 
halogenbond:ASN:129    0.0
halogenbond:ASN:129      0
Name: 93, dtype: object

>  <hbond:GLY:130>  (95) 
hbond:GLY:130    0.0
hbond:GLY:130      0
Name: 93, dtype: object

>  <hbond:LEU:131>  (95) 
hbond:LEU:131    0.0
hbond:LEU:131      0
Name: 93, dtype: object

>  <hydroph_interaction:LEU:131>  (95) 
hydroph_interaction:LEU:131    0.0
hydroph_interaction:LEU:131      0
Name: 93, dtype: object

>  <halogenbond:LEU:131>  (95) 
halogenbond:LEU:131    0.0
halogenbond:LEU:131      0
Name: 93, dtype: object

>  <hydroph_interaction:VAL:132>  (95) 
hydroph_interaction:VAL:132    0.0
hydroph_interaction:VAL:132      0
Name: 93, dtype: object

>  <hbond:VAL:132>  (95) 
hbond:VAL:132    0.0
hbond:VAL:132      0
Name: 93, dtype: object

>  <hbond:GLY:133>  (95) 
hbond:GLY:133    0.0
hbond:GLY:133      0
Name: 93, dtype: object

>  <halogenbond:GLY:133>  (95) 
halogenbond:GLY:133    0.0
halogenbond:GLY:133      0
Name: 93, dtype: object

>  <hydroph_interaction:PHE:134>  (95) 
hydroph_interaction:PHE:134    0.0
hydroph_interaction:PHE:134      0
Name: 93, dtype: object

>  <hbond:PHE:134>  (95) 
hbond:PHE:134    0.0
hbond:PHE:134      0
Name: 93, dtype: object

>  <pistack:PHE:134>  (95) 
pistack:PHE:134    0.0
pistack:PHE:134      0
Name: 93, dtype: object

>  <pication:PHE:134>  (95) 
pication:PHE:134    0.0
pication:PHE:134      0
Name: 93, dtype: object

>  <halogenbond:PHE:134>  (95) 
halogenbond:PHE:134    NaN
halogenbond:PHE:134     -1
Name: 93, dtype: object

>  <hydroph_interaction:ALA:135>  (95) 
hydroph_interaction:ALA:135    0.0
hydroph_interaction:ALA:135      0
Name: 93, dtype: object

>  <hbond:ALA:135>  (95) 
hbond:ALA:135    0.0
hbond:ALA:135      0
Name: 93, dtype: object

$$$$
Z1024105954
     RDKit          3D

 29 31  0  0  0  0  0  0  0  0999 V2000
   29.6132   13.5394    5.8503 O   0  0  0  0  0  0  0  0  0  0  0  0
   29.4283   13.2267    7.0043 C   0  0  0  0  0  0  0  0  0  0  0  0
   28.0948   13.3902    7.6920 C   0  0  0  0  0  0  0  0  0  0  0  0
   28.2564   13.3534    9.1304 N   0  0  0  0  0  0  0  0  0  0  0  0
   28.5943   14.8853    9.7008 S   0  0  0  0  0  6  0  0  0  0  0  0
   27.8769   14.9912   10.9401 O   0  0  0  0  0  0  0  0  0  0  0  0
   28.3310   15.7286    8.5588 O   0  0  0  0  0  0  0  0  0  0  0  0
   30.3826   14.7954   10.0044 C   0  0  0  0  0  0  0  0  0  0  0  0
   30.7674   15.8708   10.9274 C   0  0  0  0  0  0  0  0  0  0  0  0
   29.9974   16.1506   12.0664 C   0  0  0  0  0  0  0  0  0  0  0  0
   30.3806   17.1777   12.9459 C   0  0  0  0  0  0  0  0  0  0  0  0
   31.5386   17.9215   12.6951 C   0  0  0  0  0  0  0  0  0  0  0  0
   32.2630   17.6262   11.5675 C   0  0  0  0  0  0  0  0  0  0  0  0
   31.9069   16.6295   10.6870 C   0  0  0  0  0  0  0  0  0  0  0  0
   30.3882   12.6731    7.8250 N   0  0  0  0  0  0  0  0  0  0  0  0
   30.9198   11.3324    7.6714 C   0  0  0  0  0  0  0  0  0  0  0  0
   30.3845   10.1905    8.5274 C   0  0  0  0  0  0  0  0  0  0  0  0
   30.9128    8.8154    8.3591 C   0  0  0  0  0  0  0  0  0  0  0  0
   31.9792    8.5500    7.3534 C   0  0  0  0  0  0  0  0  0  0  0  0
   32.4814    9.6932    6.5390 C   0  0  0  0  0  0  0  0  0  0  0  0
   31.9306   11.0843    6.7226 C   0  0  0  0  0  0  0  0  0  0  0  0
   32.4738   12.0884    5.9191 N   0  0  0  0  0  0  0  0  0  0  0  0
   33.6088   11.8258    5.1784 C   0  0  0  0  0  0  0  0  0  0  0  0
   34.0597   10.6941    5.0513 O   0  0  0  0  0  0  0  0  0  0  0  0
   34.2358   12.9750    4.5580 C   0  0  0  0  0  0  0  0  0  0  0  0
   33.6737   14.1509    4.1021 C   0  0  0  0  0  0  0  0  0  0  0  0
   34.6793   15.1135    3.5053 C   0  0  0  0  0  0  0  0  0  0  0  0
   36.0358   14.4408    3.6127 C   0  0  0  0  0  0  0  0  0  0  0  0
   35.9428   12.9008    4.3360 S   0  0  0  0  0  0  0  0  0  0  0  0
  1  2  2  0
  2  3  1  0
  3  4  1  0
  4  5  1  0
  5  6  2  0
  5  7  2  0
  5  8  1  0
  8  9  1  0
  9 10  2  0
 10 11  1  0
 11 12  2  0
 12 13  1  0
 13 14  2  0
  2 15  1  0
 15 16  1  0
 16 17  2  0
 17 18  1  0
 18 19  2  0
 19 20  1  0
 20 21  2  0
 21 22  1  0
 22 23  1  0
 23 24  2  0
 23 25  1  0
 25 26  2  0
 26 27  1  0
 27 28  2  0
 28 29  1  0
 14  9  1  0
 21 16  1  0
 29 25  1  0
A    1
 O1 
A    2
 C1 
A    3
 C2 
A    4
 N1 
A    5
 S1 
A    6
 O2 
A    7
 O3 
A    8
 C3 
A    9
 C4 
A   10
 C5 
A   11
 C6 
A   12
 C7 
A   13
 C8 
A   14
 C9 
A   15
 N2 
A   16
 C10
A   17
 C11
A   18
 C12
A   19
 C13
A   20
 C14
A   21
 C15
A   22
 N3 
A   23
 C16
A   24
 O4 
A   25
 C17
A   26
 C18
A   27
 C19
A   28
 C20
A   29
 S2 
M  END
>  <ref_pdb>  (96) 
Ax0310a

>  <ref_mols>  (96) 
Ax0739a,Ax0554a

>  <original SMILES>  (96) 
O=C(CNS(=O)(=O)Cc1ccccc1)Nc1ccccc1NC(=O)c1cccs1

>  <rationale>  (96) 
info halogenbond:I82+H97+F134+L98+S66; hbond:S87+H21+A92+S37; hydroph_interaction:V84+Y90+Q95+R93+V18; pication:Y63+F83; pistack:Y94; 

>  <intxn_cluster>  (96) 
206

>  <intxn_cluster_rank>  (96) 
1

>  <N_interactions>  (96) 
12

>  <∆∆G>  (96) 
-11.267962

>  <$/mg>  (96) 
163.0

>  <comRMSD>  (96) 
0.943724

>  <N_rotatable_bonds>  (96) 
8

>  <deep_P1_sidechain>  (96) 
False

>  <farthest_distance_to_substrate>  (96) 
3.680313

>  <hbond:SER:7>  (96) 
hbond:SER:7    0.0
hbond:SER:7      0
Name: 94, dtype: object

>  <halogenbond:SER:7>  (96) 
halogenbond:SER:7    0.0
halogenbond:SER:7      0
Name: 94, dtype: object

>  <hbond:GLY:8>  (96) 
hbond:GLY:8    0.0
hbond:GLY:8      0
Name: 94, dtype: object

>  <hydroph_interaction:VAL:18>  (96) 
hydroph_interaction:VAL:18    NaN
hydroph_interaction:VAL:18     -1
Name: 94, dtype: object

>  <hbond:ASN:19>  (96) 
hbond:ASN:19    0.0
hbond:ASN:19      0
Name: 94, dtype: object

>  <hydroph_interaction:ASN:19>  (96) 
hydroph_interaction:ASN:19    0.0
hydroph_interaction:ASN:19      0
Name: 94, dtype: object

>  <halogenbond:ASN:19>  (96) 
halogenbond:ASN:19    0.0
halogenbond:ASN:19      0
Name: 94, dtype: object

>  <hbond:ARG:20>  (96) 
hbond:ARG:20    0.0
hbond:ARG:20      0
Name: 94, dtype: object

>  <hydroph_interaction:ARG:20>  (96) 
hydroph_interaction:ARG:20    0.0
hydroph_interaction:ARG:20      0
Name: 94, dtype: object

>  <saltbridge:ARG:20>  (96) 
saltbridge:ARG:20    0.0
saltbridge:ARG:20      0
Name: 94, dtype: object

>  <halogenbond:ARG:20>  (96) 
halogenbond:ARG:20    0.0
halogenbond:ARG:20      0
Name: 94, dtype: object

>  <pication:ARG:20>  (96) 
pication:ARG:20    0.0
pication:ARG:20      0
Name: 94, dtype: object

>  <hbond:HIS:21>  (96) 
hbond:HIS:21    1.0
hbond:HIS:21      1
Name: 94, dtype: object

>  <hydroph_interaction:HIS:21>  (96) 
hydroph_interaction:HIS:21    0.0
hydroph_interaction:HIS:21      0
Name: 94, dtype: object

>  <pistack:HIS:21>  (96) 
pistack:HIS:21    0.0
pistack:HIS:21      0
Name: 94, dtype: object

>  <pication:HIS:21>  (96) 
pication:HIS:21    0.0
pication:HIS:21      0
Name: 94, dtype: object

>  <saltbridge:HIS:21>  (96) 
saltbridge:HIS:21    0.0
saltbridge:HIS:21      0
Name: 94, dtype: object

>  <halogenbond:HIS:21>  (96) 
halogenbond:HIS:21    0.0
halogenbond:HIS:21      0
Name: 94, dtype: object

>  <hydroph_interaction:LEU:22>  (96) 
hydroph_interaction:LEU:22    0.0
hydroph_interaction:LEU:22      0
Name: 94, dtype: object

>  <hbond:LEU:22>  (96) 
hbond:LEU:22    0.0
hbond:LEU:22      0
Name: 94, dtype: object

>  <hydroph_interaction:TRP:28>  (96) 
hydroph_interaction:TRP:28    0.0
hydroph_interaction:TRP:28      0
Name: 94, dtype: object

>  <hbond:SER:36>  (96) 
hbond:SER:36    0.0
hbond:SER:36      0
Name: 94, dtype: object

>  <halogenbond:SER:36>  (96) 
halogenbond:SER:36    0.0
halogenbond:SER:36      0
Name: 94, dtype: object

>  <hbond:SER:37>  (96) 
hbond:SER:37    NaN
hbond:SER:37     -1
Name: 94, dtype: object

>  <hbond:ARG:38>  (96) 
hbond:ARG:38    0.0
hbond:ARG:38      0
Name: 94, dtype: object

>  <halogenbond:ARG:38>  (96) 
halogenbond:ARG:38    0.0
halogenbond:ARG:38      0
Name: 94, dtype: object

>  <saltbridge:ASP:39>  (96) 
saltbridge:ASP:39    0.0
saltbridge:ASP:39      0
Name: 94, dtype: object

>  <halogenbond:ASP:39>  (96) 
halogenbond:ASP:39    0.0
halogenbond:ASP:39      0
Name: 94, dtype: object

>  <hbond:ASP:39>  (96) 
hbond:ASP:39    0.0
hbond:ASP:39      0
Name: 94, dtype: object

>  <hydroph_interaction:ASP:39>  (96) 
hydroph_interaction:ASP:39    0.0
hydroph_interaction:ASP:39      0
Name: 94, dtype: object

>  <hydroph_interaction:LEU:40>  (96) 
hydroph_interaction:LEU:40    0.0
hydroph_interaction:LEU:40      0
Name: 94, dtype: object

>  <hydroph_interaction:TYR:63>  (96) 
hydroph_interaction:TYR:63    0.0
hydroph_interaction:TYR:63      0
Name: 94, dtype: object

>  <hbond:TYR:63>  (96) 
hbond:TYR:63    0.0
hbond:TYR:63      0
Name: 94, dtype: object

>  <pistack:TYR:63>  (96) 
pistack:TYR:63    0.0
pistack:TYR:63      0
Name: 94, dtype: object

>  <pication:TYR:63>  (96) 
pication:TYR:63    NaN
pication:TYR:63     -1
Name: 94, dtype: object

>  <halogenbond:TYR:64>  (96) 
halogenbond:TYR:64    0.0
halogenbond:TYR:64      0
Name: 94, dtype: object

>  <hbond:TYR:64>  (96) 
hbond:TYR:64    0.0
hbond:TYR:64      0
Name: 94, dtype: object

>  <hydroph_interaction:TYR:64>  (96) 
hydroph_interaction:TYR:64    0.0
hydroph_interaction:TYR:64      0
Name: 94, dtype: object

>  <halogenbond:CYS:65>  (96) 
halogenbond:CYS:65    0.0
halogenbond:CYS:65      0
Name: 94, dtype: object

>  <hbond:CYS:65>  (96) 
hbond:CYS:65    0.0
hbond:CYS:65      0
Name: 94, dtype: object

>  <hbond:SER:66>  (96) 
hbond:SER:66    0.0
hbond:SER:66      0
Name: 94, dtype: object

>  <halogenbond:SER:66>  (96) 
halogenbond:SER:66    NaN
halogenbond:SER:66     -1
Name: 94, dtype: object

>  <hbond:SER:67>  (96) 
hbond:SER:67    0.0
hbond:SER:67      0
Name: 94, dtype: object

>  <halogenbond:SER:67>  (96) 
halogenbond:SER:67    0.0
halogenbond:SER:67      0
Name: 94, dtype: object

>  <hbond:ARG:68>  (96) 
hbond:ARG:68    0.0
hbond:ARG:68      0
Name: 94, dtype: object

>  <saltbridge:ARG:68>  (96) 
saltbridge:ARG:68    0.0
saltbridge:ARG:68      0
Name: 94, dtype: object

>  <hydroph_interaction:ARG:68>  (96) 
hydroph_interaction:ARG:68    0.0
hydroph_interaction:ARG:68      0
Name: 94, dtype: object

>  <pication:ARG:68>  (96) 
pication:ARG:68    0.0
pication:ARG:68      0
Name: 94, dtype: object

>  <hydroph_interaction:TYR:72>  (96) 
hydroph_interaction:TYR:72    0.0
hydroph_interaction:TYR:72      0
Name: 94, dtype: object

>  <hydroph_interaction:VAL:74>  (96) 
hydroph_interaction:VAL:74    0.0
hydroph_interaction:VAL:74      0
Name: 94, dtype: object

>  <hydroph_interaction:PHE:76>  (96) 
hydroph_interaction:PHE:76    0.0
hydroph_interaction:PHE:76      0
Name: 94, dtype: object

>  <hbond:SER:77>  (96) 
hbond:SER:77    0.0
hbond:SER:77      0
Name: 94, dtype: object

>  <hbond:SER:80>  (96) 
hbond:SER:80    0.0
hbond:SER:80      0
Name: 94, dtype: object

>  <hbond:LEU:81>  (96) 
hbond:LEU:81    0.0
hbond:LEU:81      0
Name: 94, dtype: object

>  <halogenbond:LEU:81>  (96) 
halogenbond:LEU:81    0.0
halogenbond:LEU:81      0
Name: 94, dtype: object

>  <hydroph_interaction:LEU:81>  (96) 
hydroph_interaction:LEU:81    0.0
hydroph_interaction:LEU:81      0
Name: 94, dtype: object

>  <hydroph_interaction:ILE:82>  (96) 
hydroph_interaction:ILE:82    0.0
hydroph_interaction:ILE:82      0
Name: 94, dtype: object

>  <halogenbond:ILE:82>  (96) 
halogenbond:ILE:82    NaN
halogenbond:ILE:82     -1
Name: 94, dtype: object

>  <hbond:ILE:82>  (96) 
hbond:ILE:82    0.0
hbond:ILE:82      0
Name: 94, dtype: object

>  <hbond:PHE:83>  (96) 
hbond:PHE:83    0.0
hbond:PHE:83      0
Name: 94, dtype: object

>  <hydroph_interaction:PHE:83>  (96) 
hydroph_interaction:PHE:83    0.0
hydroph_interaction:PHE:83      0
Name: 94, dtype: object

>  <halogenbond:PHE:83>  (96) 
halogenbond:PHE:83    0.0
halogenbond:PHE:83      0
Name: 94, dtype: object

>  <pistack:PHE:83>  (96) 
pistack:PHE:83    0.0
pistack:PHE:83      0
Name: 94, dtype: object

>  <pication:PHE:83>  (96) 
pication:PHE:83    NaN
pication:PHE:83     -1
Name: 94, dtype: object

>  <hydroph_interaction:VAL:84>  (96) 
hydroph_interaction:VAL:84    2.0
hydroph_interaction:VAL:84      2
Name: 94, dtype: object

>  <halogenbond:VAL:84>  (96) 
halogenbond:VAL:84    0.0
halogenbond:VAL:84      0
Name: 94, dtype: object

>  <hbond:VAL:84>  (96) 
hbond:VAL:84    0.0
hbond:VAL:84      0
Name: 94, dtype: object

>  <hydroph_interaction:GLU:85>  (96) 
hydroph_interaction:GLU:85    0.0
hydroph_interaction:GLU:85      0
Name: 94, dtype: object

>  <hbond:GLU:85>  (96) 
hbond:GLU:85    0.0
hbond:GLU:85      0
Name: 94, dtype: object

>  <halogenbond:GLU:85>  (96) 
halogenbond:GLU:85    0.0
halogenbond:GLU:85      0
Name: 94, dtype: object

>  <saltbridge:GLU:85>  (96) 
saltbridge:GLU:85    0.0
saltbridge:GLU:85      0
Name: 94, dtype: object

>  <halogenbond:ALA:86>  (96) 
halogenbond:ALA:86    0.0
halogenbond:ALA:86      0
Name: 94, dtype: object

>  <hbond:ALA:86>  (96) 
hbond:ALA:86    0.0
hbond:ALA:86      0
Name: 94, dtype: object

>  <hydroph_interaction:ALA:86>  (96) 
hydroph_interaction:ALA:86    0.0
hydroph_interaction:ALA:86      0
Name: 94, dtype: object

>  <hbond:SER:87>  (96) 
hbond:SER:87    3
hbond:SER:87    3
Name: 94, dtype: object

>  <halogenbond:SER:87>  (96) 
halogenbond:SER:87    0.0
halogenbond:SER:87      0
Name: 94, dtype: object

>  <hbond:GLU:88>  (96) 
hbond:GLU:88    0.0
hbond:GLU:88      0
Name: 94, dtype: object

>  <hydroph_interaction:GLU:88>  (96) 
hydroph_interaction:GLU:88    0.0
hydroph_interaction:GLU:88      0
Name: 94, dtype: object

>  <halogenbond:GLU:88>  (96) 
halogenbond:GLU:88    0.0
halogenbond:GLU:88      0
Name: 94, dtype: object

>  <saltbridge:GLU:88>  (96) 
saltbridge:GLU:88    0.0
saltbridge:GLU:88      0
Name: 94, dtype: object

>  <hydroph_interaction:TYR:89>  (96) 
hydroph_interaction:TYR:89    0.0
hydroph_interaction:TYR:89      0
Name: 94, dtype: object

>  <pistack:TYR:89>  (96) 
pistack:TYR:89    0.0
pistack:TYR:89      0
Name: 94, dtype: object

>  <hbond:TYR:89>  (96) 
hbond:TYR:89    0.0
hbond:TYR:89      0
Name: 94, dtype: object

>  <halogenbond:TYR:89>  (96) 
halogenbond:TYR:89    0.0
halogenbond:TYR:89      0
Name: 94, dtype: object

>  <hydroph_interaction:TYR:90>  (96) 
hydroph_interaction:TYR:90    3.0
hydroph_interaction:TYR:90      3
Name: 94, dtype: object

>  <hbond:TYR:90>  (96) 
hbond:TYR:90    0.0
hbond:TYR:90      0
Name: 94, dtype: object

>  <pistack:TYR:90>  (96) 
pistack:TYR:90    0.0
pistack:TYR:90      0
Name: 94, dtype: object

>  <halogenbond:TYR:90>  (96) 
halogenbond:TYR:90    0.0
halogenbond:TYR:90      0
Name: 94, dtype: object

>  <pication:TYR:90>  (96) 
pication:TYR:90    0.0
pication:TYR:90      0
Name: 94, dtype: object

>  <hbond:PRO:91>  (96) 
hbond:PRO:91    0.0
hbond:PRO:91      0
Name: 94, dtype: object

>  <hydroph_interaction:PRO:91>  (96) 
hydroph_interaction:PRO:91    0.0
hydroph_interaction:PRO:91      0
Name: 94, dtype: object

>  <halogenbond:PRO:91>  (96) 
halogenbond:PRO:91    0.0
halogenbond:PRO:91      0
Name: 94, dtype: object

>  <hbond:ALA:92>  (96) 
hbond:ALA:92    NaN
hbond:ALA:92     -1
Name: 94, dtype: object

>  <hydroph_interaction:ALA:92>  (96) 
hydroph_interaction:ALA:92    0.0
hydroph_interaction:ALA:92      0
Name: 94, dtype: object

>  <saltbridge:ARG:93>  (96) 
saltbridge:ARG:93    0.0
saltbridge:ARG:93      0
Name: 94, dtype: object

>  <hbond:ARG:93>  (96) 
hbond:ARG:93    0.0
hbond:ARG:93      0
Name: 94, dtype: object

>  <hydroph_interaction:ARG:93>  (96) 
hydroph_interaction:ARG:93    1.0
hydroph_interaction:ARG:93      1
Name: 94, dtype: object

>  <halogenbond:ARG:93>  (96) 
halogenbond:ARG:93    0.0
halogenbond:ARG:93      0
Name: 94, dtype: object

>  <pication:ARG:93>  (96) 
pication:ARG:93    0.0
pication:ARG:93      0
Name: 94, dtype: object

>  <hydroph_interaction:TYR:94>  (96) 
hydroph_interaction:TYR:94    0.0
hydroph_interaction:TYR:94      0
Name: 94, dtype: object

>  <pistack:TYR:94>  (96) 
pistack:TYR:94    NaN
pistack:TYR:94     -1
Name: 94, dtype: object

>  <hbond:TYR:94>  (96) 
hbond:TYR:94    0.0
hbond:TYR:94      0
Name: 94, dtype: object

>  <hbond:GLN:95>  (96) 
hbond:GLN:95    0.0
hbond:GLN:95      0
Name: 94, dtype: object

>  <hydroph_interaction:GLN:95>  (96) 
hydroph_interaction:GLN:95    2.0
hydroph_interaction:GLN:95      2
Name: 94, dtype: object

>  <halogenbond:GLN:95>  (96) 
halogenbond:GLN:95    0.0
halogenbond:GLN:95      0
Name: 94, dtype: object

>  <hbond:SER:96>  (96) 
hbond:SER:96    0.0
hbond:SER:96      0
Name: 94, dtype: object

>  <halogenbond:HIS:97>  (96) 
halogenbond:HIS:97    NaN
halogenbond:HIS:97     -1
Name: 94, dtype: object

>  <hydroph_interaction:LEU:98>  (96) 
hydroph_interaction:LEU:98    0.0
hydroph_interaction:LEU:98      0
Name: 94, dtype: object

>  <hbond:LEU:98>  (96) 
hbond:LEU:98    0.0
hbond:LEU:98      0
Name: 94, dtype: object

>  <halogenbond:LEU:98>  (96) 
halogenbond:LEU:98    NaN
halogenbond:LEU:98     -1
Name: 94, dtype: object

>  <hbond:MET:99>  (96) 
hbond:MET:99    0.0
hbond:MET:99      0
Name: 94, dtype: object

>  <hydroph_interaction:MET:99>  (96) 
hydroph_interaction:MET:99    0.0
hydroph_interaction:MET:99      0
Name: 94, dtype: object

>  <halogenbond:MET:99>  (96) 
halogenbond:MET:99    0.0
halogenbond:MET:99      0
Name: 94, dtype: object

>  <hydroph_interaction:LEU:100>  (96) 
hydroph_interaction:LEU:100    0.0
hydroph_interaction:LEU:100      0
Name: 94, dtype: object

>  <hbond:LEU:100>  (96) 
hbond:LEU:100    0.0
hbond:LEU:100      0
Name: 94, dtype: object

>  <hbond:ALA:101>  (96) 
hbond:ALA:101    0.0
hbond:ALA:101      0
Name: 94, dtype: object

>  <hydroph_interaction:ALA:101>  (96) 
hydroph_interaction:ALA:101    0.0
hydroph_interaction:ALA:101      0
Name: 94, dtype: object

>  <hydroph_interaction:VAL:102>  (96) 
hydroph_interaction:VAL:102    0.0
hydroph_interaction:VAL:102      0
Name: 94, dtype: object

>  <hbond:VAL:102>  (96) 
hbond:VAL:102    0.0
hbond:VAL:102      0
Name: 94, dtype: object

>  <hbond:GLY:103>  (96) 
hbond:GLY:103    0.0
hbond:GLY:103      0
Name: 94, dtype: object

>  <halogenbond:GLY:103>  (96) 
halogenbond:GLY:103    0.0
halogenbond:GLY:103      0
Name: 94, dtype: object

>  <hbond:HIS:104>  (96) 
hbond:HIS:104    0.0
hbond:HIS:104      0
Name: 94, dtype: object

>  <saltbridge:HIS:104>  (96) 
saltbridge:HIS:104    0.0
saltbridge:HIS:104      0
Name: 94, dtype: object

>  <pication:HIS:104>  (96) 
pication:HIS:104    0.0
pication:HIS:104      0
Name: 94, dtype: object

>  <halogenbond:HIS:104>  (96) 
halogenbond:HIS:104    0.0
halogenbond:HIS:104      0
Name: 94, dtype: object

>  <hydroph_interaction:HIS:104>  (96) 
hydroph_interaction:HIS:104    0.0
hydroph_interaction:HIS:104      0
Name: 94, dtype: object

>  <pistack:HIS:104>  (96) 
pistack:HIS:104    0.0
pistack:HIS:104      0
Name: 94, dtype: object

>  <halogenbond:SER:105>  (96) 
halogenbond:SER:105    0.0
halogenbond:SER:105      0
Name: 94, dtype: object

>  <hbond:SER:105>  (96) 
hbond:SER:105    0.0
hbond:SER:105      0
Name: 94, dtype: object

>  <hbond:GLU:106>  (96) 
hbond:GLU:106    0.0
hbond:GLU:106      0
Name: 94, dtype: object

>  <hydroph_interaction:GLU:106>  (96) 
hydroph_interaction:GLU:106    0.0
hydroph_interaction:GLU:106      0
Name: 94, dtype: object

>  <saltbridge:GLU:106>  (96) 
saltbridge:GLU:106    0.0
saltbridge:GLU:106      0
Name: 94, dtype: object

>  <halogenbond:GLU:106>  (96) 
halogenbond:GLU:106    0.0
halogenbond:GLU:106      0
Name: 94, dtype: object

>  <hydroph_interaction:PRO:107>  (96) 
hydroph_interaction:PRO:107    0
hydroph_interaction:PRO:107    0
Name: 94, dtype: object

>  <hbond:PRO:107>  (96) 
hbond:PRO:107    0.0
hbond:PRO:107      0
Name: 94, dtype: object

>  <halogenbond:PRO:107>  (96) 
halogenbond:PRO:107    0.0
halogenbond:PRO:107      0
Name: 94, dtype: object

>  <hbond:GLY:108>  (96) 
hbond:GLY:108    0.0
hbond:GLY:108      0
Name: 94, dtype: object

>  <halogenbond:GLY:108>  (96) 
halogenbond:GLY:108    0.0
halogenbond:GLY:108      0
Name: 94, dtype: object

>  <hbond:ASP:109>  (96) 
hbond:ASP:109    0.0
hbond:ASP:109      0
Name: 94, dtype: object

>  <hydroph_interaction:ASP:109>  (96) 
hydroph_interaction:ASP:109    0.0
hydroph_interaction:ASP:109      0
Name: 94, dtype: object

>  <saltbridge:ASP:109>  (96) 
saltbridge:ASP:109    0.0
saltbridge:ASP:109      0
Name: 94, dtype: object

>  <halogenbond:CYS:110>  (96) 
halogenbond:CYS:110    0.0
halogenbond:CYS:110      0
Name: 94, dtype: object

>  <hbond:CYS:110>  (96) 
hbond:CYS:110    0.0
hbond:CYS:110      0
Name: 94, dtype: object

>  <hbond:GLY:111>  (96) 
hbond:GLY:111    0.0
hbond:GLY:111      0
Name: 94, dtype: object

>  <hbond:GLY:112>  (96) 
hbond:GLY:112    0.0
hbond:GLY:112      0
Name: 94, dtype: object

>  <hbond:ILE:113>  (96) 
hbond:ILE:113    0.0
hbond:ILE:113      0
Name: 94, dtype: object

>  <hydroph_interaction:LEU:114>  (96) 
hydroph_interaction:LEU:114    0.0
hydroph_interaction:LEU:114      0
Name: 94, dtype: object

>  <hbond:LEU:114>  (96) 
hbond:LEU:114    0.0
hbond:LEU:114      0
Name: 94, dtype: object

>  <hydroph_interaction:ILE:123>  (96) 
hydroph_interaction:ILE:123    0.0
hydroph_interaction:ILE:123      0
Name: 94, dtype: object

>  <hbond:ILE:123>  (96) 
hbond:ILE:123    0.0
hbond:ILE:123      0
Name: 94, dtype: object

>  <hydroph_interaction:VAL:124>  (96) 
hydroph_interaction:VAL:124    0.0
hydroph_interaction:VAL:124      0
Name: 94, dtype: object

>  <hbond:VAL:124>  (96) 
hbond:VAL:124    0.0
hbond:VAL:124      0
Name: 94, dtype: object

>  <halogenbond:VAL:124>  (96) 
halogenbond:VAL:124    0.0
halogenbond:VAL:124      0
Name: 94, dtype: object

>  <hbond:SER:125>  (96) 
hbond:SER:125    0
hbond:SER:125    0
Name: 94, dtype: object

>  <halogenbond:SER:125>  (96) 
halogenbond:SER:125    0.0
halogenbond:SER:125      0
Name: 94, dtype: object

>  <hydroph_interaction:THR:126>  (96) 
hydroph_interaction:THR:126    0.0
hydroph_interaction:THR:126      0
Name: 94, dtype: object

>  <hbond:THR:126>  (96) 
hbond:THR:126    0.0
hbond:THR:126      0
Name: 94, dtype: object

>  <halogenbond:THR:126>  (96) 
halogenbond:THR:126    0.0
halogenbond:THR:126      0
Name: 94, dtype: object

>  <hbond:GLY:127>  (96) 
hbond:GLY:127    0
hbond:GLY:127    0
Name: 94, dtype: object

>  <halogenbond:GLY:127>  (96) 
halogenbond:GLY:127    0.0
halogenbond:GLY:127      0
Name: 94, dtype: object

>  <hydroph_interaction:GLY:127>  (96) 
hydroph_interaction:GLY:127    0.0
hydroph_interaction:GLY:127      0
Name: 94, dtype: object

>  <hbond:GLY:128>  (96) 
hbond:GLY:128    0.0
hbond:GLY:128      0
Name: 94, dtype: object

>  <halogenbond:GLY:128>  (96) 
halogenbond:GLY:128    0.0
halogenbond:GLY:128      0
Name: 94, dtype: object

>  <hydroph_interaction:GLY:128>  (96) 
hydroph_interaction:GLY:128    0.0
hydroph_interaction:GLY:128      0
Name: 94, dtype: object

>  <hbond:ASN:129>  (96) 
hbond:ASN:129    0.0
hbond:ASN:129      0
Name: 94, dtype: object

>  <hydroph_interaction:ASN:129>  (96) 
hydroph_interaction:ASN:129    0.0
hydroph_interaction:ASN:129      0
Name: 94, dtype: object

>  <halogenbond:ASN:129>  (96) 
halogenbond:ASN:129    0.0
halogenbond:ASN:129      0
Name: 94, dtype: object

>  <hbond:GLY:130>  (96) 
hbond:GLY:130    0.0
hbond:GLY:130      0
Name: 94, dtype: object

>  <hbond:LEU:131>  (96) 
hbond:LEU:131    0.0
hbond:LEU:131      0
Name: 94, dtype: object

>  <hydroph_interaction:LEU:131>  (96) 
hydroph_interaction:LEU:131    0.0
hydroph_interaction:LEU:131      0
Name: 94, dtype: object

>  <halogenbond:LEU:131>  (96) 
halogenbond:LEU:131    0.0
halogenbond:LEU:131      0
Name: 94, dtype: object

>  <hydroph_interaction:VAL:132>  (96) 
hydroph_interaction:VAL:132    0.0
hydroph_interaction:VAL:132      0
Name: 94, dtype: object

>  <hbond:VAL:132>  (96) 
hbond:VAL:132    0.0
hbond:VAL:132      0
Name: 94, dtype: object

>  <hbond:GLY:133>  (96) 
hbond:GLY:133    0.0
hbond:GLY:133      0
Name: 94, dtype: object

>  <halogenbond:GLY:133>  (96) 
halogenbond:GLY:133    0.0
halogenbond:GLY:133      0
Name: 94, dtype: object

>  <hydroph_interaction:PHE:134>  (96) 
hydroph_interaction:PHE:134    0.0
hydroph_interaction:PHE:134      0
Name: 94, dtype: object

>  <hbond:PHE:134>  (96) 
hbond:PHE:134    0.0
hbond:PHE:134      0
Name: 94, dtype: object

>  <pistack:PHE:134>  (96) 
pistack:PHE:134    0.0
pistack:PHE:134      0
Name: 94, dtype: object

>  <pication:PHE:134>  (96) 
pication:PHE:134    0.0
pication:PHE:134      0
Name: 94, dtype: object

>  <halogenbond:PHE:134>  (96) 
halogenbond:PHE:134    NaN
halogenbond:PHE:134     -1
Name: 94, dtype: object

>  <hydroph_interaction:ALA:135>  (96) 
hydroph_interaction:ALA:135    0.0
hydroph_interaction:ALA:135      0
Name: 94, dtype: object

>  <hbond:ALA:135>  (96) 
hbond:ALA:135    0.0
hbond:ALA:135      0
Name: 94, dtype: object

$$$$
Z230660726
     RDKit          3D

 15 15  0  0  0  0  0  0  0  0999 V2000
   30.4219    8.3369    9.0081 C   0  0  0  0  0  0  0  0  0  0  0  0
   30.9581    9.3958    8.1918 C   0  0  0  0  0  0  0  0  0  0  0  0
   32.0442    9.0985    7.2503 C   0  0  0  0  0  0  0  0  0  0  0  0
   32.6774   10.0954    6.3805 C   0  0  0  0  0  0  0  0  0  0  0  0
   33.7208    9.7843    5.5010 C   0  0  0  0  0  0  0  0  0  0  0  0
   32.1534   11.3939    6.5026 C   0  0  0  0  0  0  0  0  0  0  0  0
   31.1001   11.6847    7.4014 C   0  0  0  0  0  0  0  0  0  0  0  0
   30.5249   12.9502    7.5588 N   0  0  0  0  0  0  0  0  0  0  0  0
   29.1751   13.2078    7.6024 C   0  0  0  0  0  0  0  0  0  0  0  0
   28.2575   12.4212    7.5037 O   0  0  0  0  0  0  0  0  0  0  0  0
   28.9875   14.6513    7.7667 N   0  0  0  0  0  0  0  0  0  0  0  0
   28.8999   15.2739    9.0736 C   0  0  0  0  0  0  0  0  0  0  0  0
   29.7710   14.5726   10.0858 C   0  0  0  0  0  0  0  0  0  0  0  0
   27.4516   15.2893    9.4954 C   0  0  0  0  0  0  0  0  0  0  0  0
   30.5277   10.7034    8.2220 C   0  0  0  0  0  0  0  0  0  0  0  0
  1  2  1  0
  2  3  2  0
  3  4  1  0
  4  5  1  0
  4  6  2  0
  6  7  1  0
  7  8  1  0
  8  9  1  0
  9 10  2  0
  9 11  1  0
 11 12  1  0
 12 13  1  0
 12 14  1  0
  7 15  2  0
 15  2  1  0
A    1
 C1 
A    2
 C2 
A    3
 C3 
A    4
 C4 
A    5
 C5 
A    6
 C6 
A    7
 C7 
A    8
 N1 
A    9
 C8 
A   10
 O1 
A   11
 N2 
A   12
 C9 
A   13
 C10
A   14
 C11
A   15
 C12
M  END
>  <ref_pdb>  (97) 
Ax0310a

>  <ref_mols>  (97) 
Ax0451a,Ax0739a

>  <original SMILES>  (97) 
Cc1cc(C)cc(NC(=O)NC(C)C)c1

>  <rationale>  (97) 
info halogenbond:I82+H97+F134+L98+S66; hbond:S87+E88+A92+S37; hydroph_interaction:V124+Y90+Y89+H21+P107+V18; pication:Y63+F83; pistack:Y94; 

>  <intxn_cluster>  (97) 
107

>  <intxn_cluster_rank>  (97) 
1

>  <N_interactions>  (97) 
9

>  <∆∆G>  (97) 
-13.252562

>  <$/mg>  (97) 
163.0

>  <comRMSD>  (97) 
0.767922

>  <N_rotatable_bonds>  (97) 
6

>  <deep_P1_sidechain>  (97) 
True

>  <farthest_distance_to_substrate>  (97) 
2.419533

>  <hbond:SER:7>  (97) 
hbond:SER:7    0.0
hbond:SER:7      0
Name: 95, dtype: object

>  <halogenbond:SER:7>  (97) 
halogenbond:SER:7    0.0
halogenbond:SER:7      0
Name: 95, dtype: object

>  <hbond:GLY:8>  (97) 
hbond:GLY:8    0.0
hbond:GLY:8      0
Name: 95, dtype: object

>  <hydroph_interaction:VAL:18>  (97) 
hydroph_interaction:VAL:18    NaN
hydroph_interaction:VAL:18     -1
Name: 95, dtype: object

>  <hbond:ASN:19>  (97) 
hbond:ASN:19    0.0
hbond:ASN:19      0
Name: 95, dtype: object

>  <hydroph_interaction:ASN:19>  (97) 
hydroph_interaction:ASN:19    0.0
hydroph_interaction:ASN:19      0
Name: 95, dtype: object

>  <halogenbond:ASN:19>  (97) 
halogenbond:ASN:19    0.0
halogenbond:ASN:19      0
Name: 95, dtype: object

>  <hbond:ARG:20>  (97) 
hbond:ARG:20    0.0
hbond:ARG:20      0
Name: 95, dtype: object

>  <hydroph_interaction:ARG:20>  (97) 
hydroph_interaction:ARG:20    0.0
hydroph_interaction:ARG:20      0
Name: 95, dtype: object

>  <saltbridge:ARG:20>  (97) 
saltbridge:ARG:20    0.0
saltbridge:ARG:20      0
Name: 95, dtype: object

>  <halogenbond:ARG:20>  (97) 
halogenbond:ARG:20    0.0
halogenbond:ARG:20      0
Name: 95, dtype: object

>  <pication:ARG:20>  (97) 
pication:ARG:20    0.0
pication:ARG:20      0
Name: 95, dtype: object

>  <hbond:HIS:21>  (97) 
hbond:HIS:21    0.0
hbond:HIS:21      0
Name: 95, dtype: object

>  <hydroph_interaction:HIS:21>  (97) 
hydroph_interaction:HIS:21    1.0
hydroph_interaction:HIS:21      1
Name: 95, dtype: object

>  <pistack:HIS:21>  (97) 
pistack:HIS:21    0.0
pistack:HIS:21      0
Name: 95, dtype: object

>  <pication:HIS:21>  (97) 
pication:HIS:21    0.0
pication:HIS:21      0
Name: 95, dtype: object

>  <saltbridge:HIS:21>  (97) 
saltbridge:HIS:21    0.0
saltbridge:HIS:21      0
Name: 95, dtype: object

>  <halogenbond:HIS:21>  (97) 
halogenbond:HIS:21    0.0
halogenbond:HIS:21      0
Name: 95, dtype: object

>  <hydroph_interaction:LEU:22>  (97) 
hydroph_interaction:LEU:22    0.0
hydroph_interaction:LEU:22      0
Name: 95, dtype: object

>  <hbond:LEU:22>  (97) 
hbond:LEU:22    0.0
hbond:LEU:22      0
Name: 95, dtype: object

>  <hydroph_interaction:TRP:28>  (97) 
hydroph_interaction:TRP:28    0.0
hydroph_interaction:TRP:28      0
Name: 95, dtype: object

>  <hbond:SER:36>  (97) 
hbond:SER:36    0.0
hbond:SER:36      0
Name: 95, dtype: object

>  <halogenbond:SER:36>  (97) 
halogenbond:SER:36    0.0
halogenbond:SER:36      0
Name: 95, dtype: object

>  <hbond:SER:37>  (97) 
hbond:SER:37    NaN
hbond:SER:37     -1
Name: 95, dtype: object

>  <hbond:ARG:38>  (97) 
hbond:ARG:38    0.0
hbond:ARG:38      0
Name: 95, dtype: object

>  <halogenbond:ARG:38>  (97) 
halogenbond:ARG:38    0.0
halogenbond:ARG:38      0
Name: 95, dtype: object

>  <saltbridge:ASP:39>  (97) 
saltbridge:ASP:39    0.0
saltbridge:ASP:39      0
Name: 95, dtype: object

>  <halogenbond:ASP:39>  (97) 
halogenbond:ASP:39    0.0
halogenbond:ASP:39      0
Name: 95, dtype: object

>  <hbond:ASP:39>  (97) 
hbond:ASP:39    0.0
hbond:ASP:39      0
Name: 95, dtype: object

>  <hydroph_interaction:ASP:39>  (97) 
hydroph_interaction:ASP:39    0.0
hydroph_interaction:ASP:39      0
Name: 95, dtype: object

>  <hydroph_interaction:LEU:40>  (97) 
hydroph_interaction:LEU:40    0.0
hydroph_interaction:LEU:40      0
Name: 95, dtype: object

>  <hydroph_interaction:TYR:63>  (97) 
hydroph_interaction:TYR:63    0.0
hydroph_interaction:TYR:63      0
Name: 95, dtype: object

>  <hbond:TYR:63>  (97) 
hbond:TYR:63    0.0
hbond:TYR:63      0
Name: 95, dtype: object

>  <pistack:TYR:63>  (97) 
pistack:TYR:63    0.0
pistack:TYR:63      0
Name: 95, dtype: object

>  <pication:TYR:63>  (97) 
pication:TYR:63    NaN
pication:TYR:63     -1
Name: 95, dtype: object

>  <halogenbond:TYR:64>  (97) 
halogenbond:TYR:64    0.0
halogenbond:TYR:64      0
Name: 95, dtype: object

>  <hbond:TYR:64>  (97) 
hbond:TYR:64    0.0
hbond:TYR:64      0
Name: 95, dtype: object

>  <hydroph_interaction:TYR:64>  (97) 
hydroph_interaction:TYR:64    0.0
hydroph_interaction:TYR:64      0
Name: 95, dtype: object

>  <halogenbond:CYS:65>  (97) 
halogenbond:CYS:65    0.0
halogenbond:CYS:65      0
Name: 95, dtype: object

>  <hbond:CYS:65>  (97) 
hbond:CYS:65    0.0
hbond:CYS:65      0
Name: 95, dtype: object

>  <hbond:SER:66>  (97) 
hbond:SER:66    0.0
hbond:SER:66      0
Name: 95, dtype: object

>  <halogenbond:SER:66>  (97) 
halogenbond:SER:66    NaN
halogenbond:SER:66     -1
Name: 95, dtype: object

>  <hbond:SER:67>  (97) 
hbond:SER:67    0.0
hbond:SER:67      0
Name: 95, dtype: object

>  <halogenbond:SER:67>  (97) 
halogenbond:SER:67    0.0
halogenbond:SER:67      0
Name: 95, dtype: object

>  <hbond:ARG:68>  (97) 
hbond:ARG:68    0.0
hbond:ARG:68      0
Name: 95, dtype: object

>  <saltbridge:ARG:68>  (97) 
saltbridge:ARG:68    0.0
saltbridge:ARG:68      0
Name: 95, dtype: object

>  <hydroph_interaction:ARG:68>  (97) 
hydroph_interaction:ARG:68    0.0
hydroph_interaction:ARG:68      0
Name: 95, dtype: object

>  <pication:ARG:68>  (97) 
pication:ARG:68    0.0
pication:ARG:68      0
Name: 95, dtype: object

>  <hydroph_interaction:TYR:72>  (97) 
hydroph_interaction:TYR:72    0.0
hydroph_interaction:TYR:72      0
Name: 95, dtype: object

>  <hydroph_interaction:VAL:74>  (97) 
hydroph_interaction:VAL:74    0.0
hydroph_interaction:VAL:74      0
Name: 95, dtype: object

>  <hydroph_interaction:PHE:76>  (97) 
hydroph_interaction:PHE:76    0.0
hydroph_interaction:PHE:76      0
Name: 95, dtype: object

>  <hbond:SER:77>  (97) 
hbond:SER:77    0.0
hbond:SER:77      0
Name: 95, dtype: object

>  <hbond:SER:80>  (97) 
hbond:SER:80    0.0
hbond:SER:80      0
Name: 95, dtype: object

>  <hbond:LEU:81>  (97) 
hbond:LEU:81    0.0
hbond:LEU:81      0
Name: 95, dtype: object

>  <halogenbond:LEU:81>  (97) 
halogenbond:LEU:81    0.0
halogenbond:LEU:81      0
Name: 95, dtype: object

>  <hydroph_interaction:LEU:81>  (97) 
hydroph_interaction:LEU:81    0.0
hydroph_interaction:LEU:81      0
Name: 95, dtype: object

>  <hydroph_interaction:ILE:82>  (97) 
hydroph_interaction:ILE:82    0.0
hydroph_interaction:ILE:82      0
Name: 95, dtype: object

>  <halogenbond:ILE:82>  (97) 
halogenbond:ILE:82    NaN
halogenbond:ILE:82     -1
Name: 95, dtype: object

>  <hbond:ILE:82>  (97) 
hbond:ILE:82    0.0
hbond:ILE:82      0
Name: 95, dtype: object

>  <hbond:PHE:83>  (97) 
hbond:PHE:83    0.0
hbond:PHE:83      0
Name: 95, dtype: object

>  <hydroph_interaction:PHE:83>  (97) 
hydroph_interaction:PHE:83    0.0
hydroph_interaction:PHE:83      0
Name: 95, dtype: object

>  <halogenbond:PHE:83>  (97) 
halogenbond:PHE:83    0.0
halogenbond:PHE:83      0
Name: 95, dtype: object

>  <pistack:PHE:83>  (97) 
pistack:PHE:83    0.0
pistack:PHE:83      0
Name: 95, dtype: object

>  <pication:PHE:83>  (97) 
pication:PHE:83    NaN
pication:PHE:83     -1
Name: 95, dtype: object

>  <hydroph_interaction:VAL:84>  (97) 
hydroph_interaction:VAL:84    0.0
hydroph_interaction:VAL:84      0
Name: 95, dtype: object

>  <halogenbond:VAL:84>  (97) 
halogenbond:VAL:84    0.0
halogenbond:VAL:84      0
Name: 95, dtype: object

>  <hbond:VAL:84>  (97) 
hbond:VAL:84    0.0
hbond:VAL:84      0
Name: 95, dtype: object

>  <hydroph_interaction:GLU:85>  (97) 
hydroph_interaction:GLU:85    0.0
hydroph_interaction:GLU:85      0
Name: 95, dtype: object

>  <hbond:GLU:85>  (97) 
hbond:GLU:85    0.0
hbond:GLU:85      0
Name: 95, dtype: object

>  <halogenbond:GLU:85>  (97) 
halogenbond:GLU:85    0.0
halogenbond:GLU:85      0
Name: 95, dtype: object

>  <saltbridge:GLU:85>  (97) 
saltbridge:GLU:85    0.0
saltbridge:GLU:85      0
Name: 95, dtype: object

>  <halogenbond:ALA:86>  (97) 
halogenbond:ALA:86    0.0
halogenbond:ALA:86      0
Name: 95, dtype: object

>  <hbond:ALA:86>  (97) 
hbond:ALA:86    0.0
hbond:ALA:86      0
Name: 95, dtype: object

>  <hydroph_interaction:ALA:86>  (97) 
hydroph_interaction:ALA:86    0.0
hydroph_interaction:ALA:86      0
Name: 95, dtype: object

>  <hbond:SER:87>  (97) 
hbond:SER:87    2
hbond:SER:87    2
Name: 95, dtype: object

>  <halogenbond:SER:87>  (97) 
halogenbond:SER:87    0.0
halogenbond:SER:87      0
Name: 95, dtype: object

>  <hbond:GLU:88>  (97) 
hbond:GLU:88    1.0
hbond:GLU:88      1
Name: 95, dtype: object

>  <hydroph_interaction:GLU:88>  (97) 
hydroph_interaction:GLU:88    0.0
hydroph_interaction:GLU:88      0
Name: 95, dtype: object

>  <halogenbond:GLU:88>  (97) 
halogenbond:GLU:88    0.0
halogenbond:GLU:88      0
Name: 95, dtype: object

>  <saltbridge:GLU:88>  (97) 
saltbridge:GLU:88    0.0
saltbridge:GLU:88      0
Name: 95, dtype: object

>  <hydroph_interaction:TYR:89>  (97) 
hydroph_interaction:TYR:89    1.0
hydroph_interaction:TYR:89      1
Name: 95, dtype: object

>  <pistack:TYR:89>  (97) 
pistack:TYR:89    0.0
pistack:TYR:89      0
Name: 95, dtype: object

>  <hbond:TYR:89>  (97) 
hbond:TYR:89    0.0
hbond:TYR:89      0
Name: 95, dtype: object

>  <halogenbond:TYR:89>  (97) 
halogenbond:TYR:89    0.0
halogenbond:TYR:89      0
Name: 95, dtype: object

>  <hydroph_interaction:TYR:90>  (97) 
hydroph_interaction:TYR:90    2.0
hydroph_interaction:TYR:90      2
Name: 95, dtype: object

>  <hbond:TYR:90>  (97) 
hbond:TYR:90    0.0
hbond:TYR:90      0
Name: 95, dtype: object

>  <pistack:TYR:90>  (97) 
pistack:TYR:90    0.0
pistack:TYR:90      0
Name: 95, dtype: object

>  <halogenbond:TYR:90>  (97) 
halogenbond:TYR:90    0.0
halogenbond:TYR:90      0
Name: 95, dtype: object

>  <pication:TYR:90>  (97) 
pication:TYR:90    0.0
pication:TYR:90      0
Name: 95, dtype: object

>  <hbond:PRO:91>  (97) 
hbond:PRO:91    0.0
hbond:PRO:91      0
Name: 95, dtype: object

>  <hydroph_interaction:PRO:91>  (97) 
hydroph_interaction:PRO:91    0.0
hydroph_interaction:PRO:91      0
Name: 95, dtype: object

>  <halogenbond:PRO:91>  (97) 
halogenbond:PRO:91    0.0
halogenbond:PRO:91      0
Name: 95, dtype: object

>  <hbond:ALA:92>  (97) 
hbond:ALA:92    NaN
hbond:ALA:92     -1
Name: 95, dtype: object

>  <hydroph_interaction:ALA:92>  (97) 
hydroph_interaction:ALA:92    0.0
hydroph_interaction:ALA:92      0
Name: 95, dtype: object

>  <saltbridge:ARG:93>  (97) 
saltbridge:ARG:93    0.0
saltbridge:ARG:93      0
Name: 95, dtype: object

>  <hbond:ARG:93>  (97) 
hbond:ARG:93    0.0
hbond:ARG:93      0
Name: 95, dtype: object

>  <hydroph_interaction:ARG:93>  (97) 
hydroph_interaction:ARG:93    0.0
hydroph_interaction:ARG:93      0
Name: 95, dtype: object

>  <halogenbond:ARG:93>  (97) 
halogenbond:ARG:93    0.0
halogenbond:ARG:93      0
Name: 95, dtype: object

>  <pication:ARG:93>  (97) 
pication:ARG:93    0.0
pication:ARG:93      0
Name: 95, dtype: object

>  <hydroph_interaction:TYR:94>  (97) 
hydroph_interaction:TYR:94    0.0
hydroph_interaction:TYR:94      0
Name: 95, dtype: object

>  <pistack:TYR:94>  (97) 
pistack:TYR:94    NaN
pistack:TYR:94     -1
Name: 95, dtype: object

>  <hbond:TYR:94>  (97) 
hbond:TYR:94    0.0
hbond:TYR:94      0
Name: 95, dtype: object

>  <hbond:GLN:95>  (97) 
hbond:GLN:95    0.0
hbond:GLN:95      0
Name: 95, dtype: object

>  <hydroph_interaction:GLN:95>  (97) 
hydroph_interaction:GLN:95    0.0
hydroph_interaction:GLN:95      0
Name: 95, dtype: object

>  <halogenbond:GLN:95>  (97) 
halogenbond:GLN:95    0.0
halogenbond:GLN:95      0
Name: 95, dtype: object

>  <hbond:SER:96>  (97) 
hbond:SER:96    0.0
hbond:SER:96      0
Name: 95, dtype: object

>  <halogenbond:HIS:97>  (97) 
halogenbond:HIS:97    NaN
halogenbond:HIS:97     -1
Name: 95, dtype: object

>  <hydroph_interaction:LEU:98>  (97) 
hydroph_interaction:LEU:98    0.0
hydroph_interaction:LEU:98      0
Name: 95, dtype: object

>  <hbond:LEU:98>  (97) 
hbond:LEU:98    0.0
hbond:LEU:98      0
Name: 95, dtype: object

>  <halogenbond:LEU:98>  (97) 
halogenbond:LEU:98    NaN
halogenbond:LEU:98     -1
Name: 95, dtype: object

>  <hbond:MET:99>  (97) 
hbond:MET:99    0.0
hbond:MET:99      0
Name: 95, dtype: object

>  <hydroph_interaction:MET:99>  (97) 
hydroph_interaction:MET:99    0.0
hydroph_interaction:MET:99      0
Name: 95, dtype: object

>  <halogenbond:MET:99>  (97) 
halogenbond:MET:99    0.0
halogenbond:MET:99      0
Name: 95, dtype: object

>  <hydroph_interaction:LEU:100>  (97) 
hydroph_interaction:LEU:100    0.0
hydroph_interaction:LEU:100      0
Name: 95, dtype: object

>  <hbond:LEU:100>  (97) 
hbond:LEU:100    0.0
hbond:LEU:100      0
Name: 95, dtype: object

>  <hbond:ALA:101>  (97) 
hbond:ALA:101    0.0
hbond:ALA:101      0
Name: 95, dtype: object

>  <hydroph_interaction:ALA:101>  (97) 
hydroph_interaction:ALA:101    0.0
hydroph_interaction:ALA:101      0
Name: 95, dtype: object

>  <hydroph_interaction:VAL:102>  (97) 
hydroph_interaction:VAL:102    0.0
hydroph_interaction:VAL:102      0
Name: 95, dtype: object

>  <hbond:VAL:102>  (97) 
hbond:VAL:102    0.0
hbond:VAL:102      0
Name: 95, dtype: object

>  <hbond:GLY:103>  (97) 
hbond:GLY:103    0.0
hbond:GLY:103      0
Name: 95, dtype: object

>  <halogenbond:GLY:103>  (97) 
halogenbond:GLY:103    0.0
halogenbond:GLY:103      0
Name: 95, dtype: object

>  <hbond:HIS:104>  (97) 
hbond:HIS:104    0.0
hbond:HIS:104      0
Name: 95, dtype: object

>  <saltbridge:HIS:104>  (97) 
saltbridge:HIS:104    0.0
saltbridge:HIS:104      0
Name: 95, dtype: object

>  <pication:HIS:104>  (97) 
pication:HIS:104    0.0
pication:HIS:104      0
Name: 95, dtype: object

>  <halogenbond:HIS:104>  (97) 
halogenbond:HIS:104    0.0
halogenbond:HIS:104      0
Name: 95, dtype: object

>  <hydroph_interaction:HIS:104>  (97) 
hydroph_interaction:HIS:104    0.0
hydroph_interaction:HIS:104      0
Name: 95, dtype: object

>  <pistack:HIS:104>  (97) 
pistack:HIS:104    0.0
pistack:HIS:104      0
Name: 95, dtype: object

>  <halogenbond:SER:105>  (97) 
halogenbond:SER:105    0.0
halogenbond:SER:105      0
Name: 95, dtype: object

>  <hbond:SER:105>  (97) 
hbond:SER:105    0.0
hbond:SER:105      0
Name: 95, dtype: object

>  <hbond:GLU:106>  (97) 
hbond:GLU:106    0.0
hbond:GLU:106      0
Name: 95, dtype: object

>  <hydroph_interaction:GLU:106>  (97) 
hydroph_interaction:GLU:106    0.0
hydroph_interaction:GLU:106      0
Name: 95, dtype: object

>  <saltbridge:GLU:106>  (97) 
saltbridge:GLU:106    0.0
saltbridge:GLU:106      0
Name: 95, dtype: object

>  <halogenbond:GLU:106>  (97) 
halogenbond:GLU:106    0.0
halogenbond:GLU:106      0
Name: 95, dtype: object

>  <hydroph_interaction:PRO:107>  (97) 
hydroph_interaction:PRO:107    1
hydroph_interaction:PRO:107    1
Name: 95, dtype: object

>  <hbond:PRO:107>  (97) 
hbond:PRO:107    0.0
hbond:PRO:107      0
Name: 95, dtype: object

>  <halogenbond:PRO:107>  (97) 
halogenbond:PRO:107    0.0
halogenbond:PRO:107      0
Name: 95, dtype: object

>  <hbond:GLY:108>  (97) 
hbond:GLY:108    0.0
hbond:GLY:108      0
Name: 95, dtype: object

>  <halogenbond:GLY:108>  (97) 
halogenbond:GLY:108    0.0
halogenbond:GLY:108      0
Name: 95, dtype: object

>  <hbond:ASP:109>  (97) 
hbond:ASP:109    0.0
hbond:ASP:109      0
Name: 95, dtype: object

>  <hydroph_interaction:ASP:109>  (97) 
hydroph_interaction:ASP:109    0.0
hydroph_interaction:ASP:109      0
Name: 95, dtype: object

>  <saltbridge:ASP:109>  (97) 
saltbridge:ASP:109    0.0
saltbridge:ASP:109      0
Name: 95, dtype: object

>  <halogenbond:CYS:110>  (97) 
halogenbond:CYS:110    0.0
halogenbond:CYS:110      0
Name: 95, dtype: object

>  <hbond:CYS:110>  (97) 
hbond:CYS:110    0.0
hbond:CYS:110      0
Name: 95, dtype: object

>  <hbond:GLY:111>  (97) 
hbond:GLY:111    0.0
hbond:GLY:111      0
Name: 95, dtype: object

>  <hbond:GLY:112>  (97) 
hbond:GLY:112    0.0
hbond:GLY:112      0
Name: 95, dtype: object

>  <hbond:ILE:113>  (97) 
hbond:ILE:113    0.0
hbond:ILE:113      0
Name: 95, dtype: object

>  <hydroph_interaction:LEU:114>  (97) 
hydroph_interaction:LEU:114    0.0
hydroph_interaction:LEU:114      0
Name: 95, dtype: object

>  <hbond:LEU:114>  (97) 
hbond:LEU:114    0.0
hbond:LEU:114      0
Name: 95, dtype: object

>  <hydroph_interaction:ILE:123>  (97) 
hydroph_interaction:ILE:123    0.0
hydroph_interaction:ILE:123      0
Name: 95, dtype: object

>  <hbond:ILE:123>  (97) 
hbond:ILE:123    0.0
hbond:ILE:123      0
Name: 95, dtype: object

>  <hydroph_interaction:VAL:124>  (97) 
hydroph_interaction:VAL:124    1.0
hydroph_interaction:VAL:124      1
Name: 95, dtype: object

>  <hbond:VAL:124>  (97) 
hbond:VAL:124    0.0
hbond:VAL:124      0
Name: 95, dtype: object

>  <halogenbond:VAL:124>  (97) 
halogenbond:VAL:124    0.0
halogenbond:VAL:124      0
Name: 95, dtype: object

>  <hbond:SER:125>  (97) 
hbond:SER:125    0
hbond:SER:125    0
Name: 95, dtype: object

>  <halogenbond:SER:125>  (97) 
halogenbond:SER:125    0.0
halogenbond:SER:125      0
Name: 95, dtype: object

>  <hydroph_interaction:THR:126>  (97) 
hydroph_interaction:THR:126    0.0
hydroph_interaction:THR:126      0
Name: 95, dtype: object

>  <hbond:THR:126>  (97) 
hbond:THR:126    0.0
hbond:THR:126      0
Name: 95, dtype: object

>  <halogenbond:THR:126>  (97) 
halogenbond:THR:126    0.0
halogenbond:THR:126      0
Name: 95, dtype: object

>  <hbond:GLY:127>  (97) 
hbond:GLY:127    0
hbond:GLY:127    0
Name: 95, dtype: object

>  <halogenbond:GLY:127>  (97) 
halogenbond:GLY:127    0.0
halogenbond:GLY:127      0
Name: 95, dtype: object

>  <hydroph_interaction:GLY:127>  (97) 
hydroph_interaction:GLY:127    0.0
hydroph_interaction:GLY:127      0
Name: 95, dtype: object

>  <hbond:GLY:128>  (97) 
hbond:GLY:128    0.0
hbond:GLY:128      0
Name: 95, dtype: object

>  <halogenbond:GLY:128>  (97) 
halogenbond:GLY:128    0.0
halogenbond:GLY:128      0
Name: 95, dtype: object

>  <hydroph_interaction:GLY:128>  (97) 
hydroph_interaction:GLY:128    0.0
hydroph_interaction:GLY:128      0
Name: 95, dtype: object

>  <hbond:ASN:129>  (97) 
hbond:ASN:129    0.0
hbond:ASN:129      0
Name: 95, dtype: object

>  <hydroph_interaction:ASN:129>  (97) 
hydroph_interaction:ASN:129    0.0
hydroph_interaction:ASN:129      0
Name: 95, dtype: object

>  <halogenbond:ASN:129>  (97) 
halogenbond:ASN:129    0.0
halogenbond:ASN:129      0
Name: 95, dtype: object

>  <hbond:GLY:130>  (97) 
hbond:GLY:130    0.0
hbond:GLY:130      0
Name: 95, dtype: object

>  <hbond:LEU:131>  (97) 
hbond:LEU:131    0.0
hbond:LEU:131      0
Name: 95, dtype: object

>  <hydroph_interaction:LEU:131>  (97) 
hydroph_interaction:LEU:131    0.0
hydroph_interaction:LEU:131      0
Name: 95, dtype: object

>  <halogenbond:LEU:131>  (97) 
halogenbond:LEU:131    0.0
halogenbond:LEU:131      0
Name: 95, dtype: object

>  <hydroph_interaction:VAL:132>  (97) 
hydroph_interaction:VAL:132    0.0
hydroph_interaction:VAL:132      0
Name: 95, dtype: object

>  <hbond:VAL:132>  (97) 
hbond:VAL:132    0.0
hbond:VAL:132      0
Name: 95, dtype: object

>  <hbond:GLY:133>  (97) 
hbond:GLY:133    0.0
hbond:GLY:133      0
Name: 95, dtype: object

>  <halogenbond:GLY:133>  (97) 
halogenbond:GLY:133    0.0
halogenbond:GLY:133      0
Name: 95, dtype: object

>  <hydroph_interaction:PHE:134>  (97) 
hydroph_interaction:PHE:134    0.0
hydroph_interaction:PHE:134      0
Name: 95, dtype: object

>  <hbond:PHE:134>  (97) 
hbond:PHE:134    0.0
hbond:PHE:134      0
Name: 95, dtype: object

>  <pistack:PHE:134>  (97) 
pistack:PHE:134    0.0
pistack:PHE:134      0
Name: 95, dtype: object

>  <pication:PHE:134>  (97) 
pication:PHE:134    0.0
pication:PHE:134      0
Name: 95, dtype: object

>  <halogenbond:PHE:134>  (97) 
halogenbond:PHE:134    NaN
halogenbond:PHE:134     -1
Name: 95, dtype: object

>  <hydroph_interaction:ALA:135>  (97) 
hydroph_interaction:ALA:135    0.0
hydroph_interaction:ALA:135      0
Name: 95, dtype: object

>  <hbond:ALA:135>  (97) 
hbond:ALA:135    0.0
hbond:ALA:135      0
Name: 95, dtype: object

$$$$
PV_005597406472
     RDKit          3D

 17 18  0  0  0  0  0  0  0  0999 V2000
   30.7530    8.4055    8.8013 C   0  0  0  0  0  0  0  0  0  0  0  0
   31.0824    9.5587    8.0113 N   0  0  0  0  0  0  0  0  0  0  0  0
   32.0124    9.6459    7.0153 C   0  0  0  0  0  0  0  0  0  0  0  0
   31.9898   10.9373    6.5413 C   0  0  0  0  0  0  0  0  0  0  0  0
   31.0110   11.6746    7.2663 C   0  0  0  0  0  0  0  0  0  0  0  0
   30.5964   12.9959    7.1826 C   0  0  0  0  0  0  0  0  0  0  0  0
   29.5085   13.3705    7.9102 N   0  0  0  0  0  0  0  0  0  0  0  0
   29.6903   14.0471    9.0858 C   0  0  0  0  0  0  0  0  0  0  0  0
   28.6428   14.4917    9.8809 N   0  0  0  0  0  0  0  0  0  0  0  0
   30.9082   14.3631    9.6415 N   0  0  0  0  0  0  0  0  0  0  0  0
   31.3640   15.5318   10.2950 C   0  0  0  0  0  0  0  0  0  0  0  0
   30.8106   15.8554   11.5050 C   0  0  0  0  0  0  0  0  0  0  0  0
   31.2803   16.9925   12.1402 C   0  0  0  0  0  0  0  0  0  0  0  0
   32.2547   17.7871   11.6011 C   0  0  0  0  0  0  0  0  0  0  0  0
   32.7680   17.4321   10.3904 C   0  0  0  0  0  0  0  0  0  0  0  0
   32.3211   16.3182    9.7729 N   0  0  0  0  0  0  0  0  0  0  0  0
   30.4891   10.7676    8.1576 C   0  0  0  0  0  0  0  0  0  0  0  0
  1  2  1  0
  2  3  1  0
  3  4  2  0
  4  5  1  0
  5  6  1  0
  6  7  1  0
  7  8  2  3
  8  9  1  0
  8 10  1  0
 10 11  1  0
 11 12  2  0
 12 13  1  0
 13 14  2  0
 14 15  1  0
 15 16  2  0
  5 17  2  0
 17  2  1  0
 16 11  1  0
A    1
 C1 
A    2
 N1 
A    3
 C2 
A    4
 C3 
A    5
 C4 
A    6
 C5 
A    7
 N2 
A    8
 C6 
A    9
 N3 
A   10
 N4 
A   11
 C7 
A   12
 C8 
A   13
 C9 
A   14
 C10
A   15
 C11
A   16
 N5 
A   17
 C12
M  END
>  <ref_pdb>  (98) 
Ax0310a

>  <ref_mols>  (98) 
Ax0451a,Ax0416a

>  <original SMILES>  (98) 
Cn1ccc(CN=C(N)Nc2ccccn2)c1

>  <rationale>  (98) 
info halogenbond:I82+H97+F134+L98+S66; hbond:S87+D39+A92+S37; hydroph_interaction:V84+Y90+T126+P107+R93+V18; pication:H21+Y63+F83; pistack:Y94; 

>  <intxn_cluster>  (98) 
206

>  <intxn_cluster_rank>  (98) 
2

>  <N_interactions>  (98) 
9

>  <∆∆G>  (98) 
-9.493793

>  <$/mg>  (98) 
163.0

>  <comRMSD>  (98) 
0.860075

>  <N_rotatable_bonds>  (98) 
4

>  <deep_P1_sidechain>  (98) 
False

>  <farthest_distance_to_substrate>  (98) 
2.310476

>  <hbond:SER:7>  (98) 
hbond:SER:7    0.0
hbond:SER:7      0
Name: 96, dtype: object

>  <halogenbond:SER:7>  (98) 
halogenbond:SER:7    0.0
halogenbond:SER:7      0
Name: 96, dtype: object

>  <hbond:GLY:8>  (98) 
hbond:GLY:8    0.0
hbond:GLY:8      0
Name: 96, dtype: object

>  <hydroph_interaction:VAL:18>  (98) 
hydroph_interaction:VAL:18    NaN
hydroph_interaction:VAL:18     -1
Name: 96, dtype: object

>  <hbond:ASN:19>  (98) 
hbond:ASN:19    0.0
hbond:ASN:19      0
Name: 96, dtype: object

>  <hydroph_interaction:ASN:19>  (98) 
hydroph_interaction:ASN:19    0.0
hydroph_interaction:ASN:19      0
Name: 96, dtype: object

>  <halogenbond:ASN:19>  (98) 
halogenbond:ASN:19    0.0
halogenbond:ASN:19      0
Name: 96, dtype: object

>  <hbond:ARG:20>  (98) 
hbond:ARG:20    0.0
hbond:ARG:20      0
Name: 96, dtype: object

>  <hydroph_interaction:ARG:20>  (98) 
hydroph_interaction:ARG:20    0.0
hydroph_interaction:ARG:20      0
Name: 96, dtype: object

>  <saltbridge:ARG:20>  (98) 
saltbridge:ARG:20    0.0
saltbridge:ARG:20      0
Name: 96, dtype: object

>  <halogenbond:ARG:20>  (98) 
halogenbond:ARG:20    0.0
halogenbond:ARG:20      0
Name: 96, dtype: object

>  <pication:ARG:20>  (98) 
pication:ARG:20    0.0
pication:ARG:20      0
Name: 96, dtype: object

>  <hbond:HIS:21>  (98) 
hbond:HIS:21    0.0
hbond:HIS:21      0
Name: 96, dtype: object

>  <hydroph_interaction:HIS:21>  (98) 
hydroph_interaction:HIS:21    0.0
hydroph_interaction:HIS:21      0
Name: 96, dtype: object

>  <pistack:HIS:21>  (98) 
pistack:HIS:21    0.0
pistack:HIS:21      0
Name: 96, dtype: object

>  <pication:HIS:21>  (98) 
pication:HIS:21    1.0
pication:HIS:21      1
Name: 96, dtype: object

>  <saltbridge:HIS:21>  (98) 
saltbridge:HIS:21    0.0
saltbridge:HIS:21      0
Name: 96, dtype: object

>  <halogenbond:HIS:21>  (98) 
halogenbond:HIS:21    0.0
halogenbond:HIS:21      0
Name: 96, dtype: object

>  <hydroph_interaction:LEU:22>  (98) 
hydroph_interaction:LEU:22    0.0
hydroph_interaction:LEU:22      0
Name: 96, dtype: object

>  <hbond:LEU:22>  (98) 
hbond:LEU:22    0.0
hbond:LEU:22      0
Name: 96, dtype: object

>  <hydroph_interaction:TRP:28>  (98) 
hydroph_interaction:TRP:28    0.0
hydroph_interaction:TRP:28      0
Name: 96, dtype: object

>  <hbond:SER:36>  (98) 
hbond:SER:36    0.0
hbond:SER:36      0
Name: 96, dtype: object

>  <halogenbond:SER:36>  (98) 
halogenbond:SER:36    0.0
halogenbond:SER:36      0
Name: 96, dtype: object

>  <hbond:SER:37>  (98) 
hbond:SER:37    NaN
hbond:SER:37     -1
Name: 96, dtype: object

>  <hbond:ARG:38>  (98) 
hbond:ARG:38    0.0
hbond:ARG:38      0
Name: 96, dtype: object

>  <halogenbond:ARG:38>  (98) 
halogenbond:ARG:38    0.0
halogenbond:ARG:38      0
Name: 96, dtype: object

>  <saltbridge:ASP:39>  (98) 
saltbridge:ASP:39    0.0
saltbridge:ASP:39      0
Name: 96, dtype: object

>  <halogenbond:ASP:39>  (98) 
halogenbond:ASP:39    0.0
halogenbond:ASP:39      0
Name: 96, dtype: object

>  <hbond:ASP:39>  (98) 
hbond:ASP:39    1.0
hbond:ASP:39      1
Name: 96, dtype: object

>  <hydroph_interaction:ASP:39>  (98) 
hydroph_interaction:ASP:39    0.0
hydroph_interaction:ASP:39      0
Name: 96, dtype: object

>  <hydroph_interaction:LEU:40>  (98) 
hydroph_interaction:LEU:40    0.0
hydroph_interaction:LEU:40      0
Name: 96, dtype: object

>  <hydroph_interaction:TYR:63>  (98) 
hydroph_interaction:TYR:63    0.0
hydroph_interaction:TYR:63      0
Name: 96, dtype: object

>  <hbond:TYR:63>  (98) 
hbond:TYR:63    0.0
hbond:TYR:63      0
Name: 96, dtype: object

>  <pistack:TYR:63>  (98) 
pistack:TYR:63    0.0
pistack:TYR:63      0
Name: 96, dtype: object

>  <pication:TYR:63>  (98) 
pication:TYR:63    NaN
pication:TYR:63     -1
Name: 96, dtype: object

>  <halogenbond:TYR:64>  (98) 
halogenbond:TYR:64    0.0
halogenbond:TYR:64      0
Name: 96, dtype: object

>  <hbond:TYR:64>  (98) 
hbond:TYR:64    0.0
hbond:TYR:64      0
Name: 96, dtype: object

>  <hydroph_interaction:TYR:64>  (98) 
hydroph_interaction:TYR:64    0.0
hydroph_interaction:TYR:64      0
Name: 96, dtype: object

>  <halogenbond:CYS:65>  (98) 
halogenbond:CYS:65    0.0
halogenbond:CYS:65      0
Name: 96, dtype: object

>  <hbond:CYS:65>  (98) 
hbond:CYS:65    0.0
hbond:CYS:65      0
Name: 96, dtype: object

>  <hbond:SER:66>  (98) 
hbond:SER:66    0.0
hbond:SER:66      0
Name: 96, dtype: object

>  <halogenbond:SER:66>  (98) 
halogenbond:SER:66    NaN
halogenbond:SER:66     -1
Name: 96, dtype: object

>  <hbond:SER:67>  (98) 
hbond:SER:67    0.0
hbond:SER:67      0
Name: 96, dtype: object

>  <halogenbond:SER:67>  (98) 
halogenbond:SER:67    0.0
halogenbond:SER:67      0
Name: 96, dtype: object

>  <hbond:ARG:68>  (98) 
hbond:ARG:68    0.0
hbond:ARG:68      0
Name: 96, dtype: object

>  <saltbridge:ARG:68>  (98) 
saltbridge:ARG:68    0.0
saltbridge:ARG:68      0
Name: 96, dtype: object

>  <hydroph_interaction:ARG:68>  (98) 
hydroph_interaction:ARG:68    0.0
hydroph_interaction:ARG:68      0
Name: 96, dtype: object

>  <pication:ARG:68>  (98) 
pication:ARG:68    0.0
pication:ARG:68      0
Name: 96, dtype: object

>  <hydroph_interaction:TYR:72>  (98) 
hydroph_interaction:TYR:72    0.0
hydroph_interaction:TYR:72      0
Name: 96, dtype: object

>  <hydroph_interaction:VAL:74>  (98) 
hydroph_interaction:VAL:74    0.0
hydroph_interaction:VAL:74      0
Name: 96, dtype: object

>  <hydroph_interaction:PHE:76>  (98) 
hydroph_interaction:PHE:76    0.0
hydroph_interaction:PHE:76      0
Name: 96, dtype: object

>  <hbond:SER:77>  (98) 
hbond:SER:77    0.0
hbond:SER:77      0
Name: 96, dtype: object

>  <hbond:SER:80>  (98) 
hbond:SER:80    0.0
hbond:SER:80      0
Name: 96, dtype: object

>  <hbond:LEU:81>  (98) 
hbond:LEU:81    0.0
hbond:LEU:81      0
Name: 96, dtype: object

>  <halogenbond:LEU:81>  (98) 
halogenbond:LEU:81    0.0
halogenbond:LEU:81      0
Name: 96, dtype: object

>  <hydroph_interaction:LEU:81>  (98) 
hydroph_interaction:LEU:81    0.0
hydroph_interaction:LEU:81      0
Name: 96, dtype: object

>  <hydroph_interaction:ILE:82>  (98) 
hydroph_interaction:ILE:82    0.0
hydroph_interaction:ILE:82      0
Name: 96, dtype: object

>  <halogenbond:ILE:82>  (98) 
halogenbond:ILE:82    NaN
halogenbond:ILE:82     -1
Name: 96, dtype: object

>  <hbond:ILE:82>  (98) 
hbond:ILE:82    0.0
hbond:ILE:82      0
Name: 96, dtype: object

>  <hbond:PHE:83>  (98) 
hbond:PHE:83    0.0
hbond:PHE:83      0
Name: 96, dtype: object

>  <hydroph_interaction:PHE:83>  (98) 
hydroph_interaction:PHE:83    0.0
hydroph_interaction:PHE:83      0
Name: 96, dtype: object

>  <halogenbond:PHE:83>  (98) 
halogenbond:PHE:83    0.0
halogenbond:PHE:83      0
Name: 96, dtype: object

>  <pistack:PHE:83>  (98) 
pistack:PHE:83    0.0
pistack:PHE:83      0
Name: 96, dtype: object

>  <pication:PHE:83>  (98) 
pication:PHE:83    NaN
pication:PHE:83     -1
Name: 96, dtype: object

>  <hydroph_interaction:VAL:84>  (98) 
hydroph_interaction:VAL:84    1.0
hydroph_interaction:VAL:84      1
Name: 96, dtype: object

>  <halogenbond:VAL:84>  (98) 
halogenbond:VAL:84    0.0
halogenbond:VAL:84      0
Name: 96, dtype: object

>  <hbond:VAL:84>  (98) 
hbond:VAL:84    0.0
hbond:VAL:84      0
Name: 96, dtype: object

>  <hydroph_interaction:GLU:85>  (98) 
hydroph_interaction:GLU:85    0.0
hydroph_interaction:GLU:85      0
Name: 96, dtype: object

>  <hbond:GLU:85>  (98) 
hbond:GLU:85    0.0
hbond:GLU:85      0
Name: 96, dtype: object

>  <halogenbond:GLU:85>  (98) 
halogenbond:GLU:85    0.0
halogenbond:GLU:85      0
Name: 96, dtype: object

>  <saltbridge:GLU:85>  (98) 
saltbridge:GLU:85    0.0
saltbridge:GLU:85      0
Name: 96, dtype: object

>  <halogenbond:ALA:86>  (98) 
halogenbond:ALA:86    0.0
halogenbond:ALA:86      0
Name: 96, dtype: object

>  <hbond:ALA:86>  (98) 
hbond:ALA:86    0.0
hbond:ALA:86      0
Name: 96, dtype: object

>  <hydroph_interaction:ALA:86>  (98) 
hydroph_interaction:ALA:86    0.0
hydroph_interaction:ALA:86      0
Name: 96, dtype: object

>  <hbond:SER:87>  (98) 
hbond:SER:87    1
hbond:SER:87    1
Name: 96, dtype: object

>  <halogenbond:SER:87>  (98) 
halogenbond:SER:87    0.0
halogenbond:SER:87      0
Name: 96, dtype: object

>  <hbond:GLU:88>  (98) 
hbond:GLU:88    0.0
hbond:GLU:88      0
Name: 96, dtype: object

>  <hydroph_interaction:GLU:88>  (98) 
hydroph_interaction:GLU:88    0.0
hydroph_interaction:GLU:88      0
Name: 96, dtype: object

>  <halogenbond:GLU:88>  (98) 
halogenbond:GLU:88    0.0
halogenbond:GLU:88      0
Name: 96, dtype: object

>  <saltbridge:GLU:88>  (98) 
saltbridge:GLU:88    0.0
saltbridge:GLU:88      0
Name: 96, dtype: object

>  <hydroph_interaction:TYR:89>  (98) 
hydroph_interaction:TYR:89    0.0
hydroph_interaction:TYR:89      0
Name: 96, dtype: object

>  <pistack:TYR:89>  (98) 
pistack:TYR:89    0.0
pistack:TYR:89      0
Name: 96, dtype: object

>  <hbond:TYR:89>  (98) 
hbond:TYR:89    0.0
hbond:TYR:89      0
Name: 96, dtype: object

>  <halogenbond:TYR:89>  (98) 
halogenbond:TYR:89    0.0
halogenbond:TYR:89      0
Name: 96, dtype: object

>  <hydroph_interaction:TYR:90>  (98) 
hydroph_interaction:TYR:90    2.0
hydroph_interaction:TYR:90      2
Name: 96, dtype: object

>  <hbond:TYR:90>  (98) 
hbond:TYR:90    0.0
hbond:TYR:90      0
Name: 96, dtype: object

>  <pistack:TYR:90>  (98) 
pistack:TYR:90    0.0
pistack:TYR:90      0
Name: 96, dtype: object

>  <halogenbond:TYR:90>  (98) 
halogenbond:TYR:90    0.0
halogenbond:TYR:90      0
Name: 96, dtype: object

>  <pication:TYR:90>  (98) 
pication:TYR:90    0.0
pication:TYR:90      0
Name: 96, dtype: object

>  <hbond:PRO:91>  (98) 
hbond:PRO:91    0.0
hbond:PRO:91      0
Name: 96, dtype: object

>  <hydroph_interaction:PRO:91>  (98) 
hydroph_interaction:PRO:91    0.0
hydroph_interaction:PRO:91      0
Name: 96, dtype: object

>  <halogenbond:PRO:91>  (98) 
halogenbond:PRO:91    0.0
halogenbond:PRO:91      0
Name: 96, dtype: object

>  <hbond:ALA:92>  (98) 
hbond:ALA:92    NaN
hbond:ALA:92     -1
Name: 96, dtype: object

>  <hydroph_interaction:ALA:92>  (98) 
hydroph_interaction:ALA:92    0.0
hydroph_interaction:ALA:92      0
Name: 96, dtype: object

>  <saltbridge:ARG:93>  (98) 
saltbridge:ARG:93    0.0
saltbridge:ARG:93      0
Name: 96, dtype: object

>  <hbond:ARG:93>  (98) 
hbond:ARG:93    0.0
hbond:ARG:93      0
Name: 96, dtype: object

>  <hydroph_interaction:ARG:93>  (98) 
hydroph_interaction:ARG:93    1.0
hydroph_interaction:ARG:93      1
Name: 96, dtype: object

>  <halogenbond:ARG:93>  (98) 
halogenbond:ARG:93    0.0
halogenbond:ARG:93      0
Name: 96, dtype: object

>  <pication:ARG:93>  (98) 
pication:ARG:93    0.0
pication:ARG:93      0
Name: 96, dtype: object

>  <hydroph_interaction:TYR:94>  (98) 
hydroph_interaction:TYR:94    0.0
hydroph_interaction:TYR:94      0
Name: 96, dtype: object

>  <pistack:TYR:94>  (98) 
pistack:TYR:94    NaN
pistack:TYR:94     -1
Name: 96, dtype: object

>  <hbond:TYR:94>  (98) 
hbond:TYR:94    0.0
hbond:TYR:94      0
Name: 96, dtype: object

>  <hbond:GLN:95>  (98) 
hbond:GLN:95    0.0
hbond:GLN:95      0
Name: 96, dtype: object

>  <hydroph_interaction:GLN:95>  (98) 
hydroph_interaction:GLN:95    0.0
hydroph_interaction:GLN:95      0
Name: 96, dtype: object

>  <halogenbond:GLN:95>  (98) 
halogenbond:GLN:95    0.0
halogenbond:GLN:95      0
Name: 96, dtype: object

>  <hbond:SER:96>  (98) 
hbond:SER:96    0.0
hbond:SER:96      0
Name: 96, dtype: object

>  <halogenbond:HIS:97>  (98) 
halogenbond:HIS:97    NaN
halogenbond:HIS:97     -1
Name: 96, dtype: object

>  <hydroph_interaction:LEU:98>  (98) 
hydroph_interaction:LEU:98    0.0
hydroph_interaction:LEU:98      0
Name: 96, dtype: object

>  <hbond:LEU:98>  (98) 
hbond:LEU:98    0.0
hbond:LEU:98      0
Name: 96, dtype: object

>  <halogenbond:LEU:98>  (98) 
halogenbond:LEU:98    NaN
halogenbond:LEU:98     -1
Name: 96, dtype: object

>  <hbond:MET:99>  (98) 
hbond:MET:99    0.0
hbond:MET:99      0
Name: 96, dtype: object

>  <hydroph_interaction:MET:99>  (98) 
hydroph_interaction:MET:99    0.0
hydroph_interaction:MET:99      0
Name: 96, dtype: object

>  <halogenbond:MET:99>  (98) 
halogenbond:MET:99    0.0
halogenbond:MET:99      0
Name: 96, dtype: object

>  <hydroph_interaction:LEU:100>  (98) 
hydroph_interaction:LEU:100    0.0
hydroph_interaction:LEU:100      0
Name: 96, dtype: object

>  <hbond:LEU:100>  (98) 
hbond:LEU:100    0.0
hbond:LEU:100      0
Name: 96, dtype: object

>  <hbond:ALA:101>  (98) 
hbond:ALA:101    0.0
hbond:ALA:101      0
Name: 96, dtype: object

>  <hydroph_interaction:ALA:101>  (98) 
hydroph_interaction:ALA:101    0.0
hydroph_interaction:ALA:101      0
Name: 96, dtype: object

>  <hydroph_interaction:VAL:102>  (98) 
hydroph_interaction:VAL:102    0.0
hydroph_interaction:VAL:102      0
Name: 96, dtype: object

>  <hbond:VAL:102>  (98) 
hbond:VAL:102    0.0
hbond:VAL:102      0
Name: 96, dtype: object

>  <hbond:GLY:103>  (98) 
hbond:GLY:103    0.0
hbond:GLY:103      0
Name: 96, dtype: object

>  <halogenbond:GLY:103>  (98) 
halogenbond:GLY:103    0.0
halogenbond:GLY:103      0
Name: 96, dtype: object

>  <hbond:HIS:104>  (98) 
hbond:HIS:104    0.0
hbond:HIS:104      0
Name: 96, dtype: object

>  <saltbridge:HIS:104>  (98) 
saltbridge:HIS:104    0.0
saltbridge:HIS:104      0
Name: 96, dtype: object

>  <pication:HIS:104>  (98) 
pication:HIS:104    0.0
pication:HIS:104      0
Name: 96, dtype: object

>  <halogenbond:HIS:104>  (98) 
halogenbond:HIS:104    0.0
halogenbond:HIS:104      0
Name: 96, dtype: object

>  <hydroph_interaction:HIS:104>  (98) 
hydroph_interaction:HIS:104    0.0
hydroph_interaction:HIS:104      0
Name: 96, dtype: object

>  <pistack:HIS:104>  (98) 
pistack:HIS:104    0.0
pistack:HIS:104      0
Name: 96, dtype: object

>  <halogenbond:SER:105>  (98) 
halogenbond:SER:105    0.0
halogenbond:SER:105      0
Name: 96, dtype: object

>  <hbond:SER:105>  (98) 
hbond:SER:105    0.0
hbond:SER:105      0
Name: 96, dtype: object

>  <hbond:GLU:106>  (98) 
hbond:GLU:106    0.0
hbond:GLU:106      0
Name: 96, dtype: object

>  <hydroph_interaction:GLU:106>  (98) 
hydroph_interaction:GLU:106    0.0
hydroph_interaction:GLU:106      0
Name: 96, dtype: object

>  <saltbridge:GLU:106>  (98) 
saltbridge:GLU:106    0.0
saltbridge:GLU:106      0
Name: 96, dtype: object

>  <halogenbond:GLU:106>  (98) 
halogenbond:GLU:106    0.0
halogenbond:GLU:106      0
Name: 96, dtype: object

>  <hydroph_interaction:PRO:107>  (98) 
hydroph_interaction:PRO:107    1
hydroph_interaction:PRO:107    1
Name: 96, dtype: object

>  <hbond:PRO:107>  (98) 
hbond:PRO:107    0.0
hbond:PRO:107      0
Name: 96, dtype: object

>  <halogenbond:PRO:107>  (98) 
halogenbond:PRO:107    0.0
halogenbond:PRO:107      0
Name: 96, dtype: object

>  <hbond:GLY:108>  (98) 
hbond:GLY:108    0.0
hbond:GLY:108      0
Name: 96, dtype: object

>  <halogenbond:GLY:108>  (98) 
halogenbond:GLY:108    0.0
halogenbond:GLY:108      0
Name: 96, dtype: object

>  <hbond:ASP:109>  (98) 
hbond:ASP:109    0.0
hbond:ASP:109      0
Name: 96, dtype: object

>  <hydroph_interaction:ASP:109>  (98) 
hydroph_interaction:ASP:109    0.0
hydroph_interaction:ASP:109      0
Name: 96, dtype: object

>  <saltbridge:ASP:109>  (98) 
saltbridge:ASP:109    0.0
saltbridge:ASP:109      0
Name: 96, dtype: object

>  <halogenbond:CYS:110>  (98) 
halogenbond:CYS:110    0.0
halogenbond:CYS:110      0
Name: 96, dtype: object

>  <hbond:CYS:110>  (98) 
hbond:CYS:110    0.0
hbond:CYS:110      0
Name: 96, dtype: object

>  <hbond:GLY:111>  (98) 
hbond:GLY:111    0.0
hbond:GLY:111      0
Name: 96, dtype: object

>  <hbond:GLY:112>  (98) 
hbond:GLY:112    0.0
hbond:GLY:112      0
Name: 96, dtype: object

>  <hbond:ILE:113>  (98) 
hbond:ILE:113    0.0
hbond:ILE:113      0
Name: 96, dtype: object

>  <hydroph_interaction:LEU:114>  (98) 
hydroph_interaction:LEU:114    0.0
hydroph_interaction:LEU:114      0
Name: 96, dtype: object

>  <hbond:LEU:114>  (98) 
hbond:LEU:114    0.0
hbond:LEU:114      0
Name: 96, dtype: object

>  <hydroph_interaction:ILE:123>  (98) 
hydroph_interaction:ILE:123    0.0
hydroph_interaction:ILE:123      0
Name: 96, dtype: object

>  <hbond:ILE:123>  (98) 
hbond:ILE:123    0.0
hbond:ILE:123      0
Name: 96, dtype: object

>  <hydroph_interaction:VAL:124>  (98) 
hydroph_interaction:VAL:124    0.0
hydroph_interaction:VAL:124      0
Name: 96, dtype: object

>  <hbond:VAL:124>  (98) 
hbond:VAL:124    0.0
hbond:VAL:124      0
Name: 96, dtype: object

>  <halogenbond:VAL:124>  (98) 
halogenbond:VAL:124    0.0
halogenbond:VAL:124      0
Name: 96, dtype: object

>  <hbond:SER:125>  (98) 
hbond:SER:125    0
hbond:SER:125    0
Name: 96, dtype: object

>  <halogenbond:SER:125>  (98) 
halogenbond:SER:125    0.0
halogenbond:SER:125      0
Name: 96, dtype: object

>  <hydroph_interaction:THR:126>  (98) 
hydroph_interaction:THR:126    1.0
hydroph_interaction:THR:126      1
Name: 96, dtype: object

>  <hbond:THR:126>  (98) 
hbond:THR:126    0.0
hbond:THR:126      0
Name: 96, dtype: object

>  <halogenbond:THR:126>  (98) 
halogenbond:THR:126    0.0
halogenbond:THR:126      0
Name: 96, dtype: object

>  <hbond:GLY:127>  (98) 
hbond:GLY:127    0
hbond:GLY:127    0
Name: 96, dtype: object

>  <halogenbond:GLY:127>  (98) 
halogenbond:GLY:127    0.0
halogenbond:GLY:127      0
Name: 96, dtype: object

>  <hydroph_interaction:GLY:127>  (98) 
hydroph_interaction:GLY:127    0.0
hydroph_interaction:GLY:127      0
Name: 96, dtype: object

>  <hbond:GLY:128>  (98) 
hbond:GLY:128    0.0
hbond:GLY:128      0
Name: 96, dtype: object

>  <halogenbond:GLY:128>  (98) 
halogenbond:GLY:128    0.0
halogenbond:GLY:128      0
Name: 96, dtype: object

>  <hydroph_interaction:GLY:128>  (98) 
hydroph_interaction:GLY:128    0.0
hydroph_interaction:GLY:128      0
Name: 96, dtype: object

>  <hbond:ASN:129>  (98) 
hbond:ASN:129    0.0
hbond:ASN:129      0
Name: 96, dtype: object

>  <hydroph_interaction:ASN:129>  (98) 
hydroph_interaction:ASN:129    0.0
hydroph_interaction:ASN:129      0
Name: 96, dtype: object

>  <halogenbond:ASN:129>  (98) 
halogenbond:ASN:129    0.0
halogenbond:ASN:129      0
Name: 96, dtype: object

>  <hbond:GLY:130>  (98) 
hbond:GLY:130    0.0
hbond:GLY:130      0
Name: 96, dtype: object

>  <hbond:LEU:131>  (98) 
hbond:LEU:131    0.0
hbond:LEU:131      0
Name: 96, dtype: object

>  <hydroph_interaction:LEU:131>  (98) 
hydroph_interaction:LEU:131    0.0
hydroph_interaction:LEU:131      0
Name: 96, dtype: object

>  <halogenbond:LEU:131>  (98) 
halogenbond:LEU:131    0.0
halogenbond:LEU:131      0
Name: 96, dtype: object

>  <hydroph_interaction:VAL:132>  (98) 
hydroph_interaction:VAL:132    0.0
hydroph_interaction:VAL:132      0
Name: 96, dtype: object

>  <hbond:VAL:132>  (98) 
hbond:VAL:132    0.0
hbond:VAL:132      0
Name: 96, dtype: object

>  <hbond:GLY:133>  (98) 
hbond:GLY:133    0.0
hbond:GLY:133      0
Name: 96, dtype: object

>  <halogenbond:GLY:133>  (98) 
halogenbond:GLY:133    0.0
halogenbond:GLY:133      0
Name: 96, dtype: object

>  <hydroph_interaction:PHE:134>  (98) 
hydroph_interaction:PHE:134    0.0
hydroph_interaction:PHE:134      0
Name: 96, dtype: object

>  <hbond:PHE:134>  (98) 
hbond:PHE:134    0.0
hbond:PHE:134      0
Name: 96, dtype: object

>  <pistack:PHE:134>  (98) 
pistack:PHE:134    0.0
pistack:PHE:134      0
Name: 96, dtype: object

>  <pication:PHE:134>  (98) 
pication:PHE:134    0.0
pication:PHE:134      0
Name: 96, dtype: object

>  <halogenbond:PHE:134>  (98) 
halogenbond:PHE:134    NaN
halogenbond:PHE:134     -1
Name: 96, dtype: object

>  <hydroph_interaction:ALA:135>  (98) 
hydroph_interaction:ALA:135    0.0
hydroph_interaction:ALA:135      0
Name: 96, dtype: object

>  <hbond:ALA:135>  (98) 
hbond:ALA:135    0.0
hbond:ALA:135      0
Name: 96, dtype: object

$$$$
PV_006825438282
     RDKit          3D

 24 26  0  0  0  0  0  0  0  0999 V2000
   34.4206   12.4676    5.5273 C   0  0  0  0  0  0  0  0  0  0  0  0
   33.9634   11.3436    4.8517 N   0  0  0  0  0  0  0  0  0  0  0  0
   33.4368   10.1750    5.4541 C   0  0  0  0  0  0  0  0  0  0  0  0
   33.8170    9.0464    5.2309 O   0  0  0  0  0  0  0  0  0  0  0  0
   32.4117   10.2215    6.3814 C   0  0  0  0  0  0  0  0  0  0  0  0
   31.9934    9.0801    7.3031 C   0  0  0  0  0  0  0  0  0  0  0  0
   30.9553    9.3187    8.1988 C   0  0  0  0  0  0  0  0  0  0  0  0
   30.4567    8.4219    9.1094 C   0  0  0  0  0  0  0  0  0  0  0  0
   30.3603   10.5279    8.2114 C   0  0  0  0  0  0  0  0  0  0  0  0
   30.6883   11.5565    7.3889 C   0  0  0  0  0  0  0  0  0  0  0  0
   30.0093   12.7439    7.4980 N   0  0  0  0  0  0  0  0  0  0  0  0
   30.7082   13.5312    8.3008 C   0  0  0  0  0  0  0  0  0  0  0  0
   32.1867   13.3913    8.0602 C   0  0  0  0  0  0  0  0  0  0  0  0
   33.0187   14.1809    8.8885 C   0  0  0  0  0  0  0  0  0  0  0  0
   32.4319   14.9477    9.7790 N   0  0  0  0  0  0  0  0  0  0  0  0
   31.1150   15.0133    9.9569 C   0  0  0  0  0  0  0  0  0  0  0  0
   30.8323   15.9632   11.1290 C   0  0  0  0  0  0  0  0  0  0  0  0
   31.9575   16.9380   11.3670 C   0  0  0  0  0  0  0  0  0  0  0  0
   31.9758   17.8709   12.3636 C   0  0  0  0  0  0  0  0  0  0  0  0
   30.8345   17.8765   13.1864 C   0  0  0  0  0  0  0  0  0  0  0  0
   29.7638   17.0038   13.0055 C   0  0  0  0  0  0  0  0  0  0  0  0
   29.7434   16.0377   11.9849 C   0  0  0  0  0  0  0  0  0  0  0  0
   30.1768   14.3408    9.2428 N   0  0  0  0  0  0  0  0  0  0  0  0
   31.7199   11.4149    6.4721 C   0  0  0  0  0  0  0  0  0  0  0  0
  1  2  1  0
  2  3  1  0
  3  4  2  0
  3  5  1  0
  5  6  2  0
  6  7  1  0
  7  8  1  0
  7  9  2  0
  9 10  1  0
 10 11  1  0
 11 12  1  0
 12 13  2  0
 13 14  1  0
 14 15  2  0
 15 16  1  0
 16 17  1  0
 17 18  2  0
 18 19  1  0
 19 20  2  0
 20 21  1  0
 21 22  2  0
 16 23  2  0
 10 24  2  0
 24  5  1  0
 23 12  1  0
 22 17  1  0
A    1
 C1 
A    2
 N1 
A    3
 C2 
A    4
 O1 
A    5
 C3 
A    6
 C4 
A    7
 C5 
A    8
 C6 
A    9
 C7 
A   10
 C8 
A   11
 N2 
A   12
 C9 
A   13
 C10
A   14
 C11
A   15
 N3 
A   16
 C12
A   17
 C13
A   18
 C14
A   19
 C15
A   20
 C16
A   21
 C17
A   22
 C18
A   23
 N4 
A   24
 C19
M  END
>  <ref_pdb>  (99) 
Ax0310a

>  <ref_mols>  (99) 
Ax0554a,Ax0739a

>  <original SMILES>  (99) 
CNC(=O)c1cc(C)cc(Nc2ccnc(-c3ccccc3)n2)c1

>  <rationale>  (99) 
info halogenbond:I82+H97+F134+L98+S66; hbond:S87+A92+S37; hydroph_interaction:V84+V124+Y90+T126+P107+D39+Q95+R93+V18; pication:Y63+F83; pistack:Y94; 

>  <intxn_cluster>  (99) 
103

>  <intxn_cluster_rank>  (99) 
2

>  <N_interactions>  (99) 
12

>  <∆∆G>  (99) 
-11.564674

>  <$/mg>  (99) 
163.0

>  <comRMSD>  (99) 
0.727574

>  <N_rotatable_bonds>  (99) 
6

>  <deep_P1_sidechain>  (99) 
True

>  <farthest_distance_to_substrate>  (99) 
3.16584

>  <hbond:SER:7>  (99) 
hbond:SER:7    0.0
hbond:SER:7      0
Name: 97, dtype: object

>  <halogenbond:SER:7>  (99) 
halogenbond:SER:7    0.0
halogenbond:SER:7      0
Name: 97, dtype: object

>  <hbond:GLY:8>  (99) 
hbond:GLY:8    0.0
hbond:GLY:8      0
Name: 97, dtype: object

>  <hydroph_interaction:VAL:18>  (99) 
hydroph_interaction:VAL:18    NaN
hydroph_interaction:VAL:18     -1
Name: 97, dtype: object

>  <hbond:ASN:19>  (99) 
hbond:ASN:19    0.0
hbond:ASN:19      0
Name: 97, dtype: object

>  <hydroph_interaction:ASN:19>  (99) 
hydroph_interaction:ASN:19    0.0
hydroph_interaction:ASN:19      0
Name: 97, dtype: object

>  <halogenbond:ASN:19>  (99) 
halogenbond:ASN:19    0.0
halogenbond:ASN:19      0
Name: 97, dtype: object

>  <hbond:ARG:20>  (99) 
hbond:ARG:20    0.0
hbond:ARG:20      0
Name: 97, dtype: object

>  <hydroph_interaction:ARG:20>  (99) 
hydroph_interaction:ARG:20    0.0
hydroph_interaction:ARG:20      0
Name: 97, dtype: object

>  <saltbridge:ARG:20>  (99) 
saltbridge:ARG:20    0.0
saltbridge:ARG:20      0
Name: 97, dtype: object

>  <halogenbond:ARG:20>  (99) 
halogenbond:ARG:20    0.0
halogenbond:ARG:20      0
Name: 97, dtype: object

>  <pication:ARG:20>  (99) 
pication:ARG:20    0.0
pication:ARG:20      0
Name: 97, dtype: object

>  <hbond:HIS:21>  (99) 
hbond:HIS:21    0.0
hbond:HIS:21      0
Name: 97, dtype: object

>  <hydroph_interaction:HIS:21>  (99) 
hydroph_interaction:HIS:21    0.0
hydroph_interaction:HIS:21      0
Name: 97, dtype: object

>  <pistack:HIS:21>  (99) 
pistack:HIS:21    0.0
pistack:HIS:21      0
Name: 97, dtype: object

>  <pication:HIS:21>  (99) 
pication:HIS:21    0.0
pication:HIS:21      0
Name: 97, dtype: object

>  <saltbridge:HIS:21>  (99) 
saltbridge:HIS:21    0.0
saltbridge:HIS:21      0
Name: 97, dtype: object

>  <halogenbond:HIS:21>  (99) 
halogenbond:HIS:21    0.0
halogenbond:HIS:21      0
Name: 97, dtype: object

>  <hydroph_interaction:LEU:22>  (99) 
hydroph_interaction:LEU:22    0.0
hydroph_interaction:LEU:22      0
Name: 97, dtype: object

>  <hbond:LEU:22>  (99) 
hbond:LEU:22    0.0
hbond:LEU:22      0
Name: 97, dtype: object

>  <hydroph_interaction:TRP:28>  (99) 
hydroph_interaction:TRP:28    0.0
hydroph_interaction:TRP:28      0
Name: 97, dtype: object

>  <hbond:SER:36>  (99) 
hbond:SER:36    0.0
hbond:SER:36      0
Name: 97, dtype: object

>  <halogenbond:SER:36>  (99) 
halogenbond:SER:36    0.0
halogenbond:SER:36      0
Name: 97, dtype: object

>  <hbond:SER:37>  (99) 
hbond:SER:37    NaN
hbond:SER:37     -1
Name: 97, dtype: object

>  <hbond:ARG:38>  (99) 
hbond:ARG:38    0.0
hbond:ARG:38      0
Name: 97, dtype: object

>  <halogenbond:ARG:38>  (99) 
halogenbond:ARG:38    0.0
halogenbond:ARG:38      0
Name: 97, dtype: object

>  <saltbridge:ASP:39>  (99) 
saltbridge:ASP:39    0.0
saltbridge:ASP:39      0
Name: 97, dtype: object

>  <halogenbond:ASP:39>  (99) 
halogenbond:ASP:39    0.0
halogenbond:ASP:39      0
Name: 97, dtype: object

>  <hbond:ASP:39>  (99) 
hbond:ASP:39    0.0
hbond:ASP:39      0
Name: 97, dtype: object

>  <hydroph_interaction:ASP:39>  (99) 
hydroph_interaction:ASP:39    1.0
hydroph_interaction:ASP:39      1
Name: 97, dtype: object

>  <hydroph_interaction:LEU:40>  (99) 
hydroph_interaction:LEU:40    0.0
hydroph_interaction:LEU:40      0
Name: 97, dtype: object

>  <hydroph_interaction:TYR:63>  (99) 
hydroph_interaction:TYR:63    0.0
hydroph_interaction:TYR:63      0
Name: 97, dtype: object

>  <hbond:TYR:63>  (99) 
hbond:TYR:63    0.0
hbond:TYR:63      0
Name: 97, dtype: object

>  <pistack:TYR:63>  (99) 
pistack:TYR:63    0.0
pistack:TYR:63      0
Name: 97, dtype: object

>  <pication:TYR:63>  (99) 
pication:TYR:63    NaN
pication:TYR:63     -1
Name: 97, dtype: object

>  <halogenbond:TYR:64>  (99) 
halogenbond:TYR:64    0.0
halogenbond:TYR:64      0
Name: 97, dtype: object

>  <hbond:TYR:64>  (99) 
hbond:TYR:64    0.0
hbond:TYR:64      0
Name: 97, dtype: object

>  <hydroph_interaction:TYR:64>  (99) 
hydroph_interaction:TYR:64    0.0
hydroph_interaction:TYR:64      0
Name: 97, dtype: object

>  <halogenbond:CYS:65>  (99) 
halogenbond:CYS:65    0.0
halogenbond:CYS:65      0
Name: 97, dtype: object

>  <hbond:CYS:65>  (99) 
hbond:CYS:65    0.0
hbond:CYS:65      0
Name: 97, dtype: object

>  <hbond:SER:66>  (99) 
hbond:SER:66    0.0
hbond:SER:66      0
Name: 97, dtype: object

>  <halogenbond:SER:66>  (99) 
halogenbond:SER:66    NaN
halogenbond:SER:66     -1
Name: 97, dtype: object

>  <hbond:SER:67>  (99) 
hbond:SER:67    0.0
hbond:SER:67      0
Name: 97, dtype: object

>  <halogenbond:SER:67>  (99) 
halogenbond:SER:67    0.0
halogenbond:SER:67      0
Name: 97, dtype: object

>  <hbond:ARG:68>  (99) 
hbond:ARG:68    0.0
hbond:ARG:68      0
Name: 97, dtype: object

>  <saltbridge:ARG:68>  (99) 
saltbridge:ARG:68    0.0
saltbridge:ARG:68      0
Name: 97, dtype: object

>  <hydroph_interaction:ARG:68>  (99) 
hydroph_interaction:ARG:68    0.0
hydroph_interaction:ARG:68      0
Name: 97, dtype: object

>  <pication:ARG:68>  (99) 
pication:ARG:68    0.0
pication:ARG:68      0
Name: 97, dtype: object

>  <hydroph_interaction:TYR:72>  (99) 
hydroph_interaction:TYR:72    0.0
hydroph_interaction:TYR:72      0
Name: 97, dtype: object

>  <hydroph_interaction:VAL:74>  (99) 
hydroph_interaction:VAL:74    0.0
hydroph_interaction:VAL:74      0
Name: 97, dtype: object

>  <hydroph_interaction:PHE:76>  (99) 
hydroph_interaction:PHE:76    0.0
hydroph_interaction:PHE:76      0
Name: 97, dtype: object

>  <hbond:SER:77>  (99) 
hbond:SER:77    0.0
hbond:SER:77      0
Name: 97, dtype: object

>  <hbond:SER:80>  (99) 
hbond:SER:80    0.0
hbond:SER:80      0
Name: 97, dtype: object

>  <hbond:LEU:81>  (99) 
hbond:LEU:81    0.0
hbond:LEU:81      0
Name: 97, dtype: object

>  <halogenbond:LEU:81>  (99) 
halogenbond:LEU:81    0.0
halogenbond:LEU:81      0
Name: 97, dtype: object

>  <hydroph_interaction:LEU:81>  (99) 
hydroph_interaction:LEU:81    0.0
hydroph_interaction:LEU:81      0
Name: 97, dtype: object

>  <hydroph_interaction:ILE:82>  (99) 
hydroph_interaction:ILE:82    0.0
hydroph_interaction:ILE:82      0
Name: 97, dtype: object

>  <halogenbond:ILE:82>  (99) 
halogenbond:ILE:82    NaN
halogenbond:ILE:82     -1
Name: 97, dtype: object

>  <hbond:ILE:82>  (99) 
hbond:ILE:82    0.0
hbond:ILE:82      0
Name: 97, dtype: object

>  <hbond:PHE:83>  (99) 
hbond:PHE:83    0.0
hbond:PHE:83      0
Name: 97, dtype: object

>  <hydroph_interaction:PHE:83>  (99) 
hydroph_interaction:PHE:83    0.0
hydroph_interaction:PHE:83      0
Name: 97, dtype: object

>  <halogenbond:PHE:83>  (99) 
halogenbond:PHE:83    0.0
halogenbond:PHE:83      0
Name: 97, dtype: object

>  <pistack:PHE:83>  (99) 
pistack:PHE:83    0.0
pistack:PHE:83      0
Name: 97, dtype: object

>  <pication:PHE:83>  (99) 
pication:PHE:83    NaN
pication:PHE:83     -1
Name: 97, dtype: object

>  <hydroph_interaction:VAL:84>  (99) 
hydroph_interaction:VAL:84    2.0
hydroph_interaction:VAL:84      2
Name: 97, dtype: object

>  <halogenbond:VAL:84>  (99) 
halogenbond:VAL:84    0.0
halogenbond:VAL:84      0
Name: 97, dtype: object

>  <hbond:VAL:84>  (99) 
hbond:VAL:84    0.0
hbond:VAL:84      0
Name: 97, dtype: object

>  <hydroph_interaction:GLU:85>  (99) 
hydroph_interaction:GLU:85    0.0
hydroph_interaction:GLU:85      0
Name: 97, dtype: object

>  <hbond:GLU:85>  (99) 
hbond:GLU:85    0.0
hbond:GLU:85      0
Name: 97, dtype: object

>  <halogenbond:GLU:85>  (99) 
halogenbond:GLU:85    0.0
halogenbond:GLU:85      0
Name: 97, dtype: object

>  <saltbridge:GLU:85>  (99) 
saltbridge:GLU:85    0.0
saltbridge:GLU:85      0
Name: 97, dtype: object

>  <halogenbond:ALA:86>  (99) 
halogenbond:ALA:86    0.0
halogenbond:ALA:86      0
Name: 97, dtype: object

>  <hbond:ALA:86>  (99) 
hbond:ALA:86    0.0
hbond:ALA:86      0
Name: 97, dtype: object

>  <hydroph_interaction:ALA:86>  (99) 
hydroph_interaction:ALA:86    0.0
hydroph_interaction:ALA:86      0
Name: 97, dtype: object

>  <hbond:SER:87>  (99) 
hbond:SER:87    1
hbond:SER:87    1
Name: 97, dtype: object

>  <halogenbond:SER:87>  (99) 
halogenbond:SER:87    0.0
halogenbond:SER:87      0
Name: 97, dtype: object

>  <hbond:GLU:88>  (99) 
hbond:GLU:88    0.0
hbond:GLU:88      0
Name: 97, dtype: object

>  <hydroph_interaction:GLU:88>  (99) 
hydroph_interaction:GLU:88    0.0
hydroph_interaction:GLU:88      0
Name: 97, dtype: object

>  <halogenbond:GLU:88>  (99) 
halogenbond:GLU:88    0.0
halogenbond:GLU:88      0
Name: 97, dtype: object

>  <saltbridge:GLU:88>  (99) 
saltbridge:GLU:88    0.0
saltbridge:GLU:88      0
Name: 97, dtype: object

>  <hydroph_interaction:TYR:89>  (99) 
hydroph_interaction:TYR:89    0.0
hydroph_interaction:TYR:89      0
Name: 97, dtype: object

>  <pistack:TYR:89>  (99) 
pistack:TYR:89    0.0
pistack:TYR:89      0
Name: 97, dtype: object

>  <hbond:TYR:89>  (99) 
hbond:TYR:89    0.0
hbond:TYR:89      0
Name: 97, dtype: object

>  <halogenbond:TYR:89>  (99) 
halogenbond:TYR:89    0.0
halogenbond:TYR:89      0
Name: 97, dtype: object

>  <hydroph_interaction:TYR:90>  (99) 
hydroph_interaction:TYR:90    3.0
hydroph_interaction:TYR:90      3
Name: 97, dtype: object

>  <hbond:TYR:90>  (99) 
hbond:TYR:90    0.0
hbond:TYR:90      0
Name: 97, dtype: object

>  <pistack:TYR:90>  (99) 
pistack:TYR:90    0.0
pistack:TYR:90      0
Name: 97, dtype: object

>  <halogenbond:TYR:90>  (99) 
halogenbond:TYR:90    0.0
halogenbond:TYR:90      0
Name: 97, dtype: object

>  <pication:TYR:90>  (99) 
pication:TYR:90    0.0
pication:TYR:90      0
Name: 97, dtype: object

>  <hbond:PRO:91>  (99) 
hbond:PRO:91    0.0
hbond:PRO:91      0
Name: 97, dtype: object

>  <hydroph_interaction:PRO:91>  (99) 
hydroph_interaction:PRO:91    0.0
hydroph_interaction:PRO:91      0
Name: 97, dtype: object

>  <halogenbond:PRO:91>  (99) 
halogenbond:PRO:91    0.0
halogenbond:PRO:91      0
Name: 97, dtype: object

>  <hbond:ALA:92>  (99) 
hbond:ALA:92    NaN
hbond:ALA:92     -1
Name: 97, dtype: object

>  <hydroph_interaction:ALA:92>  (99) 
hydroph_interaction:ALA:92    0.0
hydroph_interaction:ALA:92      0
Name: 97, dtype: object

>  <saltbridge:ARG:93>  (99) 
saltbridge:ARG:93    0.0
saltbridge:ARG:93      0
Name: 97, dtype: object

>  <hbond:ARG:93>  (99) 
hbond:ARG:93    0.0
hbond:ARG:93      0
Name: 97, dtype: object

>  <hydroph_interaction:ARG:93>  (99) 
hydroph_interaction:ARG:93    1.0
hydroph_interaction:ARG:93      1
Name: 97, dtype: object

>  <halogenbond:ARG:93>  (99) 
halogenbond:ARG:93    0.0
halogenbond:ARG:93      0
Name: 97, dtype: object

>  <pication:ARG:93>  (99) 
pication:ARG:93    0.0
pication:ARG:93      0
Name: 97, dtype: object

>  <hydroph_interaction:TYR:94>  (99) 
hydroph_interaction:TYR:94    0.0
hydroph_interaction:TYR:94      0
Name: 97, dtype: object

>  <pistack:TYR:94>  (99) 
pistack:TYR:94    NaN
pistack:TYR:94     -1
Name: 97, dtype: object

>  <hbond:TYR:94>  (99) 
hbond:TYR:94    0.0
hbond:TYR:94      0
Name: 97, dtype: object

>  <hbond:GLN:95>  (99) 
hbond:GLN:95    0.0
hbond:GLN:95      0
Name: 97, dtype: object

>  <hydroph_interaction:GLN:95>  (99) 
hydroph_interaction:GLN:95    1.0
hydroph_interaction:GLN:95      1
Name: 97, dtype: object

>  <halogenbond:GLN:95>  (99) 
halogenbond:GLN:95    0.0
halogenbond:GLN:95      0
Name: 97, dtype: object

>  <hbond:SER:96>  (99) 
hbond:SER:96    0.0
hbond:SER:96      0
Name: 97, dtype: object

>  <halogenbond:HIS:97>  (99) 
halogenbond:HIS:97    NaN
halogenbond:HIS:97     -1
Name: 97, dtype: object

>  <hydroph_interaction:LEU:98>  (99) 
hydroph_interaction:LEU:98    0.0
hydroph_interaction:LEU:98      0
Name: 97, dtype: object

>  <hbond:LEU:98>  (99) 
hbond:LEU:98    0.0
hbond:LEU:98      0
Name: 97, dtype: object

>  <halogenbond:LEU:98>  (99) 
halogenbond:LEU:98    NaN
halogenbond:LEU:98     -1
Name: 97, dtype: object

>  <hbond:MET:99>  (99) 
hbond:MET:99    0.0
hbond:MET:99      0
Name: 97, dtype: object

>  <hydroph_interaction:MET:99>  (99) 
hydroph_interaction:MET:99    0.0
hydroph_interaction:MET:99      0
Name: 97, dtype: object

>  <halogenbond:MET:99>  (99) 
halogenbond:MET:99    0.0
halogenbond:MET:99      0
Name: 97, dtype: object

>  <hydroph_interaction:LEU:100>  (99) 
hydroph_interaction:LEU:100    0.0
hydroph_interaction:LEU:100      0
Name: 97, dtype: object

>  <hbond:LEU:100>  (99) 
hbond:LEU:100    0.0
hbond:LEU:100      0
Name: 97, dtype: object

>  <hbond:ALA:101>  (99) 
hbond:ALA:101    0.0
hbond:ALA:101      0
Name: 97, dtype: object

>  <hydroph_interaction:ALA:101>  (99) 
hydroph_interaction:ALA:101    0.0
hydroph_interaction:ALA:101      0
Name: 97, dtype: object

>  <hydroph_interaction:VAL:102>  (99) 
hydroph_interaction:VAL:102    0.0
hydroph_interaction:VAL:102      0
Name: 97, dtype: object

>  <hbond:VAL:102>  (99) 
hbond:VAL:102    0.0
hbond:VAL:102      0
Name: 97, dtype: object

>  <hbond:GLY:103>  (99) 
hbond:GLY:103    0.0
hbond:GLY:103      0
Name: 97, dtype: object

>  <halogenbond:GLY:103>  (99) 
halogenbond:GLY:103    0.0
halogenbond:GLY:103      0
Name: 97, dtype: object

>  <hbond:HIS:104>  (99) 
hbond:HIS:104    0.0
hbond:HIS:104      0
Name: 97, dtype: object

>  <saltbridge:HIS:104>  (99) 
saltbridge:HIS:104    0.0
saltbridge:HIS:104      0
Name: 97, dtype: object

>  <pication:HIS:104>  (99) 
pication:HIS:104    0.0
pication:HIS:104      0
Name: 97, dtype: object

>  <halogenbond:HIS:104>  (99) 
halogenbond:HIS:104    0.0
halogenbond:HIS:104      0
Name: 97, dtype: object

>  <hydroph_interaction:HIS:104>  (99) 
hydroph_interaction:HIS:104    0.0
hydroph_interaction:HIS:104      0
Name: 97, dtype: object

>  <pistack:HIS:104>  (99) 
pistack:HIS:104    0.0
pistack:HIS:104      0
Name: 97, dtype: object

>  <halogenbond:SER:105>  (99) 
halogenbond:SER:105    0.0
halogenbond:SER:105      0
Name: 97, dtype: object

>  <hbond:SER:105>  (99) 
hbond:SER:105    0.0
hbond:SER:105      0
Name: 97, dtype: object

>  <hbond:GLU:106>  (99) 
hbond:GLU:106    0.0
hbond:GLU:106      0
Name: 97, dtype: object

>  <hydroph_interaction:GLU:106>  (99) 
hydroph_interaction:GLU:106    0.0
hydroph_interaction:GLU:106      0
Name: 97, dtype: object

>  <saltbridge:GLU:106>  (99) 
saltbridge:GLU:106    0.0
saltbridge:GLU:106      0
Name: 97, dtype: object

>  <halogenbond:GLU:106>  (99) 
halogenbond:GLU:106    0.0
halogenbond:GLU:106      0
Name: 97, dtype: object

>  <hydroph_interaction:PRO:107>  (99) 
hydroph_interaction:PRO:107    1
hydroph_interaction:PRO:107    1
Name: 97, dtype: object

>  <hbond:PRO:107>  (99) 
hbond:PRO:107    0.0
hbond:PRO:107      0
Name: 97, dtype: object

>  <halogenbond:PRO:107>  (99) 
halogenbond:PRO:107    0.0
halogenbond:PRO:107      0
Name: 97, dtype: object

>  <hbond:GLY:108>  (99) 
hbond:GLY:108    0.0
hbond:GLY:108      0
Name: 97, dtype: object

>  <halogenbond:GLY:108>  (99) 
halogenbond:GLY:108    0.0
halogenbond:GLY:108      0
Name: 97, dtype: object

>  <hbond:ASP:109>  (99) 
hbond:ASP:109    0.0
hbond:ASP:109      0
Name: 97, dtype: object

>  <hydroph_interaction:ASP:109>  (99) 
hydroph_interaction:ASP:109    0.0
hydroph_interaction:ASP:109      0
Name: 97, dtype: object

>  <saltbridge:ASP:109>  (99) 
saltbridge:ASP:109    0.0
saltbridge:ASP:109      0
Name: 97, dtype: object

>  <halogenbond:CYS:110>  (99) 
halogenbond:CYS:110    0.0
halogenbond:CYS:110      0
Name: 97, dtype: object

>  <hbond:CYS:110>  (99) 
hbond:CYS:110    0.0
hbond:CYS:110      0
Name: 97, dtype: object

>  <hbond:GLY:111>  (99) 
hbond:GLY:111    0.0
hbond:GLY:111      0
Name: 97, dtype: object

>  <hbond:GLY:112>  (99) 
hbond:GLY:112    0.0
hbond:GLY:112      0
Name: 97, dtype: object

>  <hbond:ILE:113>  (99) 
hbond:ILE:113    0.0
hbond:ILE:113      0
Name: 97, dtype: object

>  <hydroph_interaction:LEU:114>  (99) 
hydroph_interaction:LEU:114    0.0
hydroph_interaction:LEU:114      0
Name: 97, dtype: object

>  <hbond:LEU:114>  (99) 
hbond:LEU:114    0.0
hbond:LEU:114      0
Name: 97, dtype: object

>  <hydroph_interaction:ILE:123>  (99) 
hydroph_interaction:ILE:123    0.0
hydroph_interaction:ILE:123      0
Name: 97, dtype: object

>  <hbond:ILE:123>  (99) 
hbond:ILE:123    0.0
hbond:ILE:123      0
Name: 97, dtype: object

>  <hydroph_interaction:VAL:124>  (99) 
hydroph_interaction:VAL:124    1.0
hydroph_interaction:VAL:124      1
Name: 97, dtype: object

>  <hbond:VAL:124>  (99) 
hbond:VAL:124    0.0
hbond:VAL:124      0
Name: 97, dtype: object

>  <halogenbond:VAL:124>  (99) 
halogenbond:VAL:124    0.0
halogenbond:VAL:124      0
Name: 97, dtype: object

>  <hbond:SER:125>  (99) 
hbond:SER:125    0
hbond:SER:125    0
Name: 97, dtype: object

>  <halogenbond:SER:125>  (99) 
halogenbond:SER:125    0.0
halogenbond:SER:125      0
Name: 97, dtype: object

>  <hydroph_interaction:THR:126>  (99) 
hydroph_interaction:THR:126    1.0
hydroph_interaction:THR:126      1
Name: 97, dtype: object

>  <hbond:THR:126>  (99) 
hbond:THR:126    0.0
hbond:THR:126      0
Name: 97, dtype: object

>  <halogenbond:THR:126>  (99) 
halogenbond:THR:126    0.0
halogenbond:THR:126      0
Name: 97, dtype: object

>  <hbond:GLY:127>  (99) 
hbond:GLY:127    0
hbond:GLY:127    0
Name: 97, dtype: object

>  <halogenbond:GLY:127>  (99) 
halogenbond:GLY:127    0.0
halogenbond:GLY:127      0
Name: 97, dtype: object

>  <hydroph_interaction:GLY:127>  (99) 
hydroph_interaction:GLY:127    0.0
hydroph_interaction:GLY:127      0
Name: 97, dtype: object

>  <hbond:GLY:128>  (99) 
hbond:GLY:128    0.0
hbond:GLY:128      0
Name: 97, dtype: object

>  <halogenbond:GLY:128>  (99) 
halogenbond:GLY:128    0.0
halogenbond:GLY:128      0
Name: 97, dtype: object

>  <hydroph_interaction:GLY:128>  (99) 
hydroph_interaction:GLY:128    0.0
hydroph_interaction:GLY:128      0
Name: 97, dtype: object

>  <hbond:ASN:129>  (99) 
hbond:ASN:129    0.0
hbond:ASN:129      0
Name: 97, dtype: object

>  <hydroph_interaction:ASN:129>  (99) 
hydroph_interaction:ASN:129    0.0
hydroph_interaction:ASN:129      0
Name: 97, dtype: object

>  <halogenbond:ASN:129>  (99) 
halogenbond:ASN:129    0.0
halogenbond:ASN:129      0
Name: 97, dtype: object

>  <hbond:GLY:130>  (99) 
hbond:GLY:130    0.0
hbond:GLY:130      0
Name: 97, dtype: object

>  <hbond:LEU:131>  (99) 
hbond:LEU:131    0.0
hbond:LEU:131      0
Name: 97, dtype: object

>  <hydroph_interaction:LEU:131>  (99) 
hydroph_interaction:LEU:131    0.0
hydroph_interaction:LEU:131      0
Name: 97, dtype: object

>  <halogenbond:LEU:131>  (99) 
halogenbond:LEU:131    0.0
halogenbond:LEU:131      0
Name: 97, dtype: object

>  <hydroph_interaction:VAL:132>  (99) 
hydroph_interaction:VAL:132    0.0
hydroph_interaction:VAL:132      0
Name: 97, dtype: object

>  <hbond:VAL:132>  (99) 
hbond:VAL:132    0.0
hbond:VAL:132      0
Name: 97, dtype: object

>  <hbond:GLY:133>  (99) 
hbond:GLY:133    0.0
hbond:GLY:133      0
Name: 97, dtype: object

>  <halogenbond:GLY:133>  (99) 
halogenbond:GLY:133    0.0
halogenbond:GLY:133      0
Name: 97, dtype: object

>  <hydroph_interaction:PHE:134>  (99) 
hydroph_interaction:PHE:134    0.0
hydroph_interaction:PHE:134      0
Name: 97, dtype: object

>  <hbond:PHE:134>  (99) 
hbond:PHE:134    0.0
hbond:PHE:134      0
Name: 97, dtype: object

>  <pistack:PHE:134>  (99) 
pistack:PHE:134    0.0
pistack:PHE:134      0
Name: 97, dtype: object

>  <pication:PHE:134>  (99) 
pication:PHE:134    0.0
pication:PHE:134      0
Name: 97, dtype: object

>  <halogenbond:PHE:134>  (99) 
halogenbond:PHE:134    NaN
halogenbond:PHE:134     -1
Name: 97, dtype: object

>  <hydroph_interaction:ALA:135>  (99) 
hydroph_interaction:ALA:135    0.0
hydroph_interaction:ALA:135      0
Name: 97, dtype: object

>  <hbond:ALA:135>  (99) 
hbond:ALA:135    0.0
hbond:ALA:135      0
Name: 97, dtype: object

$$$$
Z3934776425
     RDKit          3D

 15 15  0  0  0  0  0  0  0  0999 V2000
   28.6697   15.7105    8.5087 C   0  0  0  0  0  0  0  0  0  0  0  0
   28.4270   14.2347    8.3029 C   0  0  0  0  0  0  0  0  0  0  0  0
   28.4080   13.8379    6.8278 C   0  0  2  0  0  0  0  0  0  0  0  0
   27.4454   12.6871    6.6481 C   0  0  0  0  0  0  0  0  0  0  0  0
   29.7939   13.4454    6.3235 C   0  0  0  0  0  0  0  0  0  0  0  0
   30.1171   13.6213    5.1530 O   0  0  0  0  0  0  0  0  0  0  0  0
   30.5946   12.8988    7.3159 N   0  0  0  0  0  0  0  0  0  0  0  0
   31.1335   11.6041    7.2938 C   0  0  0  0  0  0  0  0  0  0  0  0
   32.1801   11.2180    6.4790 C   0  0  0  0  0  0  0  0  0  0  0  0
   32.6202    9.9054    6.5292 C   0  0  0  0  0  0  0  0  0  0  0  0
   33.7568    9.4849    5.6494 C   0  0  0  0  0  0  0  0  0  0  0  0
   32.0686    8.9758    7.3466 N   0  0  0  0  0  0  0  0  0  0  0  0
   31.0534    9.3719    8.1348 C   0  0  0  0  0  0  0  0  0  0  0  0
   30.4409    8.3671    9.0356 C   0  0  0  0  0  0  0  0  0  0  0  0
   30.5675   10.6640    8.1378 C   0  0  0  0  0  0  0  0  0  0  0  0
  1  2  1  0
  2  3  1  0
  3  4  1  1
  3  5  1  0
  5  6  2  0
  5  7  1  0
  7  8  1  0
  8  9  2  0
  9 10  1  0
 10 11  1  0
 10 12  2  0
 12 13  1  0
 13 14  1  0
 13 15  2  0
 15  8  1  0
A    1
 C1 
A    2
 C2 
A    3
 C3 
A    4
 C4 
A    5
 C5 
A    6
 O1 
A    7
 N1 
A    8
 C6 
A    9
 C7 
A   10
 C8 
A   11
 C9 
A   12
 N2 
A   13
 C10
A   14
 C11
A   15
 C12
M  END
>  <ref_pdb>  (100) 
Ax0310a

>  <ref_mols>  (100) 
Ax0451a,Ax0739a

>  <original SMILES>  (100) 
CC[C@H](C)C(=O)Nc1cc(C)nc(C)c1

>  <rationale>  (100) 
info halogenbond:I82+H97+F134+L98+S66; hbond:S87+E88+A92+S37; hydroph_interaction:V124+Y90+Y89+P107+V18; pication:Y63+F83; pistack:Y94; 

>  <intxn_cluster>  (100) 
107

>  <intxn_cluster_rank>  (100) 
5

>  <N_interactions>  (100) 
8

>  <∆∆G>  (100) 
-13.382108

>  <$/mg>  (100) 
163.0

>  <comRMSD>  (100) 
0.742455

>  <N_rotatable_bonds>  (100) 
7

>  <deep_P1_sidechain>  (100) 
True

>  <farthest_distance_to_substrate>  (100) 
2.602945

>  <hbond:SER:7>  (100) 
hbond:SER:7    0.0
hbond:SER:7      0
Name: 98, dtype: object

>  <halogenbond:SER:7>  (100) 
halogenbond:SER:7    0.0
halogenbond:SER:7      0
Name: 98, dtype: object

>  <hbond:GLY:8>  (100) 
hbond:GLY:8    0.0
hbond:GLY:8      0
Name: 98, dtype: object

>  <hydroph_interaction:VAL:18>  (100) 
hydroph_interaction:VAL:18    NaN
hydroph_interaction:VAL:18     -1
Name: 98, dtype: object

>  <hbond:ASN:19>  (100) 
hbond:ASN:19    0.0
hbond:ASN:19      0
Name: 98, dtype: object

>  <hydroph_interaction:ASN:19>  (100) 
hydroph_interaction:ASN:19    0.0
hydroph_interaction:ASN:19      0
Name: 98, dtype: object

>  <halogenbond:ASN:19>  (100) 
halogenbond:ASN:19    0.0
halogenbond:ASN:19      0
Name: 98, dtype: object

>  <hbond:ARG:20>  (100) 
hbond:ARG:20    0.0
hbond:ARG:20      0
Name: 98, dtype: object

>  <hydroph_interaction:ARG:20>  (100) 
hydroph_interaction:ARG:20    0.0
hydroph_interaction:ARG:20      0
Name: 98, dtype: object

>  <saltbridge:ARG:20>  (100) 
saltbridge:ARG:20    0.0
saltbridge:ARG:20      0
Name: 98, dtype: object

>  <halogenbond:ARG:20>  (100) 
halogenbond:ARG:20    0.0
halogenbond:ARG:20      0
Name: 98, dtype: object

>  <pication:ARG:20>  (100) 
pication:ARG:20    0.0
pication:ARG:20      0
Name: 98, dtype: object

>  <hbond:HIS:21>  (100) 
hbond:HIS:21    0.0
hbond:HIS:21      0
Name: 98, dtype: object

>  <hydroph_interaction:HIS:21>  (100) 
hydroph_interaction:HIS:21    0.0
hydroph_interaction:HIS:21      0
Name: 98, dtype: object

>  <pistack:HIS:21>  (100) 
pistack:HIS:21    0.0
pistack:HIS:21      0
Name: 98, dtype: object

>  <pication:HIS:21>  (100) 
pication:HIS:21    0.0
pication:HIS:21      0
Name: 98, dtype: object

>  <saltbridge:HIS:21>  (100) 
saltbridge:HIS:21    0.0
saltbridge:HIS:21      0
Name: 98, dtype: object

>  <halogenbond:HIS:21>  (100) 
halogenbond:HIS:21    0.0
halogenbond:HIS:21      0
Name: 98, dtype: object

>  <hydroph_interaction:LEU:22>  (100) 
hydroph_interaction:LEU:22    0.0
hydroph_interaction:LEU:22      0
Name: 98, dtype: object

>  <hbond:LEU:22>  (100) 
hbond:LEU:22    0.0
hbond:LEU:22      0
Name: 98, dtype: object

>  <hydroph_interaction:TRP:28>  (100) 
hydroph_interaction:TRP:28    0.0
hydroph_interaction:TRP:28      0
Name: 98, dtype: object

>  <hbond:SER:36>  (100) 
hbond:SER:36    0.0
hbond:SER:36      0
Name: 98, dtype: object

>  <halogenbond:SER:36>  (100) 
halogenbond:SER:36    0.0
halogenbond:SER:36      0
Name: 98, dtype: object

>  <hbond:SER:37>  (100) 
hbond:SER:37    NaN
hbond:SER:37     -1
Name: 98, dtype: object

>  <hbond:ARG:38>  (100) 
hbond:ARG:38    0.0
hbond:ARG:38      0
Name: 98, dtype: object

>  <halogenbond:ARG:38>  (100) 
halogenbond:ARG:38    0.0
halogenbond:ARG:38      0
Name: 98, dtype: object

>  <saltbridge:ASP:39>  (100) 
saltbridge:ASP:39    0.0
saltbridge:ASP:39      0
Name: 98, dtype: object

>  <halogenbond:ASP:39>  (100) 
halogenbond:ASP:39    0.0
halogenbond:ASP:39      0
Name: 98, dtype: object

>  <hbond:ASP:39>  (100) 
hbond:ASP:39    0.0
hbond:ASP:39      0
Name: 98, dtype: object

>  <hydroph_interaction:ASP:39>  (100) 
hydroph_interaction:ASP:39    0.0
hydroph_interaction:ASP:39      0
Name: 98, dtype: object

>  <hydroph_interaction:LEU:40>  (100) 
hydroph_interaction:LEU:40    0.0
hydroph_interaction:LEU:40      0
Name: 98, dtype: object

>  <hydroph_interaction:TYR:63>  (100) 
hydroph_interaction:TYR:63    0.0
hydroph_interaction:TYR:63      0
Name: 98, dtype: object

>  <hbond:TYR:63>  (100) 
hbond:TYR:63    0.0
hbond:TYR:63      0
Name: 98, dtype: object

>  <pistack:TYR:63>  (100) 
pistack:TYR:63    0.0
pistack:TYR:63      0
Name: 98, dtype: object

>  <pication:TYR:63>  (100) 
pication:TYR:63    NaN
pication:TYR:63     -1
Name: 98, dtype: object

>  <halogenbond:TYR:64>  (100) 
halogenbond:TYR:64    0.0
halogenbond:TYR:64      0
Name: 98, dtype: object

>  <hbond:TYR:64>  (100) 
hbond:TYR:64    0.0
hbond:TYR:64      0
Name: 98, dtype: object

>  <hydroph_interaction:TYR:64>  (100) 
hydroph_interaction:TYR:64    0.0
hydroph_interaction:TYR:64      0
Name: 98, dtype: object

>  <halogenbond:CYS:65>  (100) 
halogenbond:CYS:65    0.0
halogenbond:CYS:65      0
Name: 98, dtype: object

>  <hbond:CYS:65>  (100) 
hbond:CYS:65    0.0
hbond:CYS:65      0
Name: 98, dtype: object

>  <hbond:SER:66>  (100) 
hbond:SER:66    0.0
hbond:SER:66      0
Name: 98, dtype: object

>  <halogenbond:SER:66>  (100) 
halogenbond:SER:66    NaN
halogenbond:SER:66     -1
Name: 98, dtype: object

>  <hbond:SER:67>  (100) 
hbond:SER:67    0.0
hbond:SER:67      0
Name: 98, dtype: object

>  <halogenbond:SER:67>  (100) 
halogenbond:SER:67    0.0
halogenbond:SER:67      0
Name: 98, dtype: object

>  <hbond:ARG:68>  (100) 
hbond:ARG:68    0.0
hbond:ARG:68      0
Name: 98, dtype: object

>  <saltbridge:ARG:68>  (100) 
saltbridge:ARG:68    0.0
saltbridge:ARG:68      0
Name: 98, dtype: object

>  <hydroph_interaction:ARG:68>  (100) 
hydroph_interaction:ARG:68    0.0
hydroph_interaction:ARG:68      0
Name: 98, dtype: object

>  <pication:ARG:68>  (100) 
pication:ARG:68    0.0
pication:ARG:68      0
Name: 98, dtype: object

>  <hydroph_interaction:TYR:72>  (100) 
hydroph_interaction:TYR:72    0.0
hydroph_interaction:TYR:72      0
Name: 98, dtype: object

>  <hydroph_interaction:VAL:74>  (100) 
hydroph_interaction:VAL:74    0.0
hydroph_interaction:VAL:74      0
Name: 98, dtype: object

>  <hydroph_interaction:PHE:76>  (100) 
hydroph_interaction:PHE:76    0.0
hydroph_interaction:PHE:76      0
Name: 98, dtype: object

>  <hbond:SER:77>  (100) 
hbond:SER:77    0.0
hbond:SER:77      0
Name: 98, dtype: object

>  <hbond:SER:80>  (100) 
hbond:SER:80    0.0
hbond:SER:80      0
Name: 98, dtype: object

>  <hbond:LEU:81>  (100) 
hbond:LEU:81    0.0
hbond:LEU:81      0
Name: 98, dtype: object

>  <halogenbond:LEU:81>  (100) 
halogenbond:LEU:81    0.0
halogenbond:LEU:81      0
Name: 98, dtype: object

>  <hydroph_interaction:LEU:81>  (100) 
hydroph_interaction:LEU:81    0.0
hydroph_interaction:LEU:81      0
Name: 98, dtype: object

>  <hydroph_interaction:ILE:82>  (100) 
hydroph_interaction:ILE:82    0.0
hydroph_interaction:ILE:82      0
Name: 98, dtype: object

>  <halogenbond:ILE:82>  (100) 
halogenbond:ILE:82    NaN
halogenbond:ILE:82     -1
Name: 98, dtype: object

>  <hbond:ILE:82>  (100) 
hbond:ILE:82    0.0
hbond:ILE:82      0
Name: 98, dtype: object

>  <hbond:PHE:83>  (100) 
hbond:PHE:83    0.0
hbond:PHE:83      0
Name: 98, dtype: object

>  <hydroph_interaction:PHE:83>  (100) 
hydroph_interaction:PHE:83    0.0
hydroph_interaction:PHE:83      0
Name: 98, dtype: object

>  <halogenbond:PHE:83>  (100) 
halogenbond:PHE:83    0.0
halogenbond:PHE:83      0
Name: 98, dtype: object

>  <pistack:PHE:83>  (100) 
pistack:PHE:83    0.0
pistack:PHE:83      0
Name: 98, dtype: object

>  <pication:PHE:83>  (100) 
pication:PHE:83    NaN
pication:PHE:83     -1
Name: 98, dtype: object

>  <hydroph_interaction:VAL:84>  (100) 
hydroph_interaction:VAL:84    0.0
hydroph_interaction:VAL:84      0
Name: 98, dtype: object

>  <halogenbond:VAL:84>  (100) 
halogenbond:VAL:84    0.0
halogenbond:VAL:84      0
Name: 98, dtype: object

>  <hbond:VAL:84>  (100) 
hbond:VAL:84    0.0
hbond:VAL:84      0
Name: 98, dtype: object

>  <hydroph_interaction:GLU:85>  (100) 
hydroph_interaction:GLU:85    0.0
hydroph_interaction:GLU:85      0
Name: 98, dtype: object

>  <hbond:GLU:85>  (100) 
hbond:GLU:85    0.0
hbond:GLU:85      0
Name: 98, dtype: object

>  <halogenbond:GLU:85>  (100) 
halogenbond:GLU:85    0.0
halogenbond:GLU:85      0
Name: 98, dtype: object

>  <saltbridge:GLU:85>  (100) 
saltbridge:GLU:85    0.0
saltbridge:GLU:85      0
Name: 98, dtype: object

>  <halogenbond:ALA:86>  (100) 
halogenbond:ALA:86    0.0
halogenbond:ALA:86      0
Name: 98, dtype: object

>  <hbond:ALA:86>  (100) 
hbond:ALA:86    0.0
hbond:ALA:86      0
Name: 98, dtype: object

>  <hydroph_interaction:ALA:86>  (100) 
hydroph_interaction:ALA:86    0.0
hydroph_interaction:ALA:86      0
Name: 98, dtype: object

>  <hbond:SER:87>  (100) 
hbond:SER:87    2
hbond:SER:87    2
Name: 98, dtype: object

>  <halogenbond:SER:87>  (100) 
halogenbond:SER:87    0.0
halogenbond:SER:87      0
Name: 98, dtype: object

>  <hbond:GLU:88>  (100) 
hbond:GLU:88    1.0
hbond:GLU:88      1
Name: 98, dtype: object

>  <hydroph_interaction:GLU:88>  (100) 
hydroph_interaction:GLU:88    0.0
hydroph_interaction:GLU:88      0
Name: 98, dtype: object

>  <halogenbond:GLU:88>  (100) 
halogenbond:GLU:88    0.0
halogenbond:GLU:88      0
Name: 98, dtype: object

>  <saltbridge:GLU:88>  (100) 
saltbridge:GLU:88    0.0
saltbridge:GLU:88      0
Name: 98, dtype: object

>  <hydroph_interaction:TYR:89>  (100) 
hydroph_interaction:TYR:89    1.0
hydroph_interaction:TYR:89      1
Name: 98, dtype: object

>  <pistack:TYR:89>  (100) 
pistack:TYR:89    0.0
pistack:TYR:89      0
Name: 98, dtype: object

>  <hbond:TYR:89>  (100) 
hbond:TYR:89    0.0
hbond:TYR:89      0
Name: 98, dtype: object

>  <halogenbond:TYR:89>  (100) 
halogenbond:TYR:89    0.0
halogenbond:TYR:89      0
Name: 98, dtype: object

>  <hydroph_interaction:TYR:90>  (100) 
hydroph_interaction:TYR:90    1.0
hydroph_interaction:TYR:90      1
Name: 98, dtype: object

>  <hbond:TYR:90>  (100) 
hbond:TYR:90    0.0
hbond:TYR:90      0
Name: 98, dtype: object

>  <pistack:TYR:90>  (100) 
pistack:TYR:90    0.0
pistack:TYR:90      0
Name: 98, dtype: object

>  <halogenbond:TYR:90>  (100) 
halogenbond:TYR:90    0.0
halogenbond:TYR:90      0
Name: 98, dtype: object

>  <pication:TYR:90>  (100) 
pication:TYR:90    0.0
pication:TYR:90      0
Name: 98, dtype: object

>  <hbond:PRO:91>  (100) 
hbond:PRO:91    0.0
hbond:PRO:91      0
Name: 98, dtype: object

>  <hydroph_interaction:PRO:91>  (100) 
hydroph_interaction:PRO:91    0.0
hydroph_interaction:PRO:91      0
Name: 98, dtype: object

>  <halogenbond:PRO:91>  (100) 
halogenbond:PRO:91    0.0
halogenbond:PRO:91      0
Name: 98, dtype: object

>  <hbond:ALA:92>  (100) 
hbond:ALA:92    NaN
hbond:ALA:92     -1
Name: 98, dtype: object

>  <hydroph_interaction:ALA:92>  (100) 
hydroph_interaction:ALA:92    0.0
hydroph_interaction:ALA:92      0
Name: 98, dtype: object

>  <saltbridge:ARG:93>  (100) 
saltbridge:ARG:93    0.0
saltbridge:ARG:93      0
Name: 98, dtype: object

>  <hbond:ARG:93>  (100) 
hbond:ARG:93    0.0
hbond:ARG:93      0
Name: 98, dtype: object

>  <hydroph_interaction:ARG:93>  (100) 
hydroph_interaction:ARG:93    0.0
hydroph_interaction:ARG:93      0
Name: 98, dtype: object

>  <halogenbond:ARG:93>  (100) 
halogenbond:ARG:93    0.0
halogenbond:ARG:93      0
Name: 98, dtype: object

>  <pication:ARG:93>  (100) 
pication:ARG:93    0.0
pication:ARG:93      0
Name: 98, dtype: object

>  <hydroph_interaction:TYR:94>  (100) 
hydroph_interaction:TYR:94    0.0
hydroph_interaction:TYR:94      0
Name: 98, dtype: object

>  <pistack:TYR:94>  (100) 
pistack:TYR:94    NaN
pistack:TYR:94     -1
Name: 98, dtype: object

>  <hbond:TYR:94>  (100) 
hbond:TYR:94    0.0
hbond:TYR:94      0
Name: 98, dtype: object

>  <hbond:GLN:95>  (100) 
hbond:GLN:95    0.0
hbond:GLN:95      0
Name: 98, dtype: object

>  <hydroph_interaction:GLN:95>  (100) 
hydroph_interaction:GLN:95    0.0
hydroph_interaction:GLN:95      0
Name: 98, dtype: object

>  <halogenbond:GLN:95>  (100) 
halogenbond:GLN:95    0.0
halogenbond:GLN:95      0
Name: 98, dtype: object

>  <hbond:SER:96>  (100) 
hbond:SER:96    0.0
hbond:SER:96      0
Name: 98, dtype: object

>  <halogenbond:HIS:97>  (100) 
halogenbond:HIS:97    NaN
halogenbond:HIS:97     -1
Name: 98, dtype: object

>  <hydroph_interaction:LEU:98>  (100) 
hydroph_interaction:LEU:98    0.0
hydroph_interaction:LEU:98      0
Name: 98, dtype: object

>  <hbond:LEU:98>  (100) 
hbond:LEU:98    0.0
hbond:LEU:98      0
Name: 98, dtype: object

>  <halogenbond:LEU:98>  (100) 
halogenbond:LEU:98    NaN
halogenbond:LEU:98     -1
Name: 98, dtype: object

>  <hbond:MET:99>  (100) 
hbond:MET:99    0.0
hbond:MET:99      0
Name: 98, dtype: object

>  <hydroph_interaction:MET:99>  (100) 
hydroph_interaction:MET:99    0.0
hydroph_interaction:MET:99      0
Name: 98, dtype: object

>  <halogenbond:MET:99>  (100) 
halogenbond:MET:99    0.0
halogenbond:MET:99      0
Name: 98, dtype: object

>  <hydroph_interaction:LEU:100>  (100) 
hydroph_interaction:LEU:100    0.0
hydroph_interaction:LEU:100      0
Name: 98, dtype: object

>  <hbond:LEU:100>  (100) 
hbond:LEU:100    0.0
hbond:LEU:100      0
Name: 98, dtype: object

>  <hbond:ALA:101>  (100) 
hbond:ALA:101    0.0
hbond:ALA:101      0
Name: 98, dtype: object

>  <hydroph_interaction:ALA:101>  (100) 
hydroph_interaction:ALA:101    0.0
hydroph_interaction:ALA:101      0
Name: 98, dtype: object

>  <hydroph_interaction:VAL:102>  (100) 
hydroph_interaction:VAL:102    0.0
hydroph_interaction:VAL:102      0
Name: 98, dtype: object

>  <hbond:VAL:102>  (100) 
hbond:VAL:102    0.0
hbond:VAL:102      0
Name: 98, dtype: object

>  <hbond:GLY:103>  (100) 
hbond:GLY:103    0.0
hbond:GLY:103      0
Name: 98, dtype: object

>  <halogenbond:GLY:103>  (100) 
halogenbond:GLY:103    0.0
halogenbond:GLY:103      0
Name: 98, dtype: object

>  <hbond:HIS:104>  (100) 
hbond:HIS:104    0.0
hbond:HIS:104      0
Name: 98, dtype: object

>  <saltbridge:HIS:104>  (100) 
saltbridge:HIS:104    0.0
saltbridge:HIS:104      0
Name: 98, dtype: object

>  <pication:HIS:104>  (100) 
pication:HIS:104    0.0
pication:HIS:104      0
Name: 98, dtype: object

>  <halogenbond:HIS:104>  (100) 
halogenbond:HIS:104    0.0
halogenbond:HIS:104      0
Name: 98, dtype: object

>  <hydroph_interaction:HIS:104>  (100) 
hydroph_interaction:HIS:104    0.0
hydroph_interaction:HIS:104      0
Name: 98, dtype: object

>  <pistack:HIS:104>  (100) 
pistack:HIS:104    0.0
pistack:HIS:104      0
Name: 98, dtype: object

>  <halogenbond:SER:105>  (100) 
halogenbond:SER:105    0.0
halogenbond:SER:105      0
Name: 98, dtype: object

>  <hbond:SER:105>  (100) 
hbond:SER:105    0.0
hbond:SER:105      0
Name: 98, dtype: object

>  <hbond:GLU:106>  (100) 
hbond:GLU:106    0.0
hbond:GLU:106      0
Name: 98, dtype: object

>  <hydroph_interaction:GLU:106>  (100) 
hydroph_interaction:GLU:106    0.0
hydroph_interaction:GLU:106      0
Name: 98, dtype: object

>  <saltbridge:GLU:106>  (100) 
saltbridge:GLU:106    0.0
saltbridge:GLU:106      0
Name: 98, dtype: object

>  <halogenbond:GLU:106>  (100) 
halogenbond:GLU:106    0.0
halogenbond:GLU:106      0
Name: 98, dtype: object

>  <hydroph_interaction:PRO:107>  (100) 
hydroph_interaction:PRO:107    2
hydroph_interaction:PRO:107    2
Name: 98, dtype: object

>  <hbond:PRO:107>  (100) 
hbond:PRO:107    0.0
hbond:PRO:107      0
Name: 98, dtype: object

>  <halogenbond:PRO:107>  (100) 
halogenbond:PRO:107    0.0
halogenbond:PRO:107      0
Name: 98, dtype: object

>  <hbond:GLY:108>  (100) 
hbond:GLY:108    0.0
hbond:GLY:108      0
Name: 98, dtype: object

>  <halogenbond:GLY:108>  (100) 
halogenbond:GLY:108    0.0
halogenbond:GLY:108      0
Name: 98, dtype: object

>  <hbond:ASP:109>  (100) 
hbond:ASP:109    0.0
hbond:ASP:109      0
Name: 98, dtype: object

>  <hydroph_interaction:ASP:109>  (100) 
hydroph_interaction:ASP:109    0.0
hydroph_interaction:ASP:109      0
Name: 98, dtype: object

>  <saltbridge:ASP:109>  (100) 
saltbridge:ASP:109    0.0
saltbridge:ASP:109      0
Name: 98, dtype: object

>  <halogenbond:CYS:110>  (100) 
halogenbond:CYS:110    0.0
halogenbond:CYS:110      0
Name: 98, dtype: object

>  <hbond:CYS:110>  (100) 
hbond:CYS:110    0.0
hbond:CYS:110      0
Name: 98, dtype: object

>  <hbond:GLY:111>  (100) 
hbond:GLY:111    0.0
hbond:GLY:111      0
Name: 98, dtype: object

>  <hbond:GLY:112>  (100) 
hbond:GLY:112    0.0
hbond:GLY:112      0
Name: 98, dtype: object

>  <hbond:ILE:113>  (100) 
hbond:ILE:113    0.0
hbond:ILE:113      0
Name: 98, dtype: object

>  <hydroph_interaction:LEU:114>  (100) 
hydroph_interaction:LEU:114    0.0
hydroph_interaction:LEU:114      0
Name: 98, dtype: object

>  <hbond:LEU:114>  (100) 
hbond:LEU:114    0.0
hbond:LEU:114      0
Name: 98, dtype: object

>  <hydroph_interaction:ILE:123>  (100) 
hydroph_interaction:ILE:123    0.0
hydroph_interaction:ILE:123      0
Name: 98, dtype: object

>  <hbond:ILE:123>  (100) 
hbond:ILE:123    0.0
hbond:ILE:123      0
Name: 98, dtype: object

>  <hydroph_interaction:VAL:124>  (100) 
hydroph_interaction:VAL:124    1.0
hydroph_interaction:VAL:124      1
Name: 98, dtype: object

>  <hbond:VAL:124>  (100) 
hbond:VAL:124    0.0
hbond:VAL:124      0
Name: 98, dtype: object

>  <halogenbond:VAL:124>  (100) 
halogenbond:VAL:124    0.0
halogenbond:VAL:124      0
Name: 98, dtype: object

>  <hbond:SER:125>  (100) 
hbond:SER:125    0
hbond:SER:125    0
Name: 98, dtype: object

>  <halogenbond:SER:125>  (100) 
halogenbond:SER:125    0.0
halogenbond:SER:125      0
Name: 98, dtype: object

>  <hydroph_interaction:THR:126>  (100) 
hydroph_interaction:THR:126    0.0
hydroph_interaction:THR:126      0
Name: 98, dtype: object

>  <hbond:THR:126>  (100) 
hbond:THR:126    0.0
hbond:THR:126      0
Name: 98, dtype: object

>  <halogenbond:THR:126>  (100) 
halogenbond:THR:126    0.0
halogenbond:THR:126      0
Name: 98, dtype: object

>  <hbond:GLY:127>  (100) 
hbond:GLY:127    0
hbond:GLY:127    0
Name: 98, dtype: object

>  <halogenbond:GLY:127>  (100) 
halogenbond:GLY:127    0.0
halogenbond:GLY:127      0
Name: 98, dtype: object

>  <hydroph_interaction:GLY:127>  (100) 
hydroph_interaction:GLY:127    0.0
hydroph_interaction:GLY:127      0
Name: 98, dtype: object

>  <hbond:GLY:128>  (100) 
hbond:GLY:128    0.0
hbond:GLY:128      0
Name: 98, dtype: object

>  <halogenbond:GLY:128>  (100) 
halogenbond:GLY:128    0.0
halogenbond:GLY:128      0
Name: 98, dtype: object

>  <hydroph_interaction:GLY:128>  (100) 
hydroph_interaction:GLY:128    0.0
hydroph_interaction:GLY:128      0
Name: 98, dtype: object

>  <hbond:ASN:129>  (100) 
hbond:ASN:129    0.0
hbond:ASN:129      0
Name: 98, dtype: object

>  <hydroph_interaction:ASN:129>  (100) 
hydroph_interaction:ASN:129    0.0
hydroph_interaction:ASN:129      0
Name: 98, dtype: object

>  <halogenbond:ASN:129>  (100) 
halogenbond:ASN:129    0.0
halogenbond:ASN:129      0
Name: 98, dtype: object

>  <hbond:GLY:130>  (100) 
hbond:GLY:130    0.0
hbond:GLY:130      0
Name: 98, dtype: object

>  <hbond:LEU:131>  (100) 
hbond:LEU:131    0.0
hbond:LEU:131      0
Name: 98, dtype: object

>  <hydroph_interaction:LEU:131>  (100) 
hydroph_interaction:LEU:131    0.0
hydroph_interaction:LEU:131      0
Name: 98, dtype: object

>  <halogenbond:LEU:131>  (100) 
halogenbond:LEU:131    0.0
halogenbond:LEU:131      0
Name: 98, dtype: object

>  <hydroph_interaction:VAL:132>  (100) 
hydroph_interaction:VAL:132    0.0
hydroph_interaction:VAL:132      0
Name: 98, dtype: object

>  <hbond:VAL:132>  (100) 
hbond:VAL:132    0.0
hbond:VAL:132      0
Name: 98, dtype: object

>  <hbond:GLY:133>  (100) 
hbond:GLY:133    0.0
hbond:GLY:133      0
Name: 98, dtype: object

>  <halogenbond:GLY:133>  (100) 
halogenbond:GLY:133    0.0
halogenbond:GLY:133      0
Name: 98, dtype: object

>  <hydroph_interaction:PHE:134>  (100) 
hydroph_interaction:PHE:134    0.0
hydroph_interaction:PHE:134      0
Name: 98, dtype: object

>  <hbond:PHE:134>  (100) 
hbond:PHE:134    0.0
hbond:PHE:134      0
Name: 98, dtype: object

>  <pistack:PHE:134>  (100) 
pistack:PHE:134    0.0
pistack:PHE:134      0
Name: 98, dtype: object

>  <pication:PHE:134>  (100) 
pication:PHE:134    0.0
pication:PHE:134      0
Name: 98, dtype: object

>  <halogenbond:PHE:134>  (100) 
halogenbond:PHE:134    NaN
halogenbond:PHE:134     -1
Name: 98, dtype: object

>  <hydroph_interaction:ALA:135>  (100) 
hydroph_interaction:ALA:135    0.0
hydroph_interaction:ALA:135      0
Name: 98, dtype: object

>  <hbond:ALA:135>  (100) 
hbond:ALA:135    0.0
hbond:ALA:135      0
Name: 98, dtype: object

$$$$
PV_002735478814
     RDKit          3D

 14 14  0  0  0  0  0  0  0  0999 V2000
   36.4404   13.6832   14.5498 C   0  0  0  0  0  0  0  0  0  0  0  0
   36.4741   12.4718   14.0338 C   0  0  0  0  0  0  0  0  0  0  0  0
   37.2287   12.0957   12.8536 C   0  0  0  0  0  0  0  0  0  0  0  0
   38.2628   12.8868   12.3852 C   0  0  0  0  0  0  0  0  0  0  0  0
   38.9907   12.4929   11.2443 C   0  0  0  0  0  0  0  0  0  0  0  0
   40.1353   13.3204   10.7223 C   0  0  0  0  0  0  0  0  0  0  0  0
   40.6313   14.2973   11.8027 C   0  0  0  0  0  0  0  0  0  0  0  0
   39.7343   14.1410    9.4967 C   0  0  0  0  0  0  0  0  0  0  0  0
   41.2703   12.3544   10.3198 C   0  0  0  0  0  0  0  0  0  0  0  0
   38.6468   11.3184   10.5923 C   0  0  0  0  0  0  0  0  0  0  0  0
   37.6273   10.5466   11.0630 C   0  0  0  0  0  0  0  0  0  0  0  0
   36.9475   10.9399   12.1783 C   0  0  0  0  0  0  0  0  0  0  0  0
   36.0131   10.1967   12.6755 O   0  0  0  0  0  0  0  0  0  0  0  0
   36.8013    9.1197   12.9712 C   0  0  0  0  0  0  0  0  0  0  0  0
  1  2  2  0
  2  3  1  0
  3  4  2  0
  4  5  1  0
  5  6  1  0
  6  7  1  0
  6  8  1  0
  6  9  1  0
  5 10  2  0
 10 11  1  0
 11 12  2  0
 12 13  1  0
 13 14  1  0
 12  3  1  0
A    1
 C1 
A    2
 C2 
A    3
 C3 
A    4
 C4 
A    5
 C5 
A    6
 C6 
A    7
 C7 
A    8
 C8 
A    9
 C9 
A   10
 C10
A   11
 C11
A   12
 C12
A   13
 O1 
A   14
 C13
M  END
>  <ref_pdb>  (101) 
Ax0310a

>  <ref_mols>  (101) 
Ax0473a,Ax0416a

>  <original SMILES>  (101) 
C=Cc1cc(C(C)(C)C)ccc1OC

>  <rationale>  (101) 
info halogenbond:I82+H97+F134+L98+S66; hbond:A92+S37; hydroph_interaction:V84+E85+I82+L100+L98+L131+V18; pication:Y63+F83; pistack:Y94; 

>  <intxn_cluster>  (101) 
206

>  <intxn_cluster_rank>  (101) 
10

>  <N_interactions>  (101) 
6

>  <∆∆G>  (101) 
-10.467025

>  <$/mg>  (101) 
0.0

>  <comRMSD>  (101) 
0.60216

>  <N_rotatable_bonds>  (101) 
3

>  <deep_P1_sidechain>  (101) 
False

>  <farthest_distance_to_substrate>  (101) 
4.317502

>  <hbond:SER:7>  (101) 
hbond:SER:7    0.0
hbond:SER:7      0
Name: 99, dtype: object

>  <halogenbond:SER:7>  (101) 
halogenbond:SER:7    0.0
halogenbond:SER:7      0
Name: 99, dtype: object

>  <hbond:GLY:8>  (101) 
hbond:GLY:8    0.0
hbond:GLY:8      0
Name: 99, dtype: object

>  <hydroph_interaction:VAL:18>  (101) 
hydroph_interaction:VAL:18    NaN
hydroph_interaction:VAL:18     -1
Name: 99, dtype: object

>  <hbond:ASN:19>  (101) 
hbond:ASN:19    0.0
hbond:ASN:19      0
Name: 99, dtype: object

>  <hydroph_interaction:ASN:19>  (101) 
hydroph_interaction:ASN:19    0.0
hydroph_interaction:ASN:19      0
Name: 99, dtype: object

>  <halogenbond:ASN:19>  (101) 
halogenbond:ASN:19    0.0
halogenbond:ASN:19      0
Name: 99, dtype: object

>  <hbond:ARG:20>  (101) 
hbond:ARG:20    0.0
hbond:ARG:20      0
Name: 99, dtype: object

>  <hydroph_interaction:ARG:20>  (101) 
hydroph_interaction:ARG:20    0.0
hydroph_interaction:ARG:20      0
Name: 99, dtype: object

>  <saltbridge:ARG:20>  (101) 
saltbridge:ARG:20    0.0
saltbridge:ARG:20      0
Name: 99, dtype: object

>  <halogenbond:ARG:20>  (101) 
halogenbond:ARG:20    0.0
halogenbond:ARG:20      0
Name: 99, dtype: object

>  <pication:ARG:20>  (101) 
pication:ARG:20    0.0
pication:ARG:20      0
Name: 99, dtype: object

>  <hbond:HIS:21>  (101) 
hbond:HIS:21    0.0
hbond:HIS:21      0
Name: 99, dtype: object

>  <hydroph_interaction:HIS:21>  (101) 
hydroph_interaction:HIS:21    0.0
hydroph_interaction:HIS:21      0
Name: 99, dtype: object

>  <pistack:HIS:21>  (101) 
pistack:HIS:21    0.0
pistack:HIS:21      0
Name: 99, dtype: object

>  <pication:HIS:21>  (101) 
pication:HIS:21    0.0
pication:HIS:21      0
Name: 99, dtype: object

>  <saltbridge:HIS:21>  (101) 
saltbridge:HIS:21    0.0
saltbridge:HIS:21      0
Name: 99, dtype: object

>  <halogenbond:HIS:21>  (101) 
halogenbond:HIS:21    0.0
halogenbond:HIS:21      0
Name: 99, dtype: object

>  <hydroph_interaction:LEU:22>  (101) 
hydroph_interaction:LEU:22    0.0
hydroph_interaction:LEU:22      0
Name: 99, dtype: object

>  <hbond:LEU:22>  (101) 
hbond:LEU:22    0.0
hbond:LEU:22      0
Name: 99, dtype: object

>  <hydroph_interaction:TRP:28>  (101) 
hydroph_interaction:TRP:28    0.0
hydroph_interaction:TRP:28      0
Name: 99, dtype: object

>  <hbond:SER:36>  (101) 
hbond:SER:36    0.0
hbond:SER:36      0
Name: 99, dtype: object

>  <halogenbond:SER:36>  (101) 
halogenbond:SER:36    0.0
halogenbond:SER:36      0
Name: 99, dtype: object

>  <hbond:SER:37>  (101) 
hbond:SER:37    NaN
hbond:SER:37     -1
Name: 99, dtype: object

>  <hbond:ARG:38>  (101) 
hbond:ARG:38    0.0
hbond:ARG:38      0
Name: 99, dtype: object

>  <halogenbond:ARG:38>  (101) 
halogenbond:ARG:38    0.0
halogenbond:ARG:38      0
Name: 99, dtype: object

>  <saltbridge:ASP:39>  (101) 
saltbridge:ASP:39    0.0
saltbridge:ASP:39      0
Name: 99, dtype: object

>  <halogenbond:ASP:39>  (101) 
halogenbond:ASP:39    0.0
halogenbond:ASP:39      0
Name: 99, dtype: object

>  <hbond:ASP:39>  (101) 
hbond:ASP:39    0.0
hbond:ASP:39      0
Name: 99, dtype: object

>  <hydroph_interaction:ASP:39>  (101) 
hydroph_interaction:ASP:39    0.0
hydroph_interaction:ASP:39      0
Name: 99, dtype: object

>  <hydroph_interaction:LEU:40>  (101) 
hydroph_interaction:LEU:40    0.0
hydroph_interaction:LEU:40      0
Name: 99, dtype: object

>  <hydroph_interaction:TYR:63>  (101) 
hydroph_interaction:TYR:63    0.0
hydroph_interaction:TYR:63      0
Name: 99, dtype: object

>  <hbond:TYR:63>  (101) 
hbond:TYR:63    0.0
hbond:TYR:63      0
Name: 99, dtype: object

>  <pistack:TYR:63>  (101) 
pistack:TYR:63    0.0
pistack:TYR:63      0
Name: 99, dtype: object

>  <pication:TYR:63>  (101) 
pication:TYR:63    NaN
pication:TYR:63     -1
Name: 99, dtype: object

>  <halogenbond:TYR:64>  (101) 
halogenbond:TYR:64    0.0
halogenbond:TYR:64      0
Name: 99, dtype: object

>  <hbond:TYR:64>  (101) 
hbond:TYR:64    0.0
hbond:TYR:64      0
Name: 99, dtype: object

>  <hydroph_interaction:TYR:64>  (101) 
hydroph_interaction:TYR:64    0.0
hydroph_interaction:TYR:64      0
Name: 99, dtype: object

>  <halogenbond:CYS:65>  (101) 
halogenbond:CYS:65    0.0
halogenbond:CYS:65      0
Name: 99, dtype: object

>  <hbond:CYS:65>  (101) 
hbond:CYS:65    0.0
hbond:CYS:65      0
Name: 99, dtype: object

>  <hbond:SER:66>  (101) 
hbond:SER:66    0.0
hbond:SER:66      0
Name: 99, dtype: object

>  <halogenbond:SER:66>  (101) 
halogenbond:SER:66    NaN
halogenbond:SER:66     -1
Name: 99, dtype: object

>  <hbond:SER:67>  (101) 
hbond:SER:67    0.0
hbond:SER:67      0
Name: 99, dtype: object

>  <halogenbond:SER:67>  (101) 
halogenbond:SER:67    0.0
halogenbond:SER:67      0
Name: 99, dtype: object

>  <hbond:ARG:68>  (101) 
hbond:ARG:68    0.0
hbond:ARG:68      0
Name: 99, dtype: object

>  <saltbridge:ARG:68>  (101) 
saltbridge:ARG:68    0.0
saltbridge:ARG:68      0
Name: 99, dtype: object

>  <hydroph_interaction:ARG:68>  (101) 
hydroph_interaction:ARG:68    0.0
hydroph_interaction:ARG:68      0
Name: 99, dtype: object

>  <pication:ARG:68>  (101) 
pication:ARG:68    0.0
pication:ARG:68      0
Name: 99, dtype: object

>  <hydroph_interaction:TYR:72>  (101) 
hydroph_interaction:TYR:72    0.0
hydroph_interaction:TYR:72      0
Name: 99, dtype: object

>  <hydroph_interaction:VAL:74>  (101) 
hydroph_interaction:VAL:74    0.0
hydroph_interaction:VAL:74      0
Name: 99, dtype: object

>  <hydroph_interaction:PHE:76>  (101) 
hydroph_interaction:PHE:76    0.0
hydroph_interaction:PHE:76      0
Name: 99, dtype: object

>  <hbond:SER:77>  (101) 
hbond:SER:77    0.0
hbond:SER:77      0
Name: 99, dtype: object

>  <hbond:SER:80>  (101) 
hbond:SER:80    0.0
hbond:SER:80      0
Name: 99, dtype: object

>  <hbond:LEU:81>  (101) 
hbond:LEU:81    0.0
hbond:LEU:81      0
Name: 99, dtype: object

>  <halogenbond:LEU:81>  (101) 
halogenbond:LEU:81    0.0
halogenbond:LEU:81      0
Name: 99, dtype: object

>  <hydroph_interaction:LEU:81>  (101) 
hydroph_interaction:LEU:81    0.0
hydroph_interaction:LEU:81      0
Name: 99, dtype: object

>  <hydroph_interaction:ILE:82>  (101) 
hydroph_interaction:ILE:82    1.0
hydroph_interaction:ILE:82      1
Name: 99, dtype: object

>  <halogenbond:ILE:82>  (101) 
halogenbond:ILE:82    NaN
halogenbond:ILE:82     -1
Name: 99, dtype: object

>  <hbond:ILE:82>  (101) 
hbond:ILE:82    0.0
hbond:ILE:82      0
Name: 99, dtype: object

>  <hbond:PHE:83>  (101) 
hbond:PHE:83    0.0
hbond:PHE:83      0
Name: 99, dtype: object

>  <hydroph_interaction:PHE:83>  (101) 
hydroph_interaction:PHE:83    0.0
hydroph_interaction:PHE:83      0
Name: 99, dtype: object

>  <halogenbond:PHE:83>  (101) 
halogenbond:PHE:83    0.0
halogenbond:PHE:83      0
Name: 99, dtype: object

>  <pistack:PHE:83>  (101) 
pistack:PHE:83    0.0
pistack:PHE:83      0
Name: 99, dtype: object

>  <pication:PHE:83>  (101) 
pication:PHE:83    NaN
pication:PHE:83     -1
Name: 99, dtype: object

>  <hydroph_interaction:VAL:84>  (101) 
hydroph_interaction:VAL:84    1.0
hydroph_interaction:VAL:84      1
Name: 99, dtype: object

>  <halogenbond:VAL:84>  (101) 
halogenbond:VAL:84    0.0
halogenbond:VAL:84      0
Name: 99, dtype: object

>  <hbond:VAL:84>  (101) 
hbond:VAL:84    0.0
hbond:VAL:84      0
Name: 99, dtype: object

>  <hydroph_interaction:GLU:85>  (101) 
hydroph_interaction:GLU:85    1.0
hydroph_interaction:GLU:85      1
Name: 99, dtype: object

>  <hbond:GLU:85>  (101) 
hbond:GLU:85    0.0
hbond:GLU:85      0
Name: 99, dtype: object

>  <halogenbond:GLU:85>  (101) 
halogenbond:GLU:85    0.0
halogenbond:GLU:85      0
Name: 99, dtype: object

>  <saltbridge:GLU:85>  (101) 
saltbridge:GLU:85    0.0
saltbridge:GLU:85      0
Name: 99, dtype: object

>  <halogenbond:ALA:86>  (101) 
halogenbond:ALA:86    0.0
halogenbond:ALA:86      0
Name: 99, dtype: object

>  <hbond:ALA:86>  (101) 
hbond:ALA:86    0.0
hbond:ALA:86      0
Name: 99, dtype: object

>  <hydroph_interaction:ALA:86>  (101) 
hydroph_interaction:ALA:86    0.0
hydroph_interaction:ALA:86      0
Name: 99, dtype: object

>  <hbond:SER:87>  (101) 
hbond:SER:87    0
hbond:SER:87    0
Name: 99, dtype: object

>  <halogenbond:SER:87>  (101) 
halogenbond:SER:87    0.0
halogenbond:SER:87      0
Name: 99, dtype: object

>  <hbond:GLU:88>  (101) 
hbond:GLU:88    0.0
hbond:GLU:88      0
Name: 99, dtype: object

>  <hydroph_interaction:GLU:88>  (101) 
hydroph_interaction:GLU:88    0.0
hydroph_interaction:GLU:88      0
Name: 99, dtype: object

>  <halogenbond:GLU:88>  (101) 
halogenbond:GLU:88    0.0
halogenbond:GLU:88      0
Name: 99, dtype: object

>  <saltbridge:GLU:88>  (101) 
saltbridge:GLU:88    0.0
saltbridge:GLU:88      0
Name: 99, dtype: object

>  <hydroph_interaction:TYR:89>  (101) 
hydroph_interaction:TYR:89    0.0
hydroph_interaction:TYR:89      0
Name: 99, dtype: object

>  <pistack:TYR:89>  (101) 
pistack:TYR:89    0.0
pistack:TYR:89      0
Name: 99, dtype: object

>  <hbond:TYR:89>  (101) 
hbond:TYR:89    0.0
hbond:TYR:89      0
Name: 99, dtype: object

>  <halogenbond:TYR:89>  (101) 
halogenbond:TYR:89    0.0
halogenbond:TYR:89      0
Name: 99, dtype: object

>  <hydroph_interaction:TYR:90>  (101) 
hydroph_interaction:TYR:90    0.0
hydroph_interaction:TYR:90      0
Name: 99, dtype: object

>  <hbond:TYR:90>  (101) 
hbond:TYR:90    0.0
hbond:TYR:90      0
Name: 99, dtype: object

>  <pistack:TYR:90>  (101) 
pistack:TYR:90    0.0
pistack:TYR:90      0
Name: 99, dtype: object

>  <halogenbond:TYR:90>  (101) 
halogenbond:TYR:90    0.0
halogenbond:TYR:90      0
Name: 99, dtype: object

>  <pication:TYR:90>  (101) 
pication:TYR:90    0.0
pication:TYR:90      0
Name: 99, dtype: object

>  <hbond:PRO:91>  (101) 
hbond:PRO:91    0.0
hbond:PRO:91      0
Name: 99, dtype: object

>  <hydroph_interaction:PRO:91>  (101) 
hydroph_interaction:PRO:91    0.0
hydroph_interaction:PRO:91      0
Name: 99, dtype: object

>  <halogenbond:PRO:91>  (101) 
halogenbond:PRO:91    0.0
halogenbond:PRO:91      0
Name: 99, dtype: object

>  <hbond:ALA:92>  (101) 
hbond:ALA:92    NaN
hbond:ALA:92     -1
Name: 99, dtype: object

>  <hydroph_interaction:ALA:92>  (101) 
hydroph_interaction:ALA:92    0.0
hydroph_interaction:ALA:92      0
Name: 99, dtype: object

>  <saltbridge:ARG:93>  (101) 
saltbridge:ARG:93    0.0
saltbridge:ARG:93      0
Name: 99, dtype: object

>  <hbond:ARG:93>  (101) 
hbond:ARG:93    0.0
hbond:ARG:93      0
Name: 99, dtype: object

>  <hydroph_interaction:ARG:93>  (101) 
hydroph_interaction:ARG:93    0.0
hydroph_interaction:ARG:93      0
Name: 99, dtype: object

>  <halogenbond:ARG:93>  (101) 
halogenbond:ARG:93    0.0
halogenbond:ARG:93      0
Name: 99, dtype: object

>  <pication:ARG:93>  (101) 
pication:ARG:93    0.0
pication:ARG:93      0
Name: 99, dtype: object

>  <hydroph_interaction:TYR:94>  (101) 
hydroph_interaction:TYR:94    0.0
hydroph_interaction:TYR:94      0
Name: 99, dtype: object

>  <pistack:TYR:94>  (101) 
pistack:TYR:94    NaN
pistack:TYR:94     -1
Name: 99, dtype: object

>  <hbond:TYR:94>  (101) 
hbond:TYR:94    0.0
hbond:TYR:94      0
Name: 99, dtype: object

>  <hbond:GLN:95>  (101) 
hbond:GLN:95    0.0
hbond:GLN:95      0
Name: 99, dtype: object

>  <hydroph_interaction:GLN:95>  (101) 
hydroph_interaction:GLN:95    0.0
hydroph_interaction:GLN:95      0
Name: 99, dtype: object

>  <halogenbond:GLN:95>  (101) 
halogenbond:GLN:95    0.0
halogenbond:GLN:95      0
Name: 99, dtype: object

>  <hbond:SER:96>  (101) 
hbond:SER:96    0.0
hbond:SER:96      0
Name: 99, dtype: object

>  <halogenbond:HIS:97>  (101) 
halogenbond:HIS:97    NaN
halogenbond:HIS:97     -1
Name: 99, dtype: object

>  <hydroph_interaction:LEU:98>  (101) 
hydroph_interaction:LEU:98    1.0
hydroph_interaction:LEU:98      1
Name: 99, dtype: object

>  <hbond:LEU:98>  (101) 
hbond:LEU:98    0.0
hbond:LEU:98      0
Name: 99, dtype: object

>  <halogenbond:LEU:98>  (101) 
halogenbond:LEU:98    NaN
halogenbond:LEU:98     -1
Name: 99, dtype: object

>  <hbond:MET:99>  (101) 
hbond:MET:99    0.0
hbond:MET:99      0
Name: 99, dtype: object

>  <hydroph_interaction:MET:99>  (101) 
hydroph_interaction:MET:99    0.0
hydroph_interaction:MET:99      0
Name: 99, dtype: object

>  <halogenbond:MET:99>  (101) 
halogenbond:MET:99    0.0
halogenbond:MET:99      0
Name: 99, dtype: object

>  <hydroph_interaction:LEU:100>  (101) 
hydroph_interaction:LEU:100    1.0
hydroph_interaction:LEU:100      1
Name: 99, dtype: object

>  <hbond:LEU:100>  (101) 
hbond:LEU:100    0.0
hbond:LEU:100      0
Name: 99, dtype: object

>  <hbond:ALA:101>  (101) 
hbond:ALA:101    0.0
hbond:ALA:101      0
Name: 99, dtype: object

>  <hydroph_interaction:ALA:101>  (101) 
hydroph_interaction:ALA:101    0.0
hydroph_interaction:ALA:101      0
Name: 99, dtype: object

>  <hydroph_interaction:VAL:102>  (101) 
hydroph_interaction:VAL:102    0.0
hydroph_interaction:VAL:102      0
Name: 99, dtype: object

>  <hbond:VAL:102>  (101) 
hbond:VAL:102    0.0
hbond:VAL:102      0
Name: 99, dtype: object

>  <hbond:GLY:103>  (101) 
hbond:GLY:103    0.0
hbond:GLY:103      0
Name: 99, dtype: object

>  <halogenbond:GLY:103>  (101) 
halogenbond:GLY:103    0.0
halogenbond:GLY:103      0
Name: 99, dtype: object

>  <hbond:HIS:104>  (101) 
hbond:HIS:104    0.0
hbond:HIS:104      0
Name: 99, dtype: object

>  <saltbridge:HIS:104>  (101) 
saltbridge:HIS:104    0.0
saltbridge:HIS:104      0
Name: 99, dtype: object

>  <pication:HIS:104>  (101) 
pication:HIS:104    0.0
pication:HIS:104      0
Name: 99, dtype: object

>  <halogenbond:HIS:104>  (101) 
halogenbond:HIS:104    0.0
halogenbond:HIS:104      0
Name: 99, dtype: object

>  <hydroph_interaction:HIS:104>  (101) 
hydroph_interaction:HIS:104    0.0
hydroph_interaction:HIS:104      0
Name: 99, dtype: object

>  <pistack:HIS:104>  (101) 
pistack:HIS:104    0.0
pistack:HIS:104      0
Name: 99, dtype: object

>  <halogenbond:SER:105>  (101) 
halogenbond:SER:105    0.0
halogenbond:SER:105      0
Name: 99, dtype: object

>  <hbond:SER:105>  (101) 
hbond:SER:105    0.0
hbond:SER:105      0
Name: 99, dtype: object

>  <hbond:GLU:106>  (101) 
hbond:GLU:106    0.0
hbond:GLU:106      0
Name: 99, dtype: object

>  <hydroph_interaction:GLU:106>  (101) 
hydroph_interaction:GLU:106    0.0
hydroph_interaction:GLU:106      0
Name: 99, dtype: object

>  <saltbridge:GLU:106>  (101) 
saltbridge:GLU:106    0.0
saltbridge:GLU:106      0
Name: 99, dtype: object

>  <halogenbond:GLU:106>  (101) 
halogenbond:GLU:106    0.0
halogenbond:GLU:106      0
Name: 99, dtype: object

>  <hydroph_interaction:PRO:107>  (101) 
hydroph_interaction:PRO:107    0
hydroph_interaction:PRO:107    0
Name: 99, dtype: object

>  <hbond:PRO:107>  (101) 
hbond:PRO:107    0.0
hbond:PRO:107      0
Name: 99, dtype: object

>  <halogenbond:PRO:107>  (101) 
halogenbond:PRO:107    0.0
halogenbond:PRO:107      0
Name: 99, dtype: object

>  <hbond:GLY:108>  (101) 
hbond:GLY:108    0.0
hbond:GLY:108      0
Name: 99, dtype: object

>  <halogenbond:GLY:108>  (101) 
halogenbond:GLY:108    0.0
halogenbond:GLY:108      0
Name: 99, dtype: object

>  <hbond:ASP:109>  (101) 
hbond:ASP:109    0.0
hbond:ASP:109      0
Name: 99, dtype: object

>  <hydroph_interaction:ASP:109>  (101) 
hydroph_interaction:ASP:109    0.0
hydroph_interaction:ASP:109      0
Name: 99, dtype: object

>  <saltbridge:ASP:109>  (101) 
saltbridge:ASP:109    0.0
saltbridge:ASP:109      0
Name: 99, dtype: object

>  <halogenbond:CYS:110>  (101) 
halogenbond:CYS:110    0.0
halogenbond:CYS:110      0
Name: 99, dtype: object

>  <hbond:CYS:110>  (101) 
hbond:CYS:110    0.0
hbond:CYS:110      0
Name: 99, dtype: object

>  <hbond:GLY:111>  (101) 
hbond:GLY:111    0.0
hbond:GLY:111      0
Name: 99, dtype: object

>  <hbond:GLY:112>  (101) 
hbond:GLY:112    0.0
hbond:GLY:112      0
Name: 99, dtype: object

>  <hbond:ILE:113>  (101) 
hbond:ILE:113    0.0
hbond:ILE:113      0
Name: 99, dtype: object

>  <hydroph_interaction:LEU:114>  (101) 
hydroph_interaction:LEU:114    0.0
hydroph_interaction:LEU:114      0
Name: 99, dtype: object

>  <hbond:LEU:114>  (101) 
hbond:LEU:114    0.0
hbond:LEU:114      0
Name: 99, dtype: object

>  <hydroph_interaction:ILE:123>  (101) 
hydroph_interaction:ILE:123    0.0
hydroph_interaction:ILE:123      0
Name: 99, dtype: object

>  <hbond:ILE:123>  (101) 
hbond:ILE:123    0.0
hbond:ILE:123      0
Name: 99, dtype: object

>  <hydroph_interaction:VAL:124>  (101) 
hydroph_interaction:VAL:124    0.0
hydroph_interaction:VAL:124      0
Name: 99, dtype: object

>  <hbond:VAL:124>  (101) 
hbond:VAL:124    0.0
hbond:VAL:124      0
Name: 99, dtype: object

>  <halogenbond:VAL:124>  (101) 
halogenbond:VAL:124    0.0
halogenbond:VAL:124      0
Name: 99, dtype: object

>  <hbond:SER:125>  (101) 
hbond:SER:125    0
hbond:SER:125    0
Name: 99, dtype: object

>  <halogenbond:SER:125>  (101) 
halogenbond:SER:125    0.0
halogenbond:SER:125      0
Name: 99, dtype: object

>  <hydroph_interaction:THR:126>  (101) 
hydroph_interaction:THR:126    0.0
hydroph_interaction:THR:126      0
Name: 99, dtype: object

>  <hbond:THR:126>  (101) 
hbond:THR:126    0.0
hbond:THR:126      0
Name: 99, dtype: object

>  <halogenbond:THR:126>  (101) 
halogenbond:THR:126    0.0
halogenbond:THR:126      0
Name: 99, dtype: object

>  <hbond:GLY:127>  (101) 
hbond:GLY:127    0
hbond:GLY:127    0
Name: 99, dtype: object

>  <halogenbond:GLY:127>  (101) 
halogenbond:GLY:127    0.0
halogenbond:GLY:127      0
Name: 99, dtype: object

>  <hydroph_interaction:GLY:127>  (101) 
hydroph_interaction:GLY:127    0.0
hydroph_interaction:GLY:127      0
Name: 99, dtype: object

>  <hbond:GLY:128>  (101) 
hbond:GLY:128    0.0
hbond:GLY:128      0
Name: 99, dtype: object

>  <halogenbond:GLY:128>  (101) 
halogenbond:GLY:128    0.0
halogenbond:GLY:128      0
Name: 99, dtype: object

>  <hydroph_interaction:GLY:128>  (101) 
hydroph_interaction:GLY:128    0.0
hydroph_interaction:GLY:128      0
Name: 99, dtype: object

>  <hbond:ASN:129>  (101) 
hbond:ASN:129    0.0
hbond:ASN:129      0
Name: 99, dtype: object

>  <hydroph_interaction:ASN:129>  (101) 
hydroph_interaction:ASN:129    0.0
hydroph_interaction:ASN:129      0
Name: 99, dtype: object

>  <halogenbond:ASN:129>  (101) 
halogenbond:ASN:129    0.0
halogenbond:ASN:129      0
Name: 99, dtype: object

>  <hbond:GLY:130>  (101) 
hbond:GLY:130    0.0
hbond:GLY:130      0
Name: 99, dtype: object

>  <hbond:LEU:131>  (101) 
hbond:LEU:131    0.0
hbond:LEU:131      0
Name: 99, dtype: object

>  <hydroph_interaction:LEU:131>  (101) 
hydroph_interaction:LEU:131    1.0
hydroph_interaction:LEU:131      1
Name: 99, dtype: object

>  <halogenbond:LEU:131>  (101) 
halogenbond:LEU:131    0.0
halogenbond:LEU:131      0
Name: 99, dtype: object

>  <hydroph_interaction:VAL:132>  (101) 
hydroph_interaction:VAL:132    0.0
hydroph_interaction:VAL:132      0
Name: 99, dtype: object

>  <hbond:VAL:132>  (101) 
hbond:VAL:132    0.0
hbond:VAL:132      0
Name: 99, dtype: object

>  <hbond:GLY:133>  (101) 
hbond:GLY:133    0.0
hbond:GLY:133      0
Name: 99, dtype: object

>  <halogenbond:GLY:133>  (101) 
halogenbond:GLY:133    0.0
halogenbond:GLY:133      0
Name: 99, dtype: object

>  <hydroph_interaction:PHE:134>  (101) 
hydroph_interaction:PHE:134    0.0
hydroph_interaction:PHE:134      0
Name: 99, dtype: object

>  <hbond:PHE:134>  (101) 
hbond:PHE:134    0.0
hbond:PHE:134      0
Name: 99, dtype: object

>  <pistack:PHE:134>  (101) 
pistack:PHE:134    0.0
pistack:PHE:134      0
Name: 99, dtype: object

>  <pication:PHE:134>  (101) 
pication:PHE:134    0.0
pication:PHE:134      0
Name: 99, dtype: object

>  <halogenbond:PHE:134>  (101) 
halogenbond:PHE:134    NaN
halogenbond:PHE:134     -1
Name: 99, dtype: object

>  <hydroph_interaction:ALA:135>  (101) 
hydroph_interaction:ALA:135    0.0
hydroph_interaction:ALA:135      0
Name: 99, dtype: object

>  <hbond:ALA:135>  (101) 
hbond:ALA:135    0.0
hbond:ALA:135      0
Name: 99, dtype: object

$$$$
