ver_1.2
     RDKit          3D

 14 15  0  0  0  0  0  0  0  0999 V2000
    2.8742    1.7939   -0.0225 C   0  0  0  0  0  0  0  0  0  0  0  0
    2.1431    0.5249   -0.0060 N   0  0  0  0  0  0  0  0  0  0  0  0
    2.6718   -0.7109    0.0108 C   0  0  0  0  0  0  0  0  0  0  0  0
    1.6896   -1.6292    0.0225 N   0  0  0  0  0  0  0  0  0  0  0  0
    0.4985   -1.0050    0.0136 C   0  0  0  0  0  0  0  0  0  0  0  0
    0.8120    0.3390   -0.0041 C   0  0  0  0  0  0  0  0  0  0  0  0
   -0.2141    1.2838   -0.0172 C   0  0  0  0  0  0  0  0  0  0  0  0
    0.0677    2.5110   -0.0334 O   0  0  0  0  0  0  0  0  0  0  0  0
   -1.4703    0.8087   -0.0115 N   0  0  0  0  0  0  0  0  0  0  0  0
   -1.7399   -0.5063    0.0059 C   0  0  0  0  0  0  0  0  0  0  0  0
   -2.9485   -0.8949    0.0105 O   0  0  0  0  0  0  0  0  0  0  0  0
   -0.7764   -1.4420    0.0188 N   0  0  0  0  0  0  0  0  0  0  0  0
   -1.0645   -2.8724    0.0378 C   0  0  0  0  0  0  0  0  0  0  0  0
   -2.5432    1.7995   -0.0252 C   0  0  0  0  0  0  0  0  0  0  0  0
  1  2  1  0
  2  3  1  0
  3  4  2  0
  4  5  1  0
  5  6  2  0
  6  7  1  0
  7  8  2  0
  7  9  1  0
  9 10  1  0
 10 11  2  0
 10 12  1  0
 12 13  1  0
  9 14  1  0
  6  2  1  0
 12  5  1  0
M  END
>  <ref_url>  (1) 
https://github.com/matteoferla/EV-A71-2A-elaborations

>  <submitter_name>  (1) 
Matteo Ferla

>  <submitter_email>  (1) 
matteo.ferla@stats.ox.ac.uk

>  <submitter_institution>  (1) 
University of Oxford

>  <generation_date>  (1) 
2024-02-14

>  <method>  (1) 
A71-ROCS-iter2

>  <rationale>  (1) 
rationale

>  <experiment>  (1) 
experiment

>  <cluster_label>  (1) 
cluster_label

>  <cluster_rank>  (1) 
cluster_rank

>  <N_interactions>  (1) 
N_interactions

>  <∆∆G>  (1) 
∆∆G

>  <comRMSD>  (1) 
comRMSD

>  <ROCS_TanimotoCombo>  (1) 
ROCS_TanimotoCombo

>  <ROCS_ShapeTanimoto>  (1) 
ROCS_ShapeTanimoto

>  <ROCS_ColorTanimoto>  (1) 
ROCS_ColorTanimoto

$$$$
EN300_26666438
     RDKit          3D

 26 28  0  0  0  0  0  0  0  0999 V2000
   35.0033   14.5217    7.5205 C   0  0  0  0  0  0  0  0  0  0  0  0
   34.5304   14.0055    8.8881 C   0  0  0  0  0  0  0  0  0  0  0  0
   35.8359   13.5365    9.5754 C   0  0  0  0  0  0  0  0  0  0  0  0
   33.7283   15.0416    9.6717 C   0  0  0  0  0  0  0  0  0  0  0  0
   33.4798   13.0526    8.7596 O   0  0  0  0  0  0  0  0  0  0  0  0
   32.2632   13.6449    8.8080 C   0  0  0  0  0  0  0  0  0  0  0  0
   31.9310   14.5557    9.5446 O   0  0  0  0  0  0  0  0  0  0  0  0
   31.4514   13.0824    7.9146 N   0  0  0  0  0  0  0  0  0  0  0  0
   30.1135   13.5533    7.8784 C   0  0  0  0  0  0  0  0  0  0  0  0
   29.4192   13.8603    9.2054 C   0  0  0  0  0  0  0  0  0  0  0  0
   27.9775   14.3677    9.1646 C   0  0  0  0  0  0  0  0  0  0  0  0
   27.3718   14.5217    7.7786 C   0  0  0  0  0  0  0  0  0  0  0  0
   28.0477   14.2402    6.6189 C   0  0  0  0  0  0  0  0  0  0  0  0
   29.3256   13.7969    6.6184 C   0  0  0  0  0  0  0  0  0  0  0  0
   29.9663   13.5694    5.0477 Cl  0  0  0  0  0  0  0  0  0  0  0  0
   31.6754   11.7196    7.5813 C   0  0  0  0  0  0  0  0  0  0  0  0
   30.9232   10.7919    8.2006 N   0  0  0  0  0  0  0  0  0  0  0  0
   31.1676    9.5264    7.8991 C   0  0  0  0  0  0  0  0  0  0  0  0
   30.2311    8.3011    8.7235 S   0  0  0  0  0  0  0  0  0  0  0  0
   32.0798    9.1003    7.0276 N   0  0  0  0  0  0  0  0  0  0  0  0
   32.8138   10.0254    6.4180 C   0  0  0  0  0  0  0  0  0  0  0  0
   33.7765    9.6092    5.5128 C   0  0  0  0  0  0  0  0  0  0  0  0
   34.5990   10.5108    4.8361 C   0  0  0  0  0  0  0  0  0  0  0  0
   34.4591   11.8684    5.0650 C   0  0  0  0  0  0  0  0  0  0  0  0
   33.4982   12.3061    5.9661 C   0  0  0  0  0  0  0  0  0  0  0  0
   32.6642   11.3898    6.6538 C   0  0  0  0  0  0  0  0  0  0  0  0
  1  2  1  0
  2  3  1  0
  2  4  1  0
  2  5  1  0
  5  6  1  0
  6  7  2  0
  6  8  1  0
  8  9  1  0
  9 10  2  0
 10 11  1  0
 11 12  2  0
 12 13  1  0
 13 14  2  0
 14 15  1  0
  8 16  1  0
 16 17  2  0
 17 18  1  0
 18 19  1  0
 18 20  2  0
 20 21  1  0
 21 22  2  0
 22 23  1  0
 23 24  2  0
 24 25  1  0
 25 26  2  0
 14  9  1  0
 26 16  1  0
 26 21  1  0
A    1
 C1 
A    2
 C2 
A    3
 C3 
A    4
 C4 
A    5
 O1 
A    6
 C5 
A    7
 O2 
A    8
 N1 
A    9
 C6 
A   10
 C7 
A   11
 C8 
A   12
 C9 
A   13
 C10
A   14
 C11
A   15
CL1 
A   16
 C12
A   17
 N2 
A   18
 C13
A   19
 S1 
A   20
 N3 
A   21
 C14
A   22
 C15
A   23
 C16
A   24
 C17
A   25
 C18
A   26
 C19
M  END
>  <ref_pdb>  (2) 
Ax0310a

>  <ref_mols>  (2) 
Ax0446a,Ax1080a,Ax0812a,Ax0719a,Ax1140a,Ax0528a,Ax0310a

>  <original SMILES>  (2) 
CC(C)(C)OC(=O)N(c1ccccc1Cl)c1nc(S)nc2ccccc12

>  <rationale>  (2) 
info info set:bb_whole;hbond:S87+S105+G127; hydroph_interaction:Y89+Y90+V84; 

>  <experiment>  (2) 
bb_whole

>  <cluster_label>  (2) 
3

>  <cluster_rank>  (2) 
1

>  <N_interactions>  (2) 
6

>  <∆∆G>  (2) 
-11.29999

>  <comRMSD>  (2) 
0.535039

>  <ROCS_TanimotoCombo>  (2) 
0.435

>  <ROCS_ShapeTanimoto>  (2) 
0.282

>  <ROCS_ColorTanimoto>  (2) 
0.152

$$$$
Z45507458
     RDKit          3D

 18 19  0  0  0  0  0  0  0  0999 V2000
   27.0285   15.7970    9.5199 C   0  0  0  0  0  0  0  0  0  0  0  0
   28.1951   15.0280    9.3006 N   0  0  0  0  0  0  0  0  0  0  0  0
   29.0594   15.6300    8.3688 C   0  0  0  0  0  0  0  0  0  0  0  0
   28.8508   14.9614    7.1927 C   0  0  0  0  0  0  0  0  0  0  0  0
   29.5127   13.6715    7.3108 N   0  0  0  0  0  0  0  0  0  0  0  0
   30.8227   13.4368    8.3810 S   0  0  0  0  0  6  0  0  0  0  0  0
   32.0154   14.1123    8.0803 O   0  0  0  0  0  0  0  0  0  0  0  0
   30.3558   13.5034    9.7155 O   0  0  0  0  0  0  0  0  0  0  0  0
   31.3376   11.9397    7.7975 C   0  0  0  0  0  0  0  0  0  0  0  0
   30.8634   10.6847    8.1527 C   0  0  0  0  0  0  0  0  0  0  0  0
   31.4030    9.5428    7.5808 C   0  0  0  0  0  0  0  0  0  0  0  0
   32.4187    9.6525    6.6472 C   0  0  0  0  0  0  0  0  0  0  0  0
   32.9431    8.5911    6.1085 F   0  0  0  0  0  0  0  0  0  0  0  0
   32.9288   10.8453    6.2419 C   0  0  0  0  0  0  0  0  0  0  0  0
   34.1859   10.8934    5.0666 Cl  0  0  0  0  0  0  0  0  0  0  0  0
   32.4588   12.0274    6.7567 C   0  0  0  0  0  0  0  0  0  0  0  0
   28.5002   12.9063    7.9248 C   0  0  0  0  0  0  0  0  0  0  0  0
   27.7633   13.6783    8.8558 C   0  0  0  0  0  0  0  0  0  0  0  0
  1  2  1  0
  2  3  1  0
  3  4  1  0
  4  5  1  0
  5  6  1  0
  6  7  2  0
  6  8  2  0
  6  9  1  0
  9 10  2  0
 10 11  1  0
 11 12  2  0
 12 13  1  0
 12 14  1  0
 14 15  1  0
 14 16  2  0
  5 17  1  0
 17 18  1  0
 18  2  1  0
 16  9  1  0
A    1
 C1 
A    2
 N1 
A    3
 C2 
A    4
 C3 
A    5
 N2 
A    6
 S1 
A    7
 O1 
A    8
 O2 
A    9
 C4 
A   10
 C5 
A   11
 C6 
A   12
 C7 
A   13
 F1 
A   14
 C8 
A   15
CL1 
A   16
 C9 
A   17
 C10
A   18
 C11
M  END
>  <ref_pdb>  (3) 
Ax0310a

>  <ref_mols>  (3) 
Ax0446a,Ax1080a,Ax0812a,Ax0719a,Ax1140a,Ax0528a,Ax0310a

>  <original SMILES>  (3) 
CN1CCN(S(=O)(=O)c2ccc(F)c(Cl)c2)CC1

>  <rationale>  (3) 
info info set:3d;halogenbond:S105; hbond:S87; saltbridge:D39; 

>  <experiment>  (3) 
3d

>  <cluster_label>  (3) 
19

>  <cluster_rank>  (3) 
1

>  <N_interactions>  (3) 
3

>  <∆∆G>  (3) 
-0.002186

>  <comRMSD>  (3) 
0.47978

>  <ROCS_TanimotoCombo>  (3) 
0.31

>  <ROCS_ShapeTanimoto>  (3) 
0.21

>  <ROCS_ColorTanimoto>  (3) 
0.1

$$$$
EN300_27782356
     RDKit          3D

 14 14  0  0  0  0  0  0  0  0999 V2000
   35.6301    6.1668    3.7350 C   0  0  0  0  0  0  0  0  0  0  0  0
   35.1294    7.5961    3.5979 C   0  0  0  0  0  0  0  0  0  0  0  0
   34.2990    8.0318    4.7046 O   0  0  0  0  0  0  0  0  0  0  0  0
   34.3540    9.3547    4.9434 C   0  0  0  0  0  0  0  0  0  0  0  0
   35.2643   10.0125    4.4590 O   0  0  0  0  0  0  0  0  0  0  0  0
   33.2562   10.0175    5.8121 C   0  0  0  0  0  0  0  0  0  0  0  0
   33.2489   11.5711    5.4086 C   0  0  0  0  0  0  0  0  0  0  0  0
   32.1451   12.2387    6.3110 C   0  0  0  0  0  0  0  0  0  0  0  0
   31.3400   11.5039    7.2942 C   0  0  0  0  0  0  0  0  0  0  0  0
   30.3531   12.2682    8.0618 N   0  0  0  0  0  0  0  0  0  0  0  0
   31.5544   10.0725    7.4657 C   0  0  0  0  0  0  0  0  0  0  0  0
   30.6767    9.6293    8.4713 N   0  0  0  0  0  0  0  0  0  0  0  0
   30.2984    8.2903    8.4379 C   0  0  0  0  0  0  0  0  0  0  0  0
   32.4796    9.3774    6.7377 N   0  0  0  0  0  0  0  0  0  0  0  0
  1  2  1  0
  2  3  1  0
  3  4  1  0
  4  5  2  0
  4  6  1  0
  6  7  2  0
  7  8  1  0
  8  9  2  0
  9 10  1  0
  9 11  1  0
 11 12  1  0
 12 13  1  0
 11 14  2  0
 14  6  1  0
A    1
 C1 
A    2
 C2 
A    3
 O1 
A    4
 C3 
A    5
 O2 
A    6
 C4 
A    7
 C5 
A    8
 C6 
A    9
 C7 
A   10
 N1 
A   11
 C8 
A   12
 N2 
A   13
 C9 
A   14
 N3 
M  END
>  <ref_pdb>  (4) 
Ax0310a

>  <ref_mols>  (4) 
Ax0446a,Ax1080a,Ax0812a,Ax0719a,Ax1140a,Ax0528a,Ax0310a

>  <original SMILES>  (4) 
CCOC(=O)c1ccc(N)c(NC)n1

>  <rationale>  (4) 
info info set:bb_densepocket2;hbond:S105+S125; hydroph_interaction:P107+E106; 

>  <experiment>  (4) 
bb_densepocket2

>  <cluster_label>  (4) 
4

>  <cluster_rank>  (4) 
1

>  <N_interactions>  (4) 
5

>  <∆∆G>  (4) 
-3.582513

>  <comRMSD>  (4) 
0.939464

>  <ROCS_TanimotoCombo>  (4) 
0.621

>  <ROCS_ShapeTanimoto>  (4) 
0.227

>  <ROCS_ColorTanimoto>  (4) 
0.394

$$$$
EN300_2908013
     RDKit          3D

 10 10  0  0  0  0  0  0  0  0999 V2000
   30.6681    8.0850    8.9708 C   0  0  0  0  0  0  0  0  0  0  0  0
   30.2469    9.1805    8.1998 N   0  0  0  0  0  0  0  0  0  0  0  0
   31.2851    9.7343    7.4489 C   0  0  0  0  0  0  0  0  0  0  0  0
   32.1872    8.9574    6.7932 N   0  0  0  0  0  0  0  0  0  0  0  0
   33.1407    9.5769    6.0756 C   0  0  0  0  0  0  0  0  0  0  0  0
   33.2798   11.0722    5.9622 C   0  0  0  0  0  0  0  0  0  0  0  0
   32.3019   11.7238    6.6877 C   0  0  0  0  0  0  0  0  0  0  0  0
   32.7693   13.1809    6.3428 C   0  0  0  0  0  0  0  0  0  0  0  0
   31.2967   11.1422    7.4328 C   0  0  0  0  0  0  0  0  0  0  0  0
   30.3208   11.9017    8.1422 N   0  0  0  0  0  0  0  0  0  0  0  0
  1  2  1  0
  2  3  1  0
  3  4  2  0
  4  5  1  0
  5  6  2  0
  6  7  1  0
  7  8  1  0
  7  9  2  0
  9 10  1  0
  9  3  1  0
A    1
 C1 
A    2
 N1 
A    3
 C2 
A    4
 N2 
A    5
 C3 
A    6
 C4 
A    7
 C5 
A    8
 C6 
A    9
 C7 
A   10
 N3 
M  END
>  <ref_pdb>  (5) 
Ax0310a

>  <ref_mols>  (5) 
Ax0446a,Ax1080a,Ax0812a,Ax0719a,Ax1140a,Ax0528a,Ax0310a

>  <original SMILES>  (5) 
CNc1nccc(C)c1N

>  <rationale>  (5) 
info info set:bb_densepocket2;hbond:S125+P107; 

>  <experiment>  (5) 
bb_densepocket2

>  <cluster_label>  (5) 
11

>  <cluster_rank>  (5) 
1

>  <N_interactions>  (5) 
2

>  <∆∆G>  (5) 
-5.89769

>  <comRMSD>  (5) 
0.57136

>  <ROCS_TanimotoCombo>  (5) 
0.638

>  <ROCS_ShapeTanimoto>  (5) 
0.201

>  <ROCS_ColorTanimoto>  (5) 
0.437

$$$$
Z1078498278
     RDKit          3D

 18 19  0  0  0  0  0  0  0  0999 V2000
   34.2673   10.6216    5.0269 C   0  0  0  0  0  0  0  0  0  0  0  0
   33.1402   10.6191    6.0541 C   0  0  0  0  0  0  0  0  0  0  0  0
   32.6362    9.2551    6.3472 C   0  0  0  0  0  0  0  0  0  0  0  0
   31.5021    8.7751    7.3308 C   0  0  0  0  0  0  0  0  0  0  0  0
   31.0359   10.1260    7.9265 C   0  0  0  0  0  0  0  0  0  0  0  0
   30.0665   10.0178    8.8085 F   0  0  0  0  0  0  0  0  0  0  0  0
   31.6146   11.5055    7.5758 C   0  0  0  0  0  0  0  0  0  0  0  0
   31.0116   12.7035    8.3327 C   0  0  0  0  0  0  0  0  0  0  0  0
   31.8163   13.3356    8.9933 O   0  0  0  0  0  0  0  0  0  0  0  0
   29.6918   13.0372    8.2867 N   0  0  0  0  0  0  0  0  0  0  0  0
   28.8299   12.9546    7.1228 C   0  0  0  0  0  0  0  0  0  0  0  0
   27.9779   14.1760    7.2638 C   0  0  0  0  0  0  0  0  0  0  0  0
   28.4833   14.9109    8.3184 C   0  0  0  0  0  0  0  0  0  0  0  0
   29.3511   14.1904    9.1551 C   0  0  2  0  0  0  0  0  0  0  0  0
   30.6896   14.9202    9.4107 C   0  0  0  0  0  0  0  0  0  0  0  0
   31.8294   14.5189    9.1885 O   0  0  0  0  0  0  0  0  0  0  0  0
   30.5947   16.2111    9.9409 O   0  0  0  0  0  0  0  0  0  0  0  0
   32.6219   11.7159    6.6704 C   0  0  0  0  0  0  0  0  0  0  0  0
  1  2  1  0
  2  3  2  0
  3  4  1  0
  4  5  2  0
  5  6  1  0
  5  7  1  0
  7  8  1  0
  8  9  2  0
  8 10  1  0
 10 11  1  0
 11 12  1  0
 12 13  1  0
 13 14  1  0
 14 15  1  6
 15 16  2  0
 15 17  1  0
  7 18  2  0
 18  2  1  0
 14 10  1  0
A    1
 C1 
A    2
 C2 
A    3
 C3 
A    4
 C4 
A    5
 C5 
A    6
 F1 
A    7
 C6 
A    8
 C7 
A    9
 O1 
A   10
 N1 
A   11
 C8 
A   12
 C9 
A   13
 C10
A   14
 C11
A   15
 C12
A   16
 O2 
A   17
 O3 
A   18
 C13
M  END
>  <ref_pdb>  (6) 
Ax0310a

>  <ref_mols>  (6) 
Ax0446a,Ax1080a,Ax0812a,Ax0719a,Ax1140a,Ax0528a,Ax0310a

>  <original SMILES>  (6) 
Cc1ccc(F)c(C(=O)N2CCC[C@@H]2C(=O)O)c1

>  <rationale>  (6) 
info info set:3d;halogenbond:C110; hbond:S87+G127; hydroph_interaction:Y90; 

>  <experiment>  (6) 
3d

>  <cluster_label>  (6) 
2

>  <cluster_rank>  (6) 
1

>  <N_interactions>  (6) 
4

>  <∆∆G>  (6) 
-2.228437

>  <comRMSD>  (6) 
0.700812

>  <ROCS_TanimotoCombo>  (6) 
0.338

>  <ROCS_ShapeTanimoto>  (6) 
0.223

>  <ROCS_ColorTanimoto>  (6) 
0.115

$$$$
EN300_7489981
     RDKit          3D

 17 17  0  0  0  0  0  0  0  0999 V2000
   35.2606   15.1205    6.7920 C   0  0  0  0  0  0  0  0  0  0  0  0
   34.8250   15.1417    8.1607 N   0  0  0  0  0  0  0  0  0  0  0  0
   34.7733   13.6492    8.6615 S   0  0  0  0  0  6  0  0  0  0  0  0
   34.7323   13.0686    7.3368 O   0  0  0  0  0  0  0  0  0  0  0  0
   33.6219   13.3739    9.4489 O   0  0  0  0  0  0  0  0  0  0  0  0
   36.3012   13.2004    9.5496 C   0  0  0  0  0  0  0  0  0  0  0  0
   37.5011   12.9443    8.9266 C   0  0  0  0  0  0  0  0  0  0  0  0
   38.6673   12.4710    9.6541 C   0  0  0  0  0  0  0  0  0  0  0  0
   38.6443   12.2523   11.0201 C   0  0  0  0  0  0  0  0  0  0  0  0
   39.7452   11.7655   11.6517 O   0  0  0  0  0  0  0  0  0  0  0  0
   40.5248   12.7247   12.6894 S   0  0  0  0  0  6  0  0  0  0  0  0
   40.7705   13.9796   12.0123 O   0  0  0  0  0  0  0  0  0  0  0  0
   39.8786   12.6440   13.9783 O   0  0  0  0  0  0  0  0  0  0  0  0
   41.9545   12.0627   12.8912 F   0  0  0  0  0  0  0  0  0  0  0  0
   37.4439   12.5524   11.6752 C   0  0  0  0  0  0  0  0  0  0  0  0
   37.2063   12.4034   13.0398 N   0  0  0  0  0  0  0  0  0  0  0  0
   36.3705   13.0162   10.9369 C   0  0  0  0  0  0  0  0  0  0  0  0
  1  2  1  0
  2  3  1  0
  3  4  2  0
  3  5  2  0
  3  6  1  0
  6  7  2  0
  7  8  1  0
  8  9  2  0
  9 10  1  0
 10 11  1  0
 11 12  2  0
 11 13  2  0
 11 14  1  0
  9 15  1  0
 15 16  1  0
 15 17  2  0
 17  6  1  0
A    1
 C1 
A    2
 N1 
A    3
 S1 
A    4
 O1 
A    5
 O2 
A    6
 C2 
A    7
 C3 
A    8
 C4 
A    9
 C5 
A   10
 O3 
A   11
 S2 
A   12
 O4 
A   13
 O5 
A   14
 F1 
A   15
 C6 
A   16
 N2 
A   17
 C7 
M  END
>  <ref_pdb>  (7) 
Ax0310a

>  <ref_mols>  (7) 
Ax0446a,Ax1080a,Ax0812a,Ax0719a,Ax1140a,Ax0528a,Ax0310a

>  <original SMILES>  (7) 
CNS(=O)(=O)c1ccc(OS(=O)(=O)F)c(N)c1

>  <rationale>  (7) 
info info set:sulfonimide_joint;hbond:G127+T126+E85+F83; hydroph_interaction:V84; 

>  <experiment>  (7) 
sulfonimide_joint

>  <cluster_label>  (7) 
15

>  <cluster_rank>  (7) 
1

>  <N_interactions>  (7) 
7

>  <∆∆G>  (7) 
-2.436369

>  <comRMSD>  (7) 
0.705624

>  <ROCS_TanimotoCombo>  (7) 
0.337

>  <ROCS_ShapeTanimoto>  (7) 
0.178

>  <ROCS_ColorTanimoto>  (7) 
0.159

$$$$
Z52591645
     RDKit          3D

 28 31  0  0  0  0  0  0  0  0999 V2000
   25.2690   12.4743    7.2733 C   0  0  0  0  0  0  0  0  0  0  0  0
   26.4820   12.7720    6.5800 O   0  0  0  0  0  0  0  0  0  0  0  0
   27.5128   13.2681    7.3376 C   0  0  0  0  0  0  0  0  0  0  0  0
   27.3635   14.0284    8.4933 C   0  0  0  0  0  0  0  0  0  0  0  0
   28.4820   14.4849    9.1951 C   0  0  0  0  0  0  0  0  0  0  0  0
   29.7745   14.1974    8.7664 C   0  0  0  0  0  0  0  0  0  0  0  0
   30.8851   14.7161    9.5548 C   0  0  0  0  0  0  0  0  0  0  0  0
   30.6090   15.5895   10.5625 N   0  0  0  0  0  0  0  0  0  0  0  0
   32.0416   14.3903    9.3208 O   0  0  0  0  0  0  0  0  0  0  0  0
   29.9376   13.4300    7.6079 C   0  0  0  0  0  0  0  0  0  0  0  0
   31.2022   13.1169    7.1579 O   0  0  0  0  0  0  0  0  0  0  0  0
   31.4845   11.7567    7.1805 C   0  0  0  0  0  0  0  0  0  0  0  0
   30.6864   10.9243    7.9332 N   0  0  0  0  0  0  0  0  0  0  0  0
   30.9534    9.6135    7.9553 C   0  0  0  0  0  0  0  0  0  0  0  0
   30.1698    8.8250    8.7573 C   0  0  0  0  0  0  0  0  0  0  0  0
   31.9100    8.9874    7.2932 N   0  0  0  0  0  0  0  0  0  0  0  0
   32.6661    9.8216    6.5730 C   0  0  0  0  0  0  0  0  0  0  0  0
   33.9436    9.1722    5.6601 S   0  0  0  0  0  0  0  0  0  0  0  0
   34.3842   10.7069    5.1502 C   0  0  0  0  0  0  0  0  0  0  0  0
   33.5894   11.7048    5.6273 C   0  0  0  0  0  0  0  0  0  0  0  0
   33.9970   13.0486    5.1572 C   0  0  0  0  0  0  0  0  0  0  0  0
   35.1030   13.6526    5.7872 C   0  0  0  0  0  0  0  0  0  0  0  0
   35.4202   14.9751    5.1199 C   0  0  0  0  0  0  0  0  0  0  0  0
   34.6673   15.4549    4.0456 C   0  0  0  0  0  0  0  0  0  0  0  0
   33.5943   14.7756    3.5515 C   0  0  0  0  0  0  0  0  0  0  0  0
   33.2639   13.5777    4.1037 C   0  0  0  0  0  0  0  0  0  0  0  0
   32.5470   11.2058    6.4694 C   0  0  0  0  0  0  0  0  0  0  0  0
   28.8121   12.9742    6.9030 C   0  0  0  0  0  0  0  0  0  0  0  0
  1  2  1  0
  2  3  1  0
  3  4  2  0
  4  5  1  0
  5  6  2  0
  6  7  1  0
  7  8  1  0
  7  9  2  0
  6 10  1  0
 10 11  1  0
 11 12  1  0
 12 13  2  0
 13 14  1  0
 14 15  1  0
 14 16  2  0
 16 17  1  0
 17 18  1  0
 18 19  1  0
 19 20  2  0
 20 21  1  0
 21 22  2  0
 22 23  1  0
 23 24  2  0
 24 25  1  0
 25 26  2  0
 20 27  1  0
 10 28  2  0
 28  3  1  0
 27 12  1  0
 27 17  2  0
 26 21  1  0
A    1
 C1 
A    2
 O1 
A    3
 C2 
A    4
 C3 
A    5
 C4 
A    6
 C5 
A    7
 C6 
A    8
 N1 
A    9
 O2 
A   10
 C7 
A   11
 O3 
A   12
 C8 
A   13
 N2 
A   14
 C9 
A   15
 C10
A   16
 N3 
A   17
 C11
A   18
 S1 
A   19
 C12
A   20
 C13
A   21
 C14
A   22
 C15
A   23
 C16
A   24
 C17
A   25
 C18
A   26
 C19
A   27
 C20
A   28
 C21
M  END
>  <ref_pdb>  (8) 
Ax0310a

>  <ref_mols>  (8) 
Ax0446a,Ax1080a,Ax0812a,Ax0719a,Ax1140a,Ax0528a,Ax0310a

>  <original SMILES>  (8) 
COc1ccc(C(N)=O)c(Oc2nc(C)nc3scc(-c4ccccc4)c23)c1

>  <rationale>  (8) 
info info set:screening_whole;hbond:S87+Q95; hydroph_interaction:P107+Y89+V124; 

>  <experiment>  (8) 
screening_whole

>  <cluster_label>  (8) 
18

>  <cluster_rank>  (8) 
1

>  <N_interactions>  (8) 
5

>  <∆∆G>  (8) 
-12.891471

>  <comRMSD>  (8) 
0.730983

>  <ROCS_TanimotoCombo>  (8) 
0.462

>  <ROCS_ShapeTanimoto>  (8) 
0.272

>  <ROCS_ColorTanimoto>  (8) 
0.189

$$$$
Z86302940
     RDKit          3D

 26 28  0  0  0  0  0  0  0  0999 V2000
   25.0654   12.9883    9.9290 C   0  0  0  0  0  0  0  0  0  0  0  0
   26.3801   13.0612    9.4028 C   0  0  0  0  0  0  0  0  0  0  0  0
   26.8342   14.1314    8.7579 C   0  0  0  0  0  0  0  0  0  0  0  0
   28.0595   13.9811    8.3505 C   0  0  0  0  0  0  0  0  0  0  0  0
   28.1953   13.3144    7.1805 C   0  0  0  0  0  0  0  0  0  0  0  0
   29.5148   12.9914    6.6129 C   0  0  0  0  0  0  0  0  0  0  0  0
   30.6527   13.4969    7.5047 C   0  0  0  0  0  0  0  0  0  0  0  0
   31.7755   13.2833    7.1815 O   0  0  0  0  0  0  0  0  0  0  0  0
   31.9235   11.9100    7.0769 C   0  0  0  0  0  0  0  0  0  0  0  0
   31.0385   11.1322    7.7489 N   0  0  0  0  0  0  0  0  0  0  0  0
   31.1283    9.7855    7.6954 C   0  0  0  0  0  0  0  0  0  0  0  0
   30.1039    8.8967    8.4877 C   0  0  0  0  0  0  0  0  0  0  0  0
   30.1446    9.0780    9.7992 F   0  0  0  0  0  0  0  0  0  0  0  0
   30.3070    7.5794    8.3973 F   0  0  0  0  0  0  0  0  0  0  0  0
   28.7997    9.0916    8.1958 F   0  0  0  0  0  0  0  0  0  0  0  0
   32.1380    9.1825    6.9326 N   0  0  0  0  0  0  0  0  0  0  0  0
   33.0101    9.9345    6.2617 C   0  0  0  0  0  0  0  0  0  0  0  0
   34.1555    9.3440    5.3909 C   0  0  0  0  0  0  0  0  0  0  0  0
   34.9841   10.3072    4.7642 C   0  0  0  0  0  0  0  0  0  0  0  0
   34.8592   11.7956    4.8624 C   0  0  0  0  0  0  0  0  0  0  0  0
   33.8455   12.3141    5.6255 C   0  0  0  0  0  0  0  0  0  0  0  0
   32.9517   11.4609    6.3011 C   0  0  0  0  0  0  0  0  0  0  0  0
   30.4174   14.2075    8.7032 C   0  0  0  0  0  0  0  0  0  0  0  0
   31.5314   14.6200    9.3933 O   0  0  0  0  0  0  0  0  0  0  0  0
   31.4601   15.8794   10.0580 C   0  0  0  0  0  0  0  0  0  0  0  0
   29.1192   14.4450    9.1153 C   0  0  0  0  0  0  0  0  0  0  0  0
  1  2  1  0
  2  3  2  3
  3  4  1  0
  4  5  2  0
  5  6  1  0
  6  7  2  0
  7  8  1  0
  8  9  1  0
  9 10  2  0
 10 11  1  0
 11 12  1  0
 12 13  1  0
 12 14  1  0
 12 15  1  0
 11 16  2  0
 16 17  1  0
 17 18  2  0
 18 19  1  0
 19 20  2  0
 20 21  1  0
 21 22  2  0
  7 23  1  0
 23 24  1  0
 24 25  1  0
 23 26  2  0
 26  4  1  0
 22  9  1  0
 22 17  1  0
A    1
 C1 
A    2
 C2 
A    3
 C3 
A    4
 C4 
A    5
 C5 
A    6
 C6 
A    7
 C7 
A    8
 O1 
A    9
 C8 
A   10
 N1 
A   11
 C9 
A   12
 C10
A   13
 F1 
A   14
 F2 
A   15
 F3 
A   16
 N2 
A   17
 C11
A   18
 C12
A   19
 C13
A   20
 C14
A   21
 C15
A   22
 C16
A   23
 C17
A   24
 O2 
A   25
 C18
A   26
 C19
M  END
>  <ref_pdb>  (9) 
Ax0310a

>  <ref_mols>  (9) 
Ax0446a,Ax1080a,Ax0812a,Ax0719a,Ax1140a,Ax0528a,Ax0310a

>  <original SMILES>  (9) 
CC=Cc1ccc(Oc2nc(C(F)(F)F)nc3ccccc23)c(OC)c1

>  <rationale>  (9) 
info info set:screening_whole;halogenbond:P107; hbond:S87+G127; hydroph_interaction:P107+Y89+L22+N19; 

>  <experiment>  (9) 
screening_whole

>  <cluster_label>  (9) 
13

>  <cluster_rank>  (9) 
1

>  <N_interactions>  (9) 
7

>  <∆∆G>  (9) 
-2.936442

>  <comRMSD>  (9) 
0.930911

>  <ROCS_TanimotoCombo>  (9) 
0.472

>  <ROCS_ShapeTanimoto>  (9) 
0.275

>  <ROCS_ColorTanimoto>  (9) 
0.198

$$$$
Z55915292
     RDKit          3D

 24 28  0  0  0  0  0  0  0  0999 V2000
   32.2897    8.0459    7.1657 O   0  0  0  0  0  0  0  0  0  0  0  0
   31.9355    9.1641    7.2318 C   0  0  0  0  0  0  0  0  0  0  0  0
   30.7858    9.5453    7.9818 N   0  0  0  0  0  0  0  0  0  0  0  0
   30.5540   10.8054    8.3873 N   0  0  0  0  0  0  0  0  0  0  0  0
   31.2970   11.7377    7.9037 C   0  0  0  0  0  0  0  0  0  0  0  0
   31.0125   13.0364    8.3610 C   0  0  0  0  0  0  0  0  0  0  0  0
   31.9204   13.7522    8.9995 N   0  0  0  0  0  0  0  0  0  0  0  0
   31.3837   14.9585    9.2724 N   0  0  0  0  0  0  0  0  0  0  0  0
   30.1689   14.9552    8.7724 C   0  0  0  0  0  0  0  0  0  0  0  0
   29.8488   13.7535    8.2347 N   0  0  0  0  0  0  0  0  0  0  0  0
   28.5794   13.4819    7.6828 C   0  0  0  0  0  0  0  0  0  0  0  0
   28.3101   12.3984    6.9107 C   0  0  0  0  0  0  0  0  0  0  0  0
   27.0591   12.0808    6.3514 C   0  0  0  0  0  0  0  0  0  0  0  0
   25.9997   12.9078    6.5281 C   0  0  0  0  0  0  0  0  0  0  0  0
   26.2215   14.1189    7.3589 C   0  0  0  0  0  0  0  0  0  0  0  0
   27.5663   14.3503    7.9643 C   0  0  0  0  0  0  0  0  0  0  0  0
   27.6245   15.7549    9.0126 S   0  0  0  0  0  0  0  0  0  0  0  0
   29.2594   16.0945    8.7239 C   0  0  0  0  0  0  0  0  0  0  0  0
   32.4044   11.5265    6.9064 C   0  0  0  0  0  0  0  0  0  0  0  0
   33.1476   12.5385    6.2941 C   0  0  0  0  0  0  0  0  0  0  0  0
   34.1643   12.2312    5.3773 C   0  0  0  0  0  0  0  0  0  0  0  0
   34.4482   10.8970    5.0605 C   0  0  0  0  0  0  0  0  0  0  0  0
   33.7101    9.8862    5.6645 C   0  0  0  0  0  0  0  0  0  0  0  0
   32.7002   10.2158    6.5819 C   0  0  0  0  0  0  0  0  0  0  0  0
  1  2  2  0
  2  3  1  0
  3  4  1  0
  4  5  2  0
  5  6  1  0
  6  7  2  0
  7  8  1  0
  8  9  2  0
  9 10  1  0
 10 11  1  0
 11 12  2  0
 12 13  1  0
 13 14  2  0
 14 15  1  0
 15 16  2  0
 16 17  1  0
 17 18  1  0
  5 19  1  0
 19 20  2  0
 20 21  1  0
 21 22  2  0
 22 23  1  0
 23 24  2  0
 24  2  1  0
 10  6  1  0
 16 11  1  0
 24 19  1  0
 18  9  1  0
A    1
 O1 
A    2
 C1 
A    3
 N1 
A    4
 N2 
A    5
 C2 
A    6
 C3 
A    7
 N3 
A    8
 N4 
A    9
 C4 
A   10
 N5 
A   11
 C5 
A   12
 C6 
A   13
 C7 
A   14
 C8 
A   15
 C9 
A   16
 C10
A   17
 S1 
A   18
 C11
A   19
 C12
A   20
 C13
A   21
 C14
A   22
 C15
A   23
 C16
A   24
 C17
M  END
>  <ref_pdb>  (10) 
Ax0310a

>  <ref_mols>  (10) 
Ax0446a,Ax1080a,Ax0812a,Ax0719a,Ax1140a,Ax0528a,Ax0310a

>  <original SMILES>  (10) 
O=c1[nH]nc(-c2nnc3n2-c2ccccc2SC3)c2ccccc12

>  <rationale>  (10) 
info info set:screening_whole;hbond:S87+E106; hydroph_interaction:P107+Y89+H21; 

>  <experiment>  (10) 
screening_whole

>  <cluster_label>  (10) 
6

>  <cluster_rank>  (10) 
1

>  <N_interactions>  (10) 
5

>  <∆∆G>  (10) 
-2.687151

>  <comRMSD>  (10) 
0.524828

>  <ROCS_TanimotoCombo>  (10) 
0.467

>  <ROCS_ShapeTanimoto>  (10) 
0.267

>  <ROCS_ColorTanimoto>  (10) 
0.2

$$$$
Z54409144
     RDKit          3D

 18 19  0  0  0  0  0  0  0  0999 V2000
   31.5456   13.4009    5.3851 O   0  0  0  0  0  0  0  0  0  0  0  0
   30.9727   12.7453    6.2537 C   0  0  0  0  0  0  0  0  0  0  0  0
   29.8990   13.4339    7.0356 C   0  0  0  0  0  0  0  0  0  0  0  0
   28.5715   13.4770    6.6880 C   0  0  0  0  0  0  0  0  0  0  0  0
   27.6978   14.1655    7.5057 C   0  0  0  0  0  0  0  0  0  0  0  0
   28.1323   14.8007    8.6679 C   0  0  0  0  0  0  0  0  0  0  0  0
   29.4676   14.7511    9.0147 C   0  0  0  0  0  0  0  0  0  0  0  0
   30.3172   14.0595    8.1661 C   0  0  0  0  0  0  0  0  0  0  0  0
   31.6421   13.9311    8.3236 O   0  0  0  0  0  0  0  0  0  0  0  0
   32.1377   14.4283    9.4902 C   0  0  0  0  0  0  0  0  0  0  0  0
   33.2512   13.6761    9.5635 F   0  0  0  0  0  0  0  0  0  0  0  0
   31.2520   14.0921   10.4259 F   0  0  0  0  0  0  0  0  0  0  0  0
   31.2852   11.4375    6.5686 N   0  0  0  0  0  0  0  0  0  0  0  0
   32.6412   10.9531    6.3638 C   0  0  0  0  0  0  0  0  0  0  0  0
   32.6907    9.4413    6.4327 C   0  0  0  0  0  0  0  0  0  0  0  0
   32.0973    8.8715    7.6198 O   0  0  0  0  0  0  0  0  0  0  0  0
   30.8469    9.4410    8.0642 C   0  0  0  0  0  0  0  0  0  0  0  0
   30.6673   10.9423    7.7931 C   0  0  0  0  0  0  0  0  0  0  0  0
  1  2  2  0
  2  3  1  0
  3  4  2  0
  4  5  1  0
  5  6  2  0
  6  7  1  0
  7  8  2  0
  8  9  1  0
  9 10  1  0
 10 11  1  0
 10 12  1  0
  2 13  1  0
 13 14  1  0
 14 15  1  0
 15 16  1  0
 16 17  1  0
 17 18  1  0
  8  3  1  0
 18 13  1  0
A    1
 O1 
A    2
 C1 
A    3
 C2 
A    4
 C3 
A    5
 C4 
A    6
 C5 
A    7
 C6 
A    8
 C7 
A    9
 O2 
A   10
 C8 
A   11
 F1 
A   12
 F2 
A   13
 N1 
A   14
 C9 
A   15
 C10
A   16
 O3 
A   17
 C11
A   18
 C12
M  END
>  <ref_pdb>  (11) 
Ax0310a

>  <ref_mols>  (11) 
Ax0446a,Ax1080a,Ax0812a,Ax0719a,Ax1140a,Ax0528a,Ax0310a

>  <original SMILES>  (11) 
O=C(c1ccccc1OC(F)F)N1CCOCC1

>  <rationale>  (11) 
info info set:3d;halogenbond:S125+G127; hbond:S87; hydroph_interaction:Y89+Y90; 

>  <experiment>  (11) 
3d

>  <cluster_label>  (11) 
14

>  <cluster_rank>  (11) 
1

>  <N_interactions>  (11) 
5

>  <∆∆G>  (11) 
-2.268463

>  <comRMSD>  (11) 
0.601064

>  <ROCS_TanimotoCombo>  (11) 
0.359

>  <ROCS_ShapeTanimoto>  (11) 
0.213

>  <ROCS_ColorTanimoto>  (11) 
0.146

$$$$
EN300_28298106
     RDKit          3D

 23 24  0  0  0  0  0  0  0  0999 V2000
   30.3441    8.3668    8.9281 C   0  0  0  0  0  0  0  0  0  0  0  0
   31.0473    9.4560    8.1876 C   0  0  0  0  0  0  0  0  0  0  0  0
   30.7199   10.7488    8.4516 N   0  0  0  0  0  0  0  0  0  0  0  0
   31.3612   11.7348    7.8234 C   0  0  0  0  0  0  0  0  0  0  0  0
   30.9492   13.0738    8.1613 N   0  0  0  0  0  0  0  0  0  0  0  0
   29.4947   13.2865    8.2631 C   0  0  0  0  0  0  0  0  0  0  0  0
   29.0309   13.9715    6.9687 C   0  0  0  0  0  0  0  0  0  0  0  0
   29.0360   13.4612    5.8593 O   0  0  0  0  0  0  0  0  0  0  0  0
   28.6530   15.1633    7.1611 O   0  0  0  0  0  0  0  0  0  0  0  0
   31.5864   14.1515    9.0235 C   0  0  0  0  0  0  0  0  0  0  0  0
   30.9009   15.2974    9.5678 O   0  0  0  0  0  0  0  0  0  0  0  0
   33.0664   14.1195    9.3987 C   0  0  0  0  0  0  0  0  0  0  0  0
   33.9489   14.8536    8.7007 F   0  0  0  0  0  0  0  0  0  0  0  0
   33.6065   12.9355    9.2601 F   0  0  0  0  0  0  0  0  0  0  0  0
   33.2197   14.5656   10.6565 F   0  0  0  0  0  0  0  0  0  0  0  0
   32.4235   11.3854    6.8251 C   0  0  0  0  0  0  0  0  0  0  0  0
   33.2683   12.0646    6.0178 C   0  0  0  0  0  0  0  0  0  0  0  0
   33.1776   13.5834    6.1006 C   0  0  0  0  0  0  0  0  0  0  0  0
   34.0931   11.2997    5.2378 C   0  0  0  0  0  0  0  0  0  0  0  0
   35.1516   11.7623    4.2346 C   0  0  0  0  0  0  0  0  0  0  0  0
   33.8059    9.6464    5.5155 S   0  0  0  0  0  0  0  0  0  0  0  0
   32.6130   10.0207    6.6676 C   0  0  0  0  0  0  0  0  0  0  0  0
   31.9707    9.0338    7.3174 N   0  0  0  0  0  0  0  0  0  0  0  0
  1  2  1  0
  2  3  2  0
  3  4  1  0
  4  5  1  0
  5  6  1  0
  6  7  1  0
  7  8  2  0
  7  9  1  0
  5 10  1  0
 10 11  2  0
 10 12  1  0
 12 13  1  0
 12 14  1  0
 12 15  1  0
  4 16  2  0
 16 17  1  0
 17 18  1  0
 17 19  2  0
 19 20  1  0
 19 21  1  0
 21 22  1  0
 22 23  2  0
 23  2  1  0
 22 16  1  0
A    1
 C1 
A    2
 C2 
A    3
 N1 
A    4
 C3 
A    5
 N2 
A    6
 C4 
A    7
 C5 
A    8
 O1 
A    9
 O2 
A   10
 C6 
A   11
 O3 
A   12
 C7 
A   13
 F1 
A   14
 F2 
A   15
 F3 
A   16
 C8 
A   17
 C9 
A   18
 C10
A   19
 C11
A   20
 C12
A   21
 S1 
A   22
 C13
A   23
 N3 
M  END
>  <ref_pdb>  (12) 
Ax0310a

>  <ref_mols>  (12) 
Ax0446a,Ax1080a,Ax0812a,Ax0719a,Ax1140a,Ax0528a,Ax0310a

>  <original SMILES>  (12) 
Cc1nc(N(CC(=O)O)C(=O)C(F)(F)F)c2c(C)c(C)sc2n1

>  <rationale>  (12) 
info info set:bb_whole;halogenbond:E85+G127; hbond:S87+S105; hydroph_interaction:V124; saltbridge:H21; 

>  <experiment>  (12) 
bb_whole

>  <cluster_label>  (12) 
1

>  <cluster_rank>  (12) 
1

>  <N_interactions>  (12) 
6

>  <∆∆G>  (12) 
-5.993787

>  <comRMSD>  (12) 
0.715491

>  <ROCS_TanimotoCombo>  (12) 
0.422

>  <ROCS_ShapeTanimoto>  (12) 
0.252

>  <ROCS_ColorTanimoto>  (12) 
0.17

$$$$
Z2739892545
     RDKit          3D

 20 21  0  0  0  0  0  0  0  0999 V2000
   30.1481    8.5135    8.5231 C   0  0  0  0  0  0  0  0  0  0  0  0
   31.4173    8.2744    8.0871 N   0  0  0  0  0  0  0  0  0  0  0  0
   32.0051    9.1514    7.2217 C   0  0  0  0  0  0  0  0  0  0  0  0
   32.9350    8.6898    6.4060 N   0  0  0  0  0  0  0  0  0  0  0  0
   33.5709    9.4852    5.5443 C   0  0  0  0  0  0  0  0  0  0  0  0
   34.6257    8.8211    4.6557 C   0  0  0  0  0  0  0  0  0  0  0  0
   33.3455   10.8360    5.4121 C   0  0  0  0  0  0  0  0  0  0  0  0
   32.4142   11.5299    6.1638 C   0  0  0  0  0  0  0  0  0  0  0  0
   31.6642   10.6304    7.1597 C   0  0  0  0  0  0  0  0  0  0  0  0
   30.6755   11.4021    7.9493 C   0  0  0  0  0  0  0  0  0  0  0  0
   30.1755   10.8281    8.8626 O   0  0  0  0  0  0  0  0  0  0  0  0
   30.3987   12.6660    7.5216 N   0  0  0  0  0  0  0  0  0  0  0  0
   29.8779   12.8510    6.1893 C   0  0  0  0  0  0  0  0  0  0  0  0
   28.7228   13.7930    6.2695 C   0  0  1  0  0  0  0  0  0  0  0  0
   27.4353   13.4733    5.4804 C   0  0  0  0  0  0  0  0  0  0  0  0
   28.4327   13.7468    7.7425 C   0  0  2  0  0  0  0  0  0  0  0  0
   27.8433   14.9244    7.8959 C   0  0  0  0  0  0  0  0  0  0  0  0
   26.6633   14.8267    7.3215 N   0  0  0  0  0  0  0  0  0  0  0  0
   28.2979   15.9397    8.3870 O   0  0  0  0  0  0  0  0  0  0  0  0
   29.7838   13.6270    8.3934 C   0  0  0  0  0  0  0  0  0  0  0  0
  1  2  1  0
  2  3  1  0
  3  4  2  0
  4  5  1  0
  5  6  1  0
  5  7  2  0
  7  8  1  0
  8  9  2  0
  9 10  1  0
 10 11  2  0
 10 12  1  0
 12 13  1  0
 13 14  1  0
 14 15  1  6
 14 16  1  0
 16 17  1  1
 17 18  1  0
 17 19  2  0
 16 20  1  0
  9  3  1  0
 20 12  1  0
A    1
 C1 
A    2
 N1 
A    3
 C2 
A    4
 N2 
A    5
 C3 
A    6
 C4 
A    7
 C5 
A    8
 C6 
A    9
 C7 
A   10
 C8 
A   11
 O1 
A   12
 N3 
A   13
 C9 
A   14
 C10
A   15
 C11
A   16
 C12
A   17
 C13
A   18
 N4 
A   19
 O2 
A   20
 C14
M  END
>  <ref_pdb>  (13) 
Ax0310a

>  <ref_mols>  (13) 
Ax0446a,Ax1080a,Ax0812a,Ax0719a,Ax1140a,Ax0528a,Ax0310a

>  <original SMILES>  (13) 
CNc1nc(C)ccc1C(=O)N1C[C@@H](C)[C@H](C(N)=O)C1

>  <rationale>  (13) 
info info set:screening_pocket;hbond:S87+S105+Y90+H21; hydroph_interaction:P107; 

>  <experiment>  (13) 
screening_pocket

>  <cluster_label>  (13) 
7

>  <cluster_rank>  (13) 
1

>  <N_interactions>  (13) 
6

>  <∆∆G>  (13) 
-5.476935

>  <comRMSD>  (13) 
0.811754

>  <ROCS_TanimotoCombo>  (13) 
0.681

>  <ROCS_ShapeTanimoto>  (13) 
0.261

>  <ROCS_ColorTanimoto>  (13) 
0.42

$$$$
Z55491204
     RDKit          3D

 27 30  0  0  0  0  0  0  0  0999 V2000
   39.8395   11.9847    8.3437 C   0  0  0  0  0  0  0  0  0  0  0  0
   38.6228   12.5018    8.9787 C   0  0  0  0  0  0  0  0  0  0  0  0
   37.7005   13.2890    8.1087 C   0  0  0  0  0  0  0  0  0  0  0  0
   36.5549   13.8037    8.6775 C   0  0  0  0  0  0  0  0  0  0  0  0
   35.6680   14.5309    7.9904 N   0  0  0  0  0  0  0  0  0  0  0  0
   34.5150   15.1279    8.7377 N   0  0  0  0  0  0  0  0  0  0  0  0
   33.3784   13.9050    8.7086 S   0  0  0  0  0  6  0  0  0  0  0  0
   34.0347   12.8872    9.4153 O   0  0  0  0  0  0  0  0  0  0  0  0
   32.0603   14.3923    9.0543 O   0  0  0  0  0  0  0  0  0  0  0  0
   33.5251   13.3435    7.0389 C   0  0  0  0  0  0  0  0  0  0  0  0
   32.6627   12.3352    6.8450 C   0  0  1  0  0  0  0  0  0  0  0  0
   32.0292   11.8137    7.9229 C   0  0  0  0  0  0  0  0  0  0  0  0
   31.7476   10.4801    7.7066 C   0  0  0  0  0  0  0  0  0  0  0  0
   31.3780   10.6673    6.4241 C   0  0  1  0  0  0  0  0  0  0  0  0
   30.5640   11.7952    6.4028 C   0  0  0  0  0  0  0  0  0  0  0  0
   31.4040   12.7952    6.1674 C   0  0  0  0  0  0  0  0  0  0  0  0
   31.1518   13.7573    5.5167 O   0  0  0  0  0  0  0  0  0  0  0  0
   32.7724   11.1482    5.8457 C   0  0  0  0  0  0  0  0  0  0  0  0
   32.9935   11.6727    4.4584 C   0  0  0  0  0  0  0  0  0  0  0  0
   33.7737    9.9976    5.8481 C   0  0  0  0  0  0  0  0  0  0  0  0
   36.2550   13.6117    9.9673 N   0  0  0  0  0  0  0  0  0  0  0  0
   37.1116   12.9073   10.7071 C   0  0  0  0  0  0  0  0  0  0  0  0
   36.6787   12.8313   11.9818 C   0  0  0  0  0  0  0  0  0  0  0  0
   37.4082   12.1671   12.9232 C   0  0  0  0  0  0  0  0  0  0  0  0
   38.6288   11.5259   12.5594 C   0  0  0  0  0  0  0  0  0  0  0  0
   39.0620   11.6082   11.2447 C   0  0  0  0  0  0  0  0  0  0  0  0
   38.2990   12.3162   10.3070 C   0  0  0  0  0  0  0  0  0  0  0  0
  1  2  1  0
  2  3  2  0
  3  4  1  0
  4  5  1  0
  5  6  1  0
  6  7  1  0
  7  8  2  0
  7  9  2  0
  7 10  1  0
 11 10  1  1
 11 12  1  0
 12 13  1  0
 14 13  1  1
 14 15  1  0
 15 16  1  0
 16 17  2  0
 14 18  1  0
 18 19  1  0
 18 20  1  0
  4 21  2  0
 21 22  1  0
 22 23  2  0
 23 24  1  0
 24 25  2  0
 25 26  1  0
 26 27  2  0
 27  2  1  0
 16 11  1  0
 27 22  1  0
 18 11  1  0
A    1
 C1 
A    2
 C2 
A    3
 C3 
A    4
 C4 
A    5
 N1 
A    6
 N2 
A    7
 S1 
A    8
 O1 
A    9
 O2 
A   10
 C5 
A   11
 C6 
A   12
 C7 
A   13
 C8 
A   14
 C9 
A   15
 C10
A   16
 C11
A   17
 O3 
A   18
 C12
A   19
 C13
A   20
 C14
A   21
 N3 
A   22
 C15
A   23
 C16
A   24
 C17
A   25
 C18
A   26
 C19
A   27
 C20
M  END
>  <ref_pdb>  (14) 
Ax0310a

>  <ref_mols>  (14) 
Ax0446a,Ax1080a,Ax0812a,Ax0719a,Ax1140a,Ax0528a,Ax0310a

>  <original SMILES>  (14) 
Cc1cc(NNS(=O)(=O)C[C@@]23CC[C@@H](CC2=O)C3(C)C)nc2ccccc12

>  <rationale>  (14) 
info info set:screening_whole;hbond:S87+G127+E88+E85; hydroph_interaction:P107+V84+E85+N129+L100+L131; 

>  <experiment>  (14) 
screening_whole

>  <cluster_label>  (14) 
0

>  <cluster_rank>  (14) 
1

>  <N_interactions>  (14) 
10

>  <∆∆G>  (14) 
-0.593891

>  <comRMSD>  (14) 
0.843004

>  <ROCS_TanimotoCombo>  (14) 
0.47

>  <ROCS_ShapeTanimoto>  (14) 
0.237

>  <ROCS_ColorTanimoto>  (14) 
0.233

$$$$
Z94861526
     RDKit          3D

 25 28  0  0  0  0  0  0  0  0999 V2000
   27.0241   15.2824    9.0086 C   0  0  0  0  0  0  0  0  0  0  0  0
   28.1252   14.6698    8.3798 C   0  0  0  0  0  0  0  0  0  0  0  0
   28.0135   13.9281    7.0423 C   0  0  0  0  0  0  0  0  0  0  0  0
   29.3586   13.4287    6.5154 C   0  0  0  0  0  0  0  0  0  0  0  0
   30.4969   13.8087    7.4798 C   0  0  0  0  0  0  0  0  0  0  0  0
   31.6040   13.5148    7.0308 O   0  0  0  0  0  0  0  0  0  0  0  0
   31.7925   12.2990    7.0234 C   0  0  0  0  0  0  0  0  0  0  0  0
   30.9181   11.5956    7.7337 N   0  0  0  0  0  0  0  0  0  0  0  0
   31.2018   10.4068    7.6482 C   0  0  0  0  0  0  0  0  0  0  0  0
   30.3876    9.5997    8.3970 C   0  0  0  0  0  0  0  0  0  0  0  0
   30.9186    8.4864    8.0875 C   0  0  0  0  0  0  0  0  0  0  0  0
   30.2373    7.5000    8.7272 C   0  0  0  0  0  0  0  0  0  0  0  0
   31.9775    8.3846    7.2636 N   0  0  0  0  0  0  0  0  0  0  0  0
   32.1346    9.7040    7.0013 N   0  0  0  0  0  0  0  0  0  0  0  0
   33.0782   10.3817    6.2356 C   0  0  0  0  0  0  0  0  0  0  0  0
   34.1082    9.7896    5.5267 C   0  0  0  0  0  0  0  0  0  0  0  0
   35.0006   10.6047    4.8330 C   0  0  0  0  0  0  0  0  0  0  0  0
   34.8584   11.9940    4.8498 C   0  0  0  0  0  0  0  0  0  0  0  0
   33.8186   12.5926    5.5535 C   0  0  0  0  0  0  0  0  0  0  0  0
   32.9353   11.7778    6.2399 C   0  0  0  0  0  0  0  0  0  0  0  0
   30.3247   14.4666    8.6863 C   0  0  0  0  0  0  0  0  0  0  0  0
   31.4817   14.7770    9.5237 N   0  0  0  0  0  4  0  0  0  0  0  0
   32.5622   14.3296    9.1346 O   0  0  0  0  0  0  0  0  0  0  0  0
   31.3756   15.8451   10.1427 O   0  0  0  0  0  1  0  0  0  0  0  0
   29.1708   14.8786    9.1154 N   0  0  0  0  0  0  0  0  0  0  0  0
  1  2  1  0
  2  3  2  0
  3  4  1  0
  4  5  2  0
  5  6  1  0
  6  7  1  0
  7  8  2  0
  8  9  1  0
  9 10  2  0
 10 11  1  0
 11 12  1  0
 11 13  2  0
 13 14  1  0
 14 15  1  0
 15 16  2  0
 16 17  1  0
 17 18  2  0
 18 19  1  0
 19 20  2  0
  5 21  1  0
 21 22  1  0
 22 23  2  0
 22 24  1  0
 21 25  2  0
 25  2  1  0
 20  7  1  0
 14  9  1  0
 20 15  1  0
M  CHG  2  22   1  24  -1
A    1
 C1 
A    2
 C2 
A    3
 C3 
A    4
 C4 
A    5
 C5 
A    6
 O1 
A    7
 C6 
A    8
 N1 
A    9
 C7 
A   10
 C8 
A   11
 C9 
A   12
 C10
A   13
 N2 
A   14
 N3 
A   15
 C11
A   16
 C12
A   17
 C13
A   18
 C14
A   19
 C15
A   20
 C16
A   21
 C17
A   22
 N4 
A   23
 O2 
A   24
 O3 
A   25
 N5 
M  END
>  <ref_pdb>  (15) 
Ax0310a

>  <ref_mols>  (15) 
Ax0446a,Ax1080a,Ax0812a,Ax0719a,Ax1140a,Ax0528a,Ax0310a

>  <original SMILES>  (15) 
Cc1ccc(Oc2nc3cc(C)nn3c3ccccc23)c([N+](=O)[O-])n1

>  <rationale>  (15) 
info info set:screening_whole;hbond:S87+G127; hydroph_interaction:Y89+Y90+V124+H21+D109; pistack:H21; 

>  <experiment>  (15) 
screening_whole

>  <cluster_label>  (15) 
9

>  <cluster_rank>  (15) 
1

>  <N_interactions>  (15) 
8

>  <∆∆G>  (15) 
-4.19091

>  <comRMSD>  (15) 
0.760315

>  <ROCS_TanimotoCombo>  (15) 
0.474

>  <ROCS_ShapeTanimoto>  (15) 
0.276

>  <ROCS_ColorTanimoto>  (15) 
0.198

$$$$
Z31120760
     RDKit          3D

 27 30  0  0  0  0  0  0  0  0999 V2000
   32.7708   13.9763    9.0828 C   0  0  0  0  0  0  0  0  0  0  0  0
   31.6231   14.7912    9.1869 O   0  0  0  0  0  0  0  0  0  0  0  0
   30.5689   14.2389    8.5699 C   0  0  0  0  0  0  0  0  0  0  0  0
   29.3266   14.3810    9.2848 C   0  0  0  0  0  0  0  0  0  0  0  0
   28.1155   13.8033    8.6491 C   0  0  0  0  0  0  0  0  0  0  0  0
   27.0834   14.1309    9.6201 C   0  0  0  0  0  0  0  0  0  0  0  0
   26.9387   15.6141    9.5950 C   0  0  0  0  0  0  0  0  0  0  0  0
   26.3723   13.3535   10.4297 O   0  0  0  0  0  0  0  0  0  0  0  0
   28.0784   13.1415    7.4362 C   0  0  0  0  0  0  0  0  0  0  0  0
   29.4486   13.0518    6.7675 C   0  0  0  0  0  0  0  0  0  0  0  0
   30.6172   13.5848    7.3286 C   0  0  0  0  0  0  0  0  0  0  0  0
   31.8137   13.4794    6.6464 O   0  0  0  0  0  0  0  0  0  0  0  0
   32.1436   12.1841    6.5827 C   0  0  0  0  0  0  0  0  0  0  0  0
   31.3049   11.4977    7.2456 N   0  0  0  0  0  0  0  0  0  0  0  0
   31.5621   10.2706    7.2146 C   0  0  0  0  0  0  0  0  0  0  0  0
   30.6078    9.5742    7.9454 C   0  0  0  0  0  0  0  0  0  0  0  0
   30.9580    8.1867    8.0128 C   0  0  0  0  0  0  0  0  0  0  0  0
   29.8942    7.6147    8.7287 C   0  0  0  0  0  0  0  0  0  0  0  0
   28.9529    8.5383    9.1274 C   0  0  0  0  0  0  0  0  0  0  0  0
   29.2058   10.1186    8.6645 S   0  0  0  0  0  0  0  0  0  0  0  0
   32.5456    9.5625    6.6123 N   0  0  0  0  0  0  0  0  0  0  0  0
   33.3712   10.3024    5.9491 C   0  0  0  0  0  0  0  0  0  0  0  0
   34.4063    9.6883    5.2903 C   0  0  0  0  0  0  0  0  0  0  0  0
   35.3252   10.4321    4.5709 C   0  0  0  0  0  0  0  0  0  0  0  0
   35.2039   11.8151    4.5124 C   0  0  0  0  0  0  0  0  0  0  0  0
   34.1545   12.4489    5.1704 C   0  0  0  0  0  0  0  0  0  0  0  0
   33.2320   11.6881    5.8912 C   0  0  0  0  0  0  0  0  0  0  0  0
  1  2  1  0
  2  3  1  0
  3  4  2  0
  4  5  1  0
  5  6  1  0
  6  7  1  0
  6  8  2  0
  5  9  2  0
  9 10  1  0
 10 11  2  0
 11 12  1  0
 12 13  1  0
 13 14  2  0
 14 15  1  0
 15 16  1  0
 16 17  2  0
 17 18  1  0
 18 19  2  0
 19 20  1  0
 15 21  2  0
 21 22  1  0
 22 23  2  0
 23 24  1  0
 24 25  2  0
 25 26  1  0
 26 27  2  0
 11  3  1  0
 27 13  1  0
 20 16  1  0
 27 22  1  0
A    1
 C1 
A    2
 O1 
A    3
 C2 
A    4
 C3 
A    5
 C4 
A    6
 C5 
A    7
 C6 
A    8
 O2 
A    9
 C7 
A   10
 C8 
A   11
 C9 
A   12
 O3 
A   13
 C10
A   14
 N1 
A   15
 C11
A   16
 C12
A   17
 C13
A   18
 C14
A   19
 C15
A   20
 S1 
A   21
 N2 
A   22
 C16
A   23
 C17
A   24
 C18
A   25
 C19
A   26
 C20
A   27
 C21
M  END
>  <ref_pdb>  (16) 
Ax0310a

>  <ref_mols>  (16) 
Ax0446a,Ax1080a,Ax0812a,Ax0719a,Ax1140a,Ax0528a,Ax0310a

>  <original SMILES>  (16) 
COc1cc(C(C)=O)ccc1Oc1nc(-c2cccs2)nc2ccccc12

>  <rationale>  (16) 
info info set:screening_whole;hbond:S87+G127+D39+N19; hydroph_interaction:P107+Y89+Y90+V124+H21+D109; 

>  <experiment>  (16) 
screening_whole

>  <cluster_label>  (16) 
10

>  <cluster_rank>  (16) 
1

>  <N_interactions>  (16) 
10

>  <∆∆G>  (16) 
-3.18184

>  <comRMSD>  (16) 
0.976872

>  <ROCS_TanimotoCombo>  (16) 
0.463

>  <ROCS_ShapeTanimoto>  (16) 
0.27

>  <ROCS_ColorTanimoto>  (16) 
0.193

$$$$
Z1766224104
     RDKit          3D

 18 19  0  0  0  0  0  0  0  0999 V2000
   33.8402   14.1743    8.3589 C   0  0  0  0  0  0  0  0  0  0  0  0
   32.5884   14.3123    9.2224 C   0  0  0  0  0  0  0  0  0  0  0  0
   31.5253   13.4934    8.7619 O   0  0  0  0  0  0  0  0  0  0  0  0
   30.2627   13.9373    8.6389 C   0  0  0  0  0  0  0  0  0  0  0  0
   29.5444   14.7601    9.7117 C   0  0  0  0  0  0  0  0  0  0  0  0
   28.0839   15.1710    9.4208 C   0  0  0  0  0  0  0  0  0  0  0  0
   27.4543   14.7493    8.1105 C   0  0  0  0  0  0  0  0  0  0  0  0
   28.1457   14.0232    7.1972 C   0  0  0  0  0  0  0  0  0  0  0  0
   29.5609   13.5704    7.3763 C   0  0  0  0  0  0  0  0  0  0  0  0
   30.3393   12.7823    6.4126 C   0  0  0  0  0  0  0  0  0  0  0  0
   30.5198   13.3531    5.1029 O   0  0  0  0  0  0  0  0  0  0  0  0
   30.8233   11.6060    6.8781 N   0  0  0  0  0  0  0  0  0  0  0  0
   32.1161   11.3410    6.6518 C   0  0  0  0  0  0  0  0  0  0  0  0
   32.4652    9.8522    6.5201 C   0  0  0  0  0  0  0  0  0  0  0  0
   31.8521    9.1231    7.6296 N   0  0  0  0  0  0  0  0  0  0  0  0
   30.7828    9.6171    8.2632 C   0  0  2  0  0  0  0  0  0  0  0  0
   29.7503    8.7405    8.4009 C   0  0  0  0  0  0  0  0  0  0  0  0
   30.3293   11.0680    7.9341 C   0  0  0  0  0  0  0  0  0  0  0  0
  1  2  1  0
  2  3  1  0
  3  4  1  0
  4  5  2  0
  5  6  1  0
  6  7  2  0
  7  8  1  0
  8  9  2  0
  9 10  1  0
 10 11  2  0
 10 12  1  0
 12 13  1  0
 13 14  1  0
 14 15  1  0
 15 16  1  0
 16 17  1  6
 16 18  1  0
  9  4  1  0
 18 12  1  0
A    1
 C1 
A    2
 C2 
A    3
 O1 
A    4
 C3 
A    5
 C4 
A    6
 C5 
A    7
 C6 
A    8
 C7 
A    9
 C8 
A   10
 C9 
A   11
 O2 
A   12
 N1 
A   13
 C10
A   14
 C11
A   15
 N2 
A   16
 C12
A   17
 C13
A   18
 C14
M  END
>  <ref_pdb>  (17) 
Ax0310a

>  <ref_mols>  (17) 
Ax0446a,Ax1080a,Ax0812a,Ax0719a,Ax1140a,Ax0528a,Ax0310a

>  <original SMILES>  (17) 
CCOc1ccccc1C(=O)N1CCN[C@H](C)C1

>  <rationale>  (17) 
info info set:3d;hbond:S87+S105+E88; hydroph_interaction:Y89+Y90+V124+V84; 

>  <experiment>  (17) 
3d

>  <cluster_label>  (17) 
8

>  <cluster_rank>  (17) 
1

>  <N_interactions>  (17) 
7

>  <∆∆G>  (17) 
-5.799255

>  <comRMSD>  (17) 
0.7621

>  <ROCS_TanimotoCombo>  (17) 
0.345

>  <ROCS_ShapeTanimoto>  (17) 
0.208

>  <ROCS_ColorTanimoto>  (17) 
0.136

$$$$
Z1716137365
     RDKit          3D

 23 25  0  0  0  0  0  0  0  0999 V2000
   30.3549    7.6231    8.6749 C   0  0  0  0  0  0  0  0  0  0  0  0
   30.3893    9.0318    8.7706 C   0  0  0  0  0  0  0  0  0  0  0  0
   28.9868    9.5076    8.6594 C   0  0  0  0  0  0  0  0  0  0  0  0
   31.2206    9.5530    7.8528 N   0  0  0  0  0  0  0  0  0  0  0  0
   32.0737    8.7384    7.0427 N   0  0  0  0  0  0  0  0  0  0  0  0
   32.7621    9.7444    6.2402 C   0  0  0  0  0  0  0  0  0  0  0  0
   32.2581   11.1129    6.6328 C   0  0  0  0  0  0  0  0  0  0  0  0
   31.3153   10.9482    7.6268 C   0  0  0  0  0  0  0  0  0  0  0  0
   30.5743   11.8387    8.3246 N   0  0  0  0  0  0  0  0  0  0  0  0
   30.6312   13.1045    8.1446 C   0  0  0  0  0  0  0  0  0  0  0  0
   31.5782   13.7001    7.6824 O   0  0  0  0  0  0  0  0  0  0  0  0
   29.3791   13.8201    8.5847 C   0  0  0  0  0  0  0  0  0  0  0  0
   28.2842   13.3475    7.7952 N   0  0  0  0  0  0  0  0  0  0  0  0
   27.4378   12.3313    8.3723 C   0  0  0  0  0  0  0  0  0  0  0  0
   26.2755   13.0223    9.0094 C   0  0  0  0  0  0  0  0  0  0  0  0
   25.1330   13.0236    8.0077 C   0  0  0  0  0  0  0  0  0  0  0  0
   25.2061   13.9640    6.9907 C   0  0  0  0  0  0  0  0  0  0  0  0
   26.5242   13.9531    6.2466 C   0  0  0  0  0  0  0  0  0  0  0  0
   27.7225   14.3531    7.0906 C   0  0  0  0  0  0  0  0  0  0  0  0
   28.2090   15.4790    7.1908 O   0  0  0  0  0  0  0  0  0  0  0  0
   32.9632   12.1100    5.8136 C   0  0  0  0  0  0  0  0  0  0  0  0
   33.6636   11.2344    4.6973 C   0  0  0  0  0  0  0  0  0  0  0  0
   33.7824    9.7532    5.1940 C   0  0  0  0  0  0  0  0  0  0  0  0
  1  2  1  0
  2  3  1  0
  2  4  1  0
  4  5  1  0
  5  6  2  0
  6  7  1  0
  7  8  2  0
  8  9  1  0
  9 10  1  0
 10 11  2  0
 10 12  1  0
 12 13  1  0
 13 14  1  0
 14 15  1  0
 15 16  1  0
 16 17  1  0
 17 18  1  0
 18 19  1  0
 19 20  2  0
  7 21  1  0
 21 22  1  0
 22 23  1  0
  8  4  1  0
 19 13  1  0
 23  6  1  0
A    1
 C1 
A    2
 C2 
A    3
 C3 
A    4
 N1 
A    5
 N2 
A    6
 C4 
A    7
 C5 
A    8
 C6 
A    9
 N3 
A   10
 C7 
A   11
 O1 
A   12
 C8 
A   13
 N4 
A   14
 C9 
A   15
 C10
A   16
 C11
A   17
 C12
A   18
 C13
A   19
 C14
A   20
 O2 
A   21
 C15
A   22
 C16
A   23
 C17
M  END
>  <ref_pdb>  (18) 
Ax0310a

>  <ref_mols>  (18) 
Ax0446a,Ax1080a,Ax0812a,Ax0719a,Ax1140a,Ax0528a,Ax0310a

>  <original SMILES>  (18) 
CC(C)n1nc2c(c1NC(=O)CN1CCCCCC1=O)CCC2

>  <rationale>  (18) 
info info set:screening_pocket;hbond:S87+S125+G127+Y90; hydroph_interaction:P107+Y89+V124+H21+L22+D109; 

>  <experiment>  (18) 
screening_pocket

>  <cluster_label>  (18) 
16

>  <cluster_rank>  (18) 
1

>  <N_interactions>  (18) 
10

>  <∆∆G>  (18) 
-9.751463

>  <comRMSD>  (18) 
0.55777

>  <ROCS_TanimotoCombo>  (18) 
0.638

>  <ROCS_ShapeTanimoto>  (18) 
0.27

>  <ROCS_ColorTanimoto>  (18) 
0.367

$$$$
EN300_7424825
     RDKit          3D

 17 18  0  0  0  0  0  0  0  0999 V2000
   40.4160   12.5084   14.0156 C   0  0  0  0  0  0  0  0  0  0  0  0
   40.0396   13.0232   12.9867 O   0  0  0  0  0  0  0  0  0  0  0  0
   38.9413   12.4437   12.4303 C   0  0  0  0  0  0  0  0  0  0  0  0
   38.5189   11.1298   12.8223 C   0  0  0  0  0  0  0  0  0  0  0  0
   37.3889   10.6384   12.1947 C   0  0  0  0  0  0  0  0  0  0  0  0
   36.7305   11.5486   11.1637 C   0  0  0  0  0  0  0  0  0  0  0  0
   37.2061   12.7908   10.8478 C   0  0  0  0  0  0  0  0  0  0  0  0
   36.2968   13.3991    9.7602 C   0  0  0  0  0  0  0  0  0  0  0  0
   36.6977   13.4472    8.4575 C   0  0  0  0  0  0  0  0  0  0  0  0
   35.4523   13.9430    7.7310 C   0  0  0  0  0  0  0  0  0  0  0  0
   35.0154   14.1845    6.0743 S   0  0  0  0  0  6  0  0  0  0  0  0
   36.1682   15.0812    5.2686 N   0  0  0  0  0  0  0  0  0  0  0  0
   33.8192   14.8944    6.0353 O   0  0  0  0  0  0  0  0  0  0  0  0
   34.9967   12.8500    5.5298 O   0  0  0  0  0  0  0  0  0  0  0  0
   34.5799   14.1757    8.7464 N   0  0  0  0  0  0  0  0  0  0  0  0
   35.0650   13.8574    9.9542 N   0  0  0  0  0  0  0  0  0  0  0  0
   38.3219   13.2482   11.4811 C   0  0  0  0  0  0  0  0  0  0  0  0
  1  2  1  0
  2  3  1  0
  3  4  2  0
  4  5  1  0
  5  6  2  0
  6  7  1  0
  7  8  1  0
  8  9  1  0
  9 10  2  0
 10 11  1  0
 11 12  1  0
 11 13  2  0
 11 14  2  0
 10 15  1  0
 15 16  1  0
  7 17  2  0
 17  3  1  0
 16  8  2  0
A    1
 C1 
A    2
 O1 
A    3
 C2 
A    4
 C3 
A    5
 C4 
A    6
 C5 
A    7
 C6 
A    8
 C7 
A    9
 C8 
A   10
 C9 
A   11
 S1 
A   12
 N1 
A   13
 O2 
A   14
 O3 
A   15
 N2 
A   16
 N3 
A   17
 C10
M  END
>  <ref_pdb>  (19) 
Ax0310a

>  <ref_mols>  (19) 
Ax0446a,Ax1080a,Ax0812a,Ax0719a,Ax1140a,Ax0528a,Ax0310a

>  <original SMILES>  (19) 
COc1cccc(-c2cc(S(N)(=O)=O)[nH]n2)c1

>  <rationale>  (19) 
info info set:sulfonimide_whole;hbond:G127+A86+E85; hydroph_interaction:E85+L100+L131; 

>  <experiment>  (19) 
sulfonimide_whole

>  <cluster_label>  (19) 
17

>  <cluster_rank>  (19) 
1

>  <N_interactions>  (19) 
8

>  <∆∆G>  (19) 
-6.084304

>  <comRMSD>  (19) 
0.968328

>  <ROCS_TanimotoCombo>  (19) 
0.319

>  <ROCS_ShapeTanimoto>  (19) 
0.182

>  <ROCS_ColorTanimoto>  (19) 
0.137

$$$$
EN300_365277
     RDKit          3D

 17 19  0  0  0  0  0  0  0  0999 V2000
   34.6319   14.6646    7.6389 N   0  0  0  0  0  0  0  0  0  0  0  0
   33.4182   13.6447    8.2123 S   0  0  0  0  0  6  0  0  0  0  0  0
   34.1300   12.7300    9.0177 O   0  0  0  0  0  0  0  0  0  0  0  0
   32.3757   14.4116    8.8584 O   0  0  0  0  0  0  0  0  0  0  0  0
   32.7638   12.8561    6.7226 C   0  0  0  0  0  0  0  0  0  0  0  0
   33.6598   11.8786    6.0209 C   0  0  0  0  0  0  0  0  0  0  0  0
   34.8518   12.3097    5.2556 C   0  0  0  0  0  0  0  0  0  0  0  0
   35.5600   11.2616    4.6522 C   0  0  0  0  0  0  0  0  0  0  0  0
   35.1286    9.9324    4.7934 C   0  0  0  0  0  0  0  0  0  0  0  0
   33.9941    9.5666    5.5334 C   0  0  0  0  0  0  0  0  0  0  0  0
   33.2668   10.5565    6.1483 C   0  0  0  0  0  0  0  0  0  0  0  0
   32.0934   10.5320    6.9466 C   0  0  0  0  0  0  0  0  0  0  0  0
   31.3371    9.4794    7.3969 C   0  0  0  0  0  0  0  0  0  0  0  0
   30.2244    9.8052    8.1362 C   0  0  0  0  0  0  0  0  0  0  0  0
   29.9317   11.1691    8.3687 C   0  0  0  0  0  0  0  0  0  0  0  0
   30.6828   12.1904    7.9450 C   0  0  0  0  0  0  0  0  0  0  0  0
   31.7648   11.8771    7.2482 C   0  0  0  0  0  0  0  0  0  0  0  0
  1  2  1  0
  2  3  2  0
  2  4  2  0
  2  5  1  0
  5  6  1  0
  6  7  2  0
  7  8  1  0
  8  9  2  0
  9 10  1  0
 10 11  2  0
 11 12  1  0
 12 13  2  0
 13 14  1  0
 14 15  2  0
 15 16  1  0
 16 17  2  0
 17  5  1  0
 11  6  1  0
 17 12  1  0
A    1
 N1 
A    2
 S1 
A    3
 O1 
A    4
 O2 
A    5
 C1 
A    6
 C2 
A    7
 C3 
A    8
 C4 
A    9
 C5 
A   10
 C6 
A   11
 C7 
A   12
 C8 
A   13
 C9 
A   14
 C10
A   15
 C11
A   16
 C12
A   17
 C13
M  END
>  <ref_pdb>  (20) 
Ax0310a

>  <ref_mols>  (20) 
Ax0446a,Ax1080a,Ax0812a,Ax0719a,Ax1140a,Ax0528a,Ax0310a

>  <original SMILES>  (20) 
NS(=O)(=O)C1c2ccccc2-c2ccccc21

>  <rationale>  (20) 
info info set:sulfonimide_whole;hbond:S87+G127+A86; 

>  <experiment>  (20) 
sulfonimide_whole

>  <cluster_label>  (20) 
5

>  <cluster_rank>  (20) 
1

>  <N_interactions>  (20) 
3

>  <∆∆G>  (20) 
-6.680949

>  <comRMSD>  (20) 
0.62371

>  <ROCS_TanimotoCombo>  (20) 
0.384

>  <ROCS_ShapeTanimoto>  (20) 
0.233

>  <ROCS_ColorTanimoto>  (20) 
0.15

$$$$
Z1764946926
     RDKit          3D

 17 18  0  0  0  0  0  0  0  0999 V2000
   34.7325    9.3120    4.1438 C   0  0  0  0  0  0  0  0  0  0  0  0
   34.1562    8.8307    5.3583 N   0  0  0  0  0  0  0  0  0  0  0  0
   33.1888    9.4126    6.1047 C   0  0  0  0  0  0  0  0  0  0  0  0
   33.2254   10.9272    5.9981 C   0  0  0  0  0  0  0  0  0  0  0  0
   32.1627   11.6442    6.8172 C   0  0  0  0  0  0  0  0  0  0  0  0
   31.2048   10.7687    7.6321 C   0  0  0  0  0  0  0  0  0  0  0  0
   30.2208   11.2495    8.3800 N   0  0  0  0  0  0  0  0  0  0  0  0
   29.6619   12.3526    7.9639 C   0  0  0  0  0  0  0  0  0  0  0  0
   28.7101   13.2575    8.7373 C   0  0  0  0  0  0  0  0  0  0  0  0
   28.1954   14.4594    8.0753 C   0  0  0  0  0  0  0  0  0  0  0  0
   27.2992   15.2994    8.8765 C   0  0  0  0  0  0  0  0  0  0  0  0
   28.4925   14.7993    6.8472 N   0  0  0  0  0  0  0  0  0  0  0  0
   29.3432   13.9542    6.1879 C   0  0  0  0  0  0  0  0  0  0  0  0
   29.6709   14.2493    4.9032 C   0  0  0  0  0  0  0  0  0  0  0  0
   29.9062   12.8582    6.6352 N   0  0  0  0  0  0  0  0  0  0  0  0
   31.3794    9.3867    7.5657 C   0  0  0  0  0  0  0  0  0  0  0  0
   32.3103    8.7091    6.8547 N   0  0  0  0  0  0  0  0  0  0  0  0
  1  2  1  0
  2  3  1  0
  3  4  2  0
  4  5  1  0
  5  6  2  0
  6  7  1  0
  7  8  1  0
  8  9  2  0
  9 10  1  0
 10 11  1  0
 10 12  2  0
 12 13  1  0
 13 14  1  0
 13 15  2  0
  6 16  1  0
 16 17  2  0
 17  3  1  0
 15  8  1  0
A    1
 C1 
A    2
 N1 
A    3
 C2 
A    4
 C3 
A    5
 C4 
A    6
 C5 
A    7
 N2 
A    8
 C6 
A    9
 C7 
A   10
 C8 
A   11
 C9 
A   12
 N3 
A   13
 C10
A   14
 C11
A   15
 N4 
A   16
 C12
A   17
 N5 
M  END
>  <ref_pdb>  (21) 
Ax0310a

>  <ref_mols>  (21) 
Ax0446a,Ax1080a,Ax0812a,Ax0719a,Ax1140a,Ax0528a,Ax0310a

>  <original SMILES>  (21) 
CNc1ccc(Nc2cc(C)nc(C)n2)cn1

>  <rationale>  (21) 
info info set:screening_pocket;hbond:S105+S125; hydroph_interaction:P107+Y89+Y90+E88+H21; 

>  <experiment>  (21) 
screening_pocket

>  <cluster_label>  (21) 
12

>  <cluster_rank>  (21) 
1

>  <N_interactions>  (21) 
7

>  <∆∆G>  (21) 
-6.437505

>  <comRMSD>  (21) 
0.89417

>  <ROCS_TanimotoCombo>  (21) 
0.663

>  <ROCS_ShapeTanimoto>  (21) 
0.227

>  <ROCS_ColorTanimoto>  (21) 
0.437

$$$$
EN300_1723691
     RDKit          3D

 17 18  0  0  0  0  0  0  0  0999 V2000
   37.2371   10.7801   11.2340 N   0  0  0  0  0  0  0  0  0  0  0  0
   37.0691   12.4455   11.5238 S   0  0  0  0  0  6  0  0  0  0  0  0
   38.4283   12.8827   11.7166 O   0  0  0  0  0  0  0  0  0  0  0  0
   36.1404   12.4537   12.6162 O   0  0  0  0  0  0  0  0  0  0  0  0
   36.3950   12.9946    9.9096 C   0  0  0  0  0  0  0  0  0  0  0  0
   37.4982   13.1414    8.9327 C   0  0  0  0  0  0  0  0  0  0  0  0
   37.1706   13.4962    7.6231 C   0  0  0  0  0  0  0  0  0  0  0  0
   35.8274   13.7102    7.2135 C   0  0  0  0  0  0  0  0  0  0  0  0
   34.7789   13.5783    8.1159 C   0  0  0  0  0  0  0  0  0  0  0  0
   33.4092   13.7034    7.8044 O   0  0  0  0  0  0  0  0  0  0  0  0
   32.7786   12.4548    7.5465 C   0  0  0  0  0  0  0  0  0  0  0  0
   31.5077   12.1569    8.1555 C   0  0  0  0  0  0  0  0  0  0  0  0
   30.9396   10.9248    7.9308 C   0  0  0  0  0  0  0  0  0  0  0  0
   31.5730    9.8408    7.0484 C   0  0  0  0  0  0  0  0  0  0  0  0
   32.8090   10.0267    6.3669 C   0  0  0  0  0  0  0  0  0  0  0  0
   33.3551   11.4890    6.7258 C   0  0  0  0  0  0  0  0  0  0  0  0
   35.0508   13.2602    9.4256 C   0  0  0  0  0  0  0  0  0  0  0  0
  1  2  1  0
  2  3  2  0
  2  4  2  0
  2  5  1  0
  5  6  2  0
  6  7  1  0
  7  8  2  0
  8  9  1  0
  9 10  1  0
 10 11  1  0
 11 12  2  0
 12 13  1  0
 13 14  2  0
 14 15  1  0
 15 16  2  0
  9 17  2  0
 17  5  1  0
 16 11  1  0
A    1
 N1 
A    2
 S1 
A    3
 O1 
A    4
 O2 
A    5
 C1 
A    6
 C2 
A    7
 C3 
A    8
 C4 
A    9
 C5 
A   10
 O3 
A   11
 C6 
A   12
 C7 
A   13
 C8 
A   14
 C9 
A   15
 C10
A   16
 C11
A   17
 C12
M  END
>  <ref_pdb>  (22) 
Ax0310a

>  <ref_mols>  (22) 
Ax0446a,Ax1080a,Ax0812a,Ax0719a,Ax1140a,Ax0528a,Ax0310a

>  <original SMILES>  (22) 
NS(=O)(=O)c1cccc(Oc2ccccc2)c1

>  <rationale>  (22) 
info info set:sulfonimide_whole;hbond:T126+G128; hydroph_interaction:E85; 

>  <experiment>  (22) 
sulfonimide_whole

>  <cluster_label>  (22) 
15

>  <cluster_rank>  (22) 
2

>  <N_interactions>  (22) 
4

>  <∆∆G>  (22) 
-4.778199

>  <comRMSD>  (22) 
0.978353

>  <ROCS_TanimotoCombo>  (22) 
0.326

>  <ROCS_ShapeTanimoto>  (22) 
0.206

>  <ROCS_ColorTanimoto>  (22) 
0.12

$$$$
Z2057224744
     RDKit          3D

 19 20  0  0  0  0  0  0  0  0999 V2000
   30.0225    8.7844    9.0728 C   0  0  0  0  0  0  0  0  0  0  0  0
   31.2177    8.3064    8.3579 C   0  0  0  0  0  0  0  0  0  0  0  0
   31.7471    9.3913    7.4601 C   0  0  0  0  0  0  0  0  0  0  0  0
   32.7179    8.9458    6.4648 N   0  0  0  0  0  0  0  0  0  0  0  0
   33.0399    9.8773    5.8631 N   0  0  0  0  0  0  0  0  0  0  0  0
   33.9497    9.7113    4.8824 C   0  0  0  0  0  0  0  0  0  0  0  0
   32.4605   11.0128    6.2296 C   0  0  0  0  0  0  0  0  0  0  0  0
   31.5107   10.7437    7.3807 C   0  0  0  0  0  0  0  0  0  0  0  0
   30.7349   11.5313    8.0622 N   0  0  0  0  0  0  0  0  0  0  0  0
   30.2818   12.7030    7.5689 C   0  0  0  0  0  0  0  0  0  0  0  0
   30.7730   13.3523    6.4145 O   0  0  0  0  0  0  0  0  0  0  0  0
   29.1679   13.2215    8.4008 C   0  0  2  0  0  0  0  0  0  0  0  0
   27.9102   13.5137    7.6431 C   0  0  0  0  0  0  0  0  0  0  0  0
   27.5639   14.8514    8.1419 C   0  0  2  0  0  0  0  0  0  0  0  0
   28.3926   15.6999    7.4145 O   0  0  0  0  0  0  0  0  0  0  0  0
   28.8543   16.6854    8.2885 C   0  0  0  0  0  0  0  0  0  0  0  0
   28.0868   14.7865    9.5454 C   0  0  0  0  0  0  0  0  0  0  0  0
   29.4586   14.4832    9.1754 N   0  0  0  0  0  0  0  0  0  0  0  0
   30.3470   14.4373   10.3390 C   0  0  0  0  0  0  0  0  0  0  0  0
  1  2  1  0
  2  3  1  0
  3  4  2  0
  4  5  1  0
  5  6  1  0
  5  7  1  0
  7  8  2  0
  8  9  1  0
  9 10  1  0
 10 11  2  0
 12 10  1  6
 12 13  1  0
 13 14  1  0
 14 15  1  6
 15 16  1  0
 14 17  1  0
 17 18  1  0
 18 19  1  0
  8  3  1  0
 18 12  1  0
A    1
 C1 
A    2
 C2 
A    3
 C3 
A    4
 N1 
A    5
 N2 
A    6
 C4 
A    7
 C5 
A    8
 C6 
A    9
 N3 
A   10
 C7 
A   11
 O1 
A   12
 C8 
A   13
 C9 
A   14
 C10
A   15
 O2 
A   16
 C11
A   17
 C12
A   18
 N4 
A   19
 C13
M  END
>  <ref_pdb>  (23) 
Ax0310a

>  <ref_mols>  (23) 
Ax0446a,Ax1080a,Ax0812a,Ax0719a,Ax1140a,Ax0528a,Ax0310a

>  <original SMILES>  (23) 
CCc1nn(C)cc1NC(=O)[C@@H]1C[C@H](OC)CN1C

>  <rationale>  (23) 
info info set:screening_pocket;hbond:S87+S125+G127; hydroph_interaction:V124; saltbridge:D39; 

>  <experiment>  (23) 
screening_pocket

>  <cluster_label>  (23) 
19

>  <cluster_rank>  (23) 
2

>  <N_interactions>  (23) 
5

>  <∆∆G>  (23) 
-7.441495

>  <comRMSD>  (23) 
0.607788

>  <ROCS_TanimotoCombo>  (23) 
0.625

>  <ROCS_ShapeTanimoto>  (23) 
0.234

>  <ROCS_ColorTanimoto>  (23) 
0.392

$$$$
EN300_1618086
     RDKit          3D

 16 16  0  0  0  0  0  0  0  0999 V2000
   34.4142    7.8237    3.0939 C   0  0  0  0  0  0  0  0  0  0  0  0
   34.9298    8.3508    4.2810 C   0  0  0  0  0  0  0  0  0  0  0  0
   33.8050    8.7340    5.1080 O   0  0  0  0  0  0  0  0  0  0  0  0
   33.9670    9.9825    5.5536 C   0  0  0  0  0  0  0  0  0  0  0  0
   34.9417   10.6652    5.2902 O   0  0  0  0  0  0  0  0  0  0  0  0
   32.9193   10.4200    6.3389 C   0  0  0  0  0  0  0  0  0  0  0  0
   32.1550    9.6397    7.1086 N   0  0  0  0  0  0  0  0  0  0  0  0
   31.1943   10.3196    7.7837 C   0  0  0  0  0  0  0  0  0  0  0  0
   30.3514    9.6094    8.6103 C   0  0  0  0  0  0  0  0  0  0  0  0
   31.3506   11.6651    7.4102 C   0  0  0  0  0  0  0  0  0  0  0  0
   30.5205   13.0956    7.8248 S   0  0  0  0  0  6  0  0  0  0  0  0
   29.1157   12.7303    8.6261 N   0  0  0  0  0  0  0  0  0  0  0  0
   30.0268   13.6219    6.5791 O   0  0  0  0  0  0  0  0  0  0  0  0
   31.3572   13.8527    8.7328 O   0  0  0  0  0  0  0  0  0  0  0  0
   32.4252   11.6908    6.5224 C   0  0  0  0  0  0  0  0  0  0  0  0
   32.8960   12.9771    5.9114 C   0  0  0  0  0  0  0  0  0  0  0  0
  1  2  1  0
  2  3  1  0
  3  4  1  0
  4  5  2  0
  4  6  1  0
  6  7  1  0
  7  8  1  0
  8  9  1  0
  8 10  2  0
 10 11  1  0
 11 12  1  0
 11 13  2  0
 11 14  2  0
 10 15  1  0
 15 16  1  0
 15  6  2  0
A    1
 C1 
A    2
 C2 
A    3
 O1 
A    4
 C3 
A    5
 O2 
A    6
 C4 
A    7
 N1 
A    8
 C5 
A    9
 C6 
A   10
 C7 
A   11
 S1 
A   12
 N2 
A   13
 O3 
A   14
 O4 
A   15
 C8 
A   16
 C9 
M  END
>  <ref_pdb>  (24) 
Ax0310a

>  <ref_mols>  (24) 
Ax0446a,Ax1080a,Ax0812a,Ax0719a,Ax1140a,Ax0528a,Ax0310a

>  <original SMILES>  (24) 
CCOC(=O)c1[nH]c(C)c(S(N)(=O)=O)c1C

>  <rationale>  (24) 
info info set:sulfonimide_whole;hbond:S87+S125; hydroph_interaction:E106; 

>  <experiment>  (24) 
sulfonimide_whole

>  <cluster_label>  (24) 
4

>  <cluster_rank>  (24) 
2

>  <N_interactions>  (24) 
3

>  <∆∆G>  (24) 
-6.050994

>  <comRMSD>  (24) 
0.859902

>  <ROCS_TanimotoCombo>  (24) 
0.346

>  <ROCS_ShapeTanimoto>  (24) 
0.195

>  <ROCS_ColorTanimoto>  (24) 
0.151

$$$$
EN300_359480
     RDKit          3D

 15 16  0  0  0  0  0  0  0  0999 V2000
   30.4942    7.9602    8.6364 C   0  0  0  0  0  0  0  0  0  0  0  0
   30.4534    9.3724    8.4302 N   0  0  0  0  0  0  0  0  0  0  0  0
   31.3291    9.8455    7.4625 C   0  0  0  0  0  0  0  0  0  0  0  0
   32.2886    9.0327    6.9665 N   0  0  0  0  0  0  0  0  0  0  0  0
   33.1154    9.5364    6.0052 C   0  0  0  0  0  0  0  0  0  0  0  0
   33.0508   10.8263    5.5001 C   0  0  0  0  0  0  0  0  0  0  0  0
   33.9807   11.3236    4.4163 C   0  0  0  0  0  0  0  0  0  0  0  0
   35.0073   10.5150    3.9904 C   0  0  0  0  0  0  0  0  0  0  0  0
   35.6005   11.5831    4.6611 C   0  0  0  0  0  0  0  0  0  0  0  0
   32.0635   11.6223    6.0454 C   0  0  0  0  0  0  0  0  0  0  0  0
   31.1958   11.1496    7.0170 C   0  0  0  0  0  0  0  0  0  0  0  0
   30.1539   12.0916    7.5165 C   0  0  0  0  0  0  0  0  0  0  0  0
   30.3629   12.5019    8.7740 F   0  0  0  0  0  0  0  0  0  0  0  0
   28.8878   11.6379    7.4855 F   0  0  0  0  0  0  0  0  0  0  0  0
   30.0984   13.2327    6.7960 F   0  0  0  0  0  0  0  0  0  0  0  0
  1  2  1  0
  2  3  1  0
  3  4  2  0
  4  5  1  0
  5  6  2  0
  6  7  1  0
  7  8  1  0
  8  9  1  0
  6 10  1  0
 10 11  2  0
 11 12  1  0
 12 13  1  0
 12 14  1  0
 12 15  1  0
 11  3  1  0
  9  7  1  0
A    1
 C1 
A    2
 N1 
A    3
 C2 
A    4
 N2 
A    5
 C3 
A    6
 C4 
A    7
 C5 
A    8
 C6 
A    9
 C7 
A   10
 C8 
A   11
 C9 
A   12
 C10
A   13
 F1 
A   14
 F2 
A   15
 F3 
M  END
>  <ref_pdb>  (25) 
Ax0310a

>  <ref_mols>  (25) 
Ax0446a,Ax1080a,Ax0812a,Ax0719a,Ax1140a,Ax0528a,Ax0310a

>  <original SMILES>  (25) 
CNc1ncc(C2CC2)cc1C(F)(F)F

>  <rationale>  (25) 
info info set:bb_densepocket2;halogenbond:C110+P107; hbond:S125; hydroph_interaction:P107; 

>  <experiment>  (25) 
bb_densepocket2

>  <cluster_label>  (25) 
2

>  <cluster_rank>  (25) 
2

>  <N_interactions>  (25) 
4

>  <∆∆G>  (25) 
-4.381063

>  <comRMSD>  (25) 
0.71304

>  <ROCS_TanimotoCombo>  (25) 
0.614

>  <ROCS_ShapeTanimoto>  (25) 
0.259

>  <ROCS_ColorTanimoto>  (25) 
0.355

$$$$
EN300_277778
     RDKit          3D

 17 17  0  0  0  0  0  0  0  0999 V2000
   29.5890    8.0164    8.4748 N   0  0  0  0  0  0  0  0  0  0  0  0
   30.6525    8.3277    8.6622 C   0  0  0  0  0  0  0  0  0  0  0  0
   31.3974    7.6477    9.6139 O   0  0  0  0  0  0  0  0  0  0  0  0
   31.1960    9.5112    7.9101 C   0  0  0  0  0  0  0  0  0  0  0  0
   32.3200    9.3179    6.8980 C   0  0  0  0  0  0  0  0  0  0  0  0
   32.9377   10.5002    6.1070 C   0  0  0  0  0  0  0  0  0  0  0  0
   33.9146   10.3163    5.2446 N   0  0  0  0  0  4  0  0  0  0  0  0
   34.9958   10.8469    5.5080 O   0  0  0  0  0  0  0  0  0  0  0  0
   33.5989   10.0362    4.0955 O   0  0  0  0  0  1  0  0  0  0  0  0
   32.2878   11.8726    6.4465 C   0  0  0  0  0  0  0  0  0  0  0  0
   32.8585   13.2809    5.6500 Cl  0  0  0  0  0  0  0  0  0  0  0  0
   31.2439   11.9258    7.3992 C   0  0  0  0  0  0  0  0  0  0  0  0
   30.4687   13.4352    7.8153 S   0  0  0  0  0  6  0  0  0  0  0  0
   29.1560   13.1104    8.7977 N   0  0  0  0  0  0  0  0  0  0  0  0
   31.3809   14.1995    8.6492 O   0  0  0  0  0  0  0  0  0  0  0  0
   29.8035   13.8683    6.6184 O   0  0  0  0  0  0  0  0  0  0  0  0
   30.6965   10.7441    8.1337 C   0  0  0  0  0  0  0  0  0  0  0  0
  1  2  1  0
  2  3  2  0
  2  4  1  0
  4  5  2  0
  5  6  1  0
  6  7  1  0
  7  8  2  0
  7  9  1  0
  6 10  2  0
 10 11  1  0
 10 12  1  0
 12 13  1  0
 13 14  1  0
 13 15  2  0
 13 16  2  0
 12 17  2  0
 17  4  1  0
M  CHG  2   7   1   9  -1
A    1
 N1 
A    2
 C1 
A    3
 O1 
A    4
 C2 
A    5
 C3 
A    6
 C4 
A    7
 N2 
A    8
 O2 
A    9
 O3 
A   10
 C5 
A   11
CL1 
A   12
 C6 
A   13
 S1 
A   14
 N3 
A   15
 O4 
A   16
 O5 
A   17
 C7 
M  END
>  <ref_pdb>  (26) 
Ax0310a

>  <ref_mols>  (26) 
Ax0446a,Ax1080a,Ax0812a,Ax0719a,Ax1140a,Ax0528a,Ax0310a

>  <original SMILES>  (26) 
NC(=O)c1cc([N+](=O)[O-])c(Cl)c(S(N)(=O)=O)c1

>  <rationale>  (26) 
info info set:sulfonimide_whole;hbond:S87+S105+S125+P107; 

>  <experiment>  (26) 
sulfonimide_whole

>  <cluster_label>  (26) 
11

>  <cluster_rank>  (26) 
2

>  <N_interactions>  (26) 
4

>  <∆∆G>  (26) 
-3.639115

>  <comRMSD>  (26) 
0.651007

>  <ROCS_TanimotoCombo>  (26) 
0.346

>  <ROCS_ShapeTanimoto>  (26) 
0.215

>  <ROCS_ColorTanimoto>  (26) 
0.131

$$$$
Z55423090
     RDKit          3D

 17 18  0  0  0  0  0  0  0  0999 V2000
   28.8185   12.4916    7.9182 C   0  0  0  0  0  0  0  0  0  0  0  0
   29.9789   11.5764    7.6646 C   0  0  0  0  0  0  0  0  0  0  0  0
   30.2308   10.2552    8.0558 C   0  0  0  0  0  0  0  0  0  0  0  0
   31.3960    9.8210    7.5577 C   0  0  0  0  0  0  0  0  0  0  0  0
   31.9537    8.6135    7.6865 N   0  0  0  0  0  0  0  0  0  0  0  0
   31.8719   10.8818    6.9003 N   0  0  0  0  0  0  0  0  0  0  0  0
   32.9718   10.9884    6.2778 C   0  0  0  0  0  0  0  0  0  0  0  0
   33.3898    9.9786    5.4114 C   0  0  0  0  0  0  0  0  0  0  0  0
   34.5904   10.0675    4.6808 C   0  0  0  0  0  0  0  0  0  0  0  0
   35.3546   11.2124    4.8565 C   0  0  0  0  0  0  0  0  0  0  0  0
   34.9163   12.2728    5.7793 C   0  0  0  0  0  0  0  0  0  0  0  0
   33.7386   12.1491    6.4870 C   0  0  0  0  0  0  0  0  0  0  0  0
   33.4000   13.2824    7.4205 C   0  0  0  0  0  0  0  0  0  0  0  0
   34.2415   14.3373    7.3913 F   0  0  0  0  0  0  0  0  0  0  0  0
   32.1221   13.6626    7.2611 F   0  0  0  0  0  0  0  0  0  0  0  0
   33.4055   12.9341    8.7344 F   0  0  0  0  0  0  0  0  0  0  0  0
   31.0192   11.9649    6.9400 N   0  0  0  0  0  0  0  0  0  0  0  0
  1  2  1  0
  2  3  1  0
  3  4  2  0
  4  5  1  0
  4  6  1  0
  6  7  1  0
  7  8  2  0
  8  9  1  0
  9 10  2  0
 10 11  1  0
 11 12  2  0
 12 13  1  0
 13 14  1  0
 13 15  1  0
 13 16  1  0
  6 17  1  0
 17  2  2  0
 12  7  1  0
A    1
 C1 
A    2
 C2 
A    3
 C3 
A    4
 C4 
A    5
 N1 
A    6
 N2 
A    7
 C5 
A    8
 C6 
A    9
 C7 
A   10
 C8 
A   11
 C9 
A   12
 C10
A   13
 C11
A   14
 F1 
A   15
 F2 
A   16
 F3 
A   17
 N3 
M  END
>  <ref_pdb>  (27) 
Ax0310a

>  <ref_mols>  (27) 
Ax0446a,Ax1080a,Ax0812a,Ax0719a,Ax1140a,Ax0528a,Ax0310a

>  <original SMILES>  (27) 
Cc1cc(N)n(-c2ccccc2C(F)(F)F)n1

>  <rationale>  (27) 
info info set:3d;halogenbond:E85; hbond:S105; 

>  <experiment>  (27) 
3d

>  <cluster_label>  (27) 
1

>  <cluster_rank>  (27) 
2

>  <N_interactions>  (27) 
2

>  <∆∆G>  (27) 
-3.577937

>  <comRMSD>  (27) 
0.504708

>  <ROCS_TanimotoCombo>  (27) 
0.339

>  <ROCS_ShapeTanimoto>  (27) 
0.23

>  <ROCS_ColorTanimoto>  (27) 
0.109

$$$$
Z4967399033
     RDKit          3D

 29 32  0  0  0  0  0  0  0  0999 V2000
   30.1392    8.9753    8.2978 C   0  0  0  0  0  0  0  0  0  0  0  0
   31.0526   10.0143    7.6212 C   0  0  0  0  0  0  0  0  0  0  0  0
   30.8032   11.3245    7.7754 N   0  0  0  0  0  0  0  0  0  0  0  0
   31.6625   12.2312    7.2351 C   0  0  0  0  0  0  0  0  0  0  0  0
   31.4863   13.4621    7.3577 O   0  0  0  0  0  0  0  0  0  0  0  0
   30.2318   13.8573    7.7813 C   0  0  0  0  0  0  0  0  0  0  0  0
   29.0734   13.7530    6.7995 C   0  0  0  0  0  0  0  0  0  0  0  0
   29.5387   13.2678    5.3017 Cl  0  0  0  0  0  0  0  0  0  0  0  0
   27.7045   14.1123    7.2216 C   0  0  0  0  0  0  0  0  0  0  0  0
   27.4685   14.6197    8.6099 C   0  0  0  0  0  0  0  0  0  0  0  0
   28.5966   14.7740    9.5657 C   0  0  0  0  0  0  0  0  0  0  0  0
   30.0075   14.4135    9.1610 C   0  0  0  0  0  0  0  0  0  0  0  0
   31.0833   14.6058    9.9792 C   0  0  0  0  0  0  0  0  0  0  0  0
   31.0342   15.4718   10.9393 N   0  0  0  0  0  0  0  0  0  0  0  0
   32.1340   14.0365    9.7579 O   0  0  0  0  0  0  0  0  0  0  0  0
   32.7871   11.7680    6.5411 C   0  0  0  0  0  0  0  0  0  0  0  0
   33.8532   12.4106    5.9509 C   0  0  0  0  0  0  0  0  0  0  0  0
   34.0079   13.8203    5.9552 C   0  0  0  0  0  0  0  0  0  0  0  0
   34.7559   11.5173    5.4038 C   0  0  0  0  0  0  0  0  0  0  0  0
   36.1360   11.7871    4.7549 C   0  0  0  0  0  0  0  0  0  0  0  0
   36.4203   11.2425    3.5643 C   0  0  0  0  0  0  0  0  0  0  0  0
   37.7671   11.4826    2.9765 C   0  0  0  0  0  0  0  0  0  0  0  0
   38.9686   12.2907    3.5211 C   0  0  0  0  0  0  0  0  0  0  0  0
   38.3957   12.7398    4.7431 C   0  0  0  0  0  0  0  0  0  0  0  0
   37.1445   12.5421    5.3262 C   0  0  0  0  0  0  0  0  0  0  0  0
   36.9770   13.3239    6.8467 Cl  0  0  0  0  0  0  0  0  0  0  0  0
   34.2299    9.8915    5.5437 S   0  0  0  0  0  0  0  0  0  0  0  0
   32.8811   10.3927    6.4260 C   0  0  0  0  0  0  0  0  0  0  0  0
   32.0577    9.4836    6.9349 N   0  0  0  0  0  0  0  0  0  0  0  0
  1  2  1  0
  2  3  2  0
  3  4  1  0
  4  5  1  0
  5  6  1  0
  6  7  2  0
  7  8  1  0
  7  9  1  0
  9 10  2  0
 10 11  1  0
 11 12  2  0
 12 13  1  0
 13 14  1  0
 13 15  2  0
  4 16  2  0
 16 17  1  0
 17 18  1  0
 17 19  2  0
 19 20  1  0
 20 21  2  0
 21 22  1  0
 22 23  2  0
 23 24  1  0
 24 25  2  0
 25 26  1  0
 19 27  1  0
 27 28  1  0
 28 29  2  0
 29  2  1  0
 12  6  1  0
 28 16  1  0
 25 20  1  0
A    1
 C1 
A    2
 C2 
A    3
 N1 
A    4
 C3 
A    5
 O1 
A    6
 C4 
A    7
 C5 
A    8
CL1 
A    9
 C6 
A   10
 C7 
A   11
 C8 
A   12
 C9 
A   13
 C10
A   14
 N2 
A   15
 O2 
A   16
 C11
A   17
 C12
A   18
 C13
A   19
 C14
A   20
 C15
A   21
 C16
A   22
 C17
A   23
 C18
A   24
 C19
A   25
 C20
A   26
CL2 
A   27
 S1 
A   28
 C21
A   29
 N3 
M  END
>  <ref_pdb>  (28) 
Ax0310a

>  <ref_mols>  (28) 
Ax0446a,Ax1080a,Ax0812a,Ax0719a,Ax1140a,Ax0528a,Ax0310a

>  <original SMILES>  (28) 
Cc1nc(Oc2c(Cl)cccc2C(N)=O)c2c(C)c(-c3ccccc3Cl)sc2n1

>  <rationale>  (28) 
info info set:screening_whole;hbond:S87+G127+Q95; hydroph_interaction:Y89+Y90; pistack:H21; 

>  <experiment>  (28) 
screening_whole

>  <cluster_label>  (28) 
18

>  <cluster_rank>  (28) 
2

>  <N_interactions>  (28) 
7

>  <∆∆G>  (28) 
-6.228216

>  <comRMSD>  (28) 
0.818239

>  <ROCS_TanimotoCombo>  (28) 
0.458

>  <ROCS_ShapeTanimoto>  (28) 
0.264

>  <ROCS_ColorTanimoto>  (28) 
0.194

$$$$
Z729056044
     RDKit          3D

 20 22  0  0  0  0  0  0  0  0999 V2000
   34.7269    9.2235    4.3305 C   0  0  0  0  0  0  0  0  0  0  0  0
   33.9673    8.8983    5.4336 N   0  0  0  0  0  0  0  0  0  0  0  0
   33.0810    9.7028    6.1704 C   0  0  0  0  0  0  0  0  0  0  0  0
   33.1104   11.0745    6.1083 C   0  0  0  0  0  0  0  0  0  0  0  0
   32.2476   11.8915    6.8252 C   0  0  0  0  0  0  0  0  0  0  0  0
   31.2992   11.2800    7.6513 C   0  0  0  0  0  0  0  0  0  0  0  0
   30.4837   12.1022    8.3048 N   0  0  0  0  0  0  0  0  0  0  0  0
   29.4834   12.7939    7.6344 C   0  0  0  0  0  0  0  0  0  0  0  0
   29.8653   13.2119    6.4455 N   0  0  0  0  0  0  0  0  0  0  0  0
   28.9985   13.8518    5.6349 C   0  0  0  0  0  0  0  0  0  0  0  0
   27.7432   14.1282    5.8383 N   0  0  0  0  0  0  0  0  0  0  0  0
   27.3303   13.7365    7.0048 C   0  0  0  0  0  0  0  0  0  0  0  0
   25.7184   13.9642    7.4387 S   0  0  0  0  0  0  0  0  0  0  0  0
   25.9844   13.2709    8.9079 C   0  0  0  0  0  0  0  0  0  0  0  0
   24.9511   12.9854    9.9862 C   0  0  0  0  0  0  0  0  0  0  0  0
   27.1965   12.9033    9.1608 C   0  0  0  0  0  0  0  0  0  0  0  0
   27.1096   12.4126   10.5787 C   0  0  0  0  0  0  0  0  0  0  0  0
   28.1450   13.0546    8.0584 C   0  0  0  0  0  0  0  0  0  0  0  0
   31.3197    9.8748    7.6718 C   0  0  0  0  0  0  0  0  0  0  0  0
   32.1856    9.0878    6.9582 N   0  0  0  0  0  0  0  0  0  0  0  0
  1  2  1  0
  2  3  1  0
  3  4  2  0
  4  5  1  0
  5  6  2  0
  6  7  1  0
  7  8  1  0
  8  9  2  0
  9 10  1  0
 10 11  2  0
 11 12  1  0
 12 13  1  0
 13 14  1  0
 14 15  1  0
 14 16  2  0
 16 17  1  0
 16 18  1  0
  6 19  1  0
 19 20  2  0
 20  3  1  0
 18  8  1  0
 18 12  2  0
A    1
 C1 
A    2
 N1 
A    3
 C2 
A    4
 C3 
A    5
 C4 
A    6
 C5 
A    7
 N2 
A    8
 C6 
A    9
 N3 
A   10
 C7 
A   11
 N4 
A   12
 C8 
A   13
 S1 
A   14
 C9 
A   15
 C10
A   16
 C11
A   17
 C12
A   18
 C13
A   19
 C14
A   20
 N5 
M  END
>  <ref_pdb>  (29) 
Ax0310a

>  <ref_mols>  (29) 
Ax0446a,Ax1080a,Ax0812a,Ax0719a,Ax1140a,Ax0528a,Ax0310a

>  <original SMILES>  (29) 
CNc1ccc(Nc2ncnc3sc(C)c(C)c23)cn1

>  <rationale>  (29) 
info info set:screening_pocket;hbond:S87+S105+S125; hydroph_interaction:H21+L22+N19; pistack:Y90; 

>  <experiment>  (29) 
screening_pocket

>  <cluster_label>  (29) 
13

>  <cluster_rank>  (29) 
2

>  <N_interactions>  (29) 
7

>  <∆∆G>  (29) 
-3.773515

>  <comRMSD>  (29) 
0.991884

>  <ROCS_TanimotoCombo>  (29) 
0.632

>  <ROCS_ShapeTanimoto>  (29) 
0.227

>  <ROCS_ColorTanimoto>  (29) 
0.405

$$$$
EN300_37443701
     RDKit          3D

 13 14  0  0  0  0  0  0  0  0999 V2000
   29.0296   13.3164    9.1217 N   0  0  0  0  0  0  0  0  0  0  0  0
   30.3081   14.0438    8.4006 S   0  0  0  0  0  6  0  0  0  0  0  0
   30.6141   15.2001    9.2072 O   0  0  0  0  0  0  0  0  0  0  0  0
   29.7514   14.0897    7.0704 O   0  0  0  0  0  0  0  0  0  0  0  0
   31.7934   13.0676    8.2441 C   0  0  0  0  0  0  0  0  0  0  0  0
   31.7132   11.6896    7.6380 C   0  0  2  0  0  0  0  0  0  0  0  0
   30.3885   11.5613    7.2701 C   0  0  0  0  0  0  0  0  0  0  0  0
   30.9205   10.3770    8.1131 C   0  0  1  0  0  0  0  0  0  0  0  0
   31.6574    9.2105    7.4992 C   0  0  0  0  0  0  0  0  0  0  0  0
   32.5476    9.7174    6.4361 C   0  0  0  0  0  0  0  0  0  0  0  0
   32.5938   11.2579    6.4783 C   0  0  0  0  0  0  0  0  0  0  0  0
   32.2008   11.8346    5.3568 F   0  0  0  0  0  0  0  0  0  0  0  0
   33.8344   11.7054    6.6340 F   0  0  0  0  0  0  0  0  0  0  0  0
  1  2  1  0
  2  3  2  0
  2  4  2  0
  2  5  1  0
  6  5  1  1
  6  7  1  0
  8  7  1  6
  8  9  1  0
  9 10  1  0
 10 11  1  0
 11 12  1  0
 11 13  1  0
  8  6  1  0
 11  6  1  0
A    1
 N1 
A    2
 S1 
A    3
 O1 
A    4
 O2 
A    5
 C1 
A    6
 C2 
A    7
 C3 
A    8
 C4 
A    9
 C5 
A   10
 C6 
A   11
 C7 
A   12
 F1 
A   13
 F2 
M  END
>  <ref_pdb>  (30) 
Ax0310a

>  <ref_mols>  (30) 
Ax0446a,Ax1080a,Ax0812a,Ax0719a,Ax1140a,Ax0528a,Ax0310a

>  <original SMILES>  (30) 
NS(=O)(=O)C[C@]12C[C@H]1CCC2(F)F

>  <rationale>  (30) 
info info set:sulfonimide_whole;halogenbond:G127; hbond:S87+S125; hydroph_interaction:P107; 

>  <experiment>  (30) 
sulfonimide_whole

>  <cluster_label>  (30) 
14

>  <cluster_rank>  (30) 
2

>  <N_interactions>  (30) 
4

>  <∆∆G>  (30) 
-0.317492

>  <comRMSD>  (30) 
0.765759

>  <ROCS_TanimotoCombo>  (30) 
0.376

>  <ROCS_ShapeTanimoto>  (30) 
0.194

>  <ROCS_ColorTanimoto>  (30) 
0.182

$$$$
Z99095183
     RDKit          3D

 17 18  0  0  0  0  0  0  0  0999 V2000
   28.6033   14.6612   11.4856 C   0  0  0  0  0  0  0  0  0  0  0  0
   29.8915   14.6134   11.0148 C   0  0  0  0  0  0  0  0  0  0  0  0
   30.8440   14.1590   11.8355 C   0  0  0  0  0  0  0  0  0  0  0  0
   30.5304   15.9456   10.7405 C   0  0  0  0  0  0  0  0  0  0  0  0
   29.8638   13.7965    9.8029 N   0  0  0  0  0  0  0  0  0  0  0  0
   30.8443   13.6775    8.8615 C   0  0  0  0  0  0  0  0  0  0  0  0
   32.0227   13.9830    9.0046 O   0  0  0  0  0  0  0  0  0  0  0  0
   30.2541   13.0733    7.5798 C   0  0  0  0  0  0  0  0  0  0  0  0
   31.0731   11.8169    7.2757 C   0  0  0  0  0  0  0  0  0  0  0  0
   30.6088   10.6144    7.6398 N   0  0  0  0  0  0  0  0  0  0  0  0
   31.5322    9.6886    7.1795 O   0  0  0  0  0  0  0  0  0  0  0  0
   32.5532   10.3277    6.5586 C   0  0  0  0  0  0  0  0  0  0  0  0
   33.7543    9.5997    5.9112 C   0  0  0  0  0  0  0  0  0  0  0  0
   34.8404   10.4902    5.2579 C   0  0  0  0  0  0  0  0  0  0  0  0
   34.6092   11.8578    5.3344 C   0  0  0  0  0  0  0  0  0  0  0  0
   33.4046   12.5422    5.9721 C   0  0  0  0  0  0  0  0  0  0  0  0
   32.3048   11.6880    6.6204 C   0  0  0  0  0  0  0  0  0  0  0  0
  1  2  1  0
  2  3  1  0
  2  4  1  0
  2  5  1  0
  5  6  1  0
  6  7  2  0
  6  8  1  0
  8  9  1  0
  9 10  2  0
 10 11  1  0
 11 12  1  0
 12 13  2  0
 13 14  1  0
 14 15  2  0
 15 16  1  0
 16 17  2  0
 17  9  1  0
 17 12  1  0
A    1
 C1 
A    2
 C2 
A    3
 C3 
A    4
 C4 
A    5
 N1 
A    6
 C5 
A    7
 O1 
A    8
 C6 
A    9
 C7 
A   10
 N2 
A   11
 O2 
A   12
 C8 
A   13
 C9 
A   14
 C10
A   15
 C11
A   16
 C12
A   17
 C13
M  END
>  <ref_pdb>  (31) 
Ax0310a

>  <ref_mols>  (31) 
Ax0446a,Ax1080a,Ax0812a,Ax0719a,Ax1140a,Ax0528a,Ax0310a

>  <original SMILES>  (31) 
CC(C)(C)NC(=O)Cc1noc2ccccc12

>  <rationale>  (31) 
info info set:3d;hbond:S87; hydroph_interaction:Y90+D39; 

>  <experiment>  (31) 
3d

>  <cluster_label>  (31) 
8

>  <cluster_rank>  (31) 
2

>  <N_interactions>  (31) 
4

>  <∆∆G>  (31) 
-5.735914

>  <comRMSD>  (31) 
0.814618

>  <ROCS_TanimotoCombo>  (31) 
0.35

>  <ROCS_ShapeTanimoto>  (31) 
0.191

>  <ROCS_ColorTanimoto>  (31) 
0.159

$$$$
Z2306626585
     RDKit          3D

 16 17  0  0  0  0  0  0  0  0999 V2000
   35.0297   10.5888    4.9807 O   0  0  0  0  0  0  0  0  0  0  0  0
   34.2245   11.6343    5.5576 C   0  0  0  0  0  0  0  0  0  0  0  0
   34.4572   12.9533    5.4519 O   0  0  0  0  0  0  0  0  0  0  0  0
   33.0377   11.1552    6.3598 C   0  0  0  0  0  0  0  0  0  0  0  0
   32.9346    9.6801    6.3906 C   0  0  0  0  0  0  0  0  0  0  0  0
   31.7985    9.1077    7.1895 C   0  0  0  0  0  0  0  0  0  0  0  0
   30.6783    9.8678    8.0045 C   0  0  0  0  0  0  0  0  0  0  0  0
   31.0543   11.3773    7.7587 C   0  0  0  0  0  0  0  0  0  0  0  0
   30.1656   12.3888    8.4069 C   0  0  0  0  0  0  0  0  0  0  0  0
   30.0876   13.6594    7.7751 N   0  0  0  0  0  0  0  0  0  0  0  0
   29.2268   13.5582    6.7036 C   0  0  0  0  0  0  0  0  0  0  0  0
   27.7351   13.7987    6.8673 C   0  0  0  0  0  0  0  0  0  0  0  0
   27.6779   14.8656    7.9500 C   0  0  0  0  0  0  0  0  0  0  0  0
   28.4735   14.4114    9.1413 C   0  0  0  0  0  0  0  0  0  0  0  0
   29.8369   14.5268    8.9540 C   0  0  0  0  0  0  0  0  0  0  0  0
   32.1229   11.9133    7.0162 C   0  0  0  0  0  0  0  0  0  0  0  0
  1  2  2  0
  2  3  1  0
  2  4  1  0
  4  5  2  0
  5  6  1  0
  6  7  2  0
  7  8  1  0
  8  9  1  0
  9 10  1  0
 10 11  1  0
 11 12  1  0
 12 13  1  0
 13 14  1  0
 14 15  1  0
  8 16  2  0
 16  4  1  0
 15 10  1  0
A    1
 O1 
A    2
 C1 
A    3
 O2 
A    4
 C2 
A    5
 C3 
A    6
 C4 
A    7
 C5 
A    8
 C6 
A    9
 C7 
A   10
 N1 
A   11
 C8 
A   12
 C9 
A   13
 C10
A   14
 C11
A   15
 C12
A   16
 C13
M  END
>  <ref_pdb>  (32) 
Ax0310a

>  <ref_mols>  (32) 
Ax0446a,Ax1080a,Ax0812a,Ax0719a,Ax1140a,Ax0528a,Ax0310a

>  <original SMILES>  (32) 
O=C(O)c1cccc(CN2CCCCC2)c1

>  <rationale>  (32) 
info info set:3d;hbond:S87; hydroph_interaction:Y89+Y90; pication:H21; 

>  <experiment>  (32) 
3d

>  <cluster_label>  (32) 
12

>  <cluster_rank>  (32) 
2

>  <N_interactions>  (32) 
4

>  <∆∆G>  (32) 
-5.426417

>  <comRMSD>  (32) 
0.446721

>  <ROCS_TanimotoCombo>  (32) 
0.33

>  <ROCS_ShapeTanimoto>  (32) 
0.218

>  <ROCS_ColorTanimoto>  (32) 
0.112

$$$$
EN300_263007
     RDKit          3D

 15 16  0  0  0  0  0  0  0  0999 V2000
   34.7827   14.7074    8.0089 N   0  0  0  0  0  0  0  0  0  0  0  0
   33.3907   13.8663    8.4420 S   0  0  0  0  0  6  0  0  0  0  0  0
   32.4953   14.7525    9.1720 O   0  0  0  0  0  0  0  0  0  0  0  0
   33.8873   12.7191    9.0883 O   0  0  0  0  0  0  0  0  0  0  0  0
   32.7856   13.4433    6.8445 C   0  0  0  0  0  0  0  0  0  0  0  0
   33.2141   12.1112    6.3737 C   0  0  0  0  0  0  0  0  0  0  0  0
   34.4387   12.0468    5.4235 C   0  0  0  0  0  0  0  0  0  0  0  0
   34.8346   10.6176    4.9872 C   0  0  0  0  0  0  0  0  0  0  0  0
   33.9591    9.5151    5.5712 C   0  0  0  0  0  0  0  0  0  0  0  0
   32.7861    9.7318    6.5014 C   0  0  0  0  0  0  0  0  0  0  0  0
   31.9856    8.7364    7.0578 N   0  0  0  0  0  0  0  0  0  0  0  0
   30.9270    9.0148    7.8877 C   0  0  0  0  0  0  0  0  0  0  0  0
   30.6698   10.3386    8.1769 C   0  0  0  0  0  0  0  0  0  0  0  0
   31.4272   11.3351    7.6704 N   0  0  0  0  0  0  0  0  0  0  0  0
   32.4674   11.0493    6.8512 C   0  0  0  0  0  0  0  0  0  0  0  0
  1  2  1  0
  2  3  2  0
  2  4  2  0
  2  5  1  0
  5  6  1  0
  6  7  2  0
  7  8  1  0
  8  9  2  0
  9 10  1  0
 10 11  2  0
 11 12  1  0
 12 13  2  0
 13 14  1  0
 14 15  2  0
 15  6  1  0
 15 10  1  0
A    1
 N1 
A    2
 S1 
A    3
 O1 
A    4
 O2 
A    5
 C1 
A    6
 C2 
A    7
 C3 
A    8
 C4 
A    9
 C5 
A   10
 C6 
A   11
 N2 
A   12
 C7 
A   13
 C8 
A   14
 N3 
A   15
 C9 
M  END
>  <ref_pdb>  (33) 
Ax0310a

>  <ref_mols>  (33) 
Ax0446a,Ax1080a,Ax0812a,Ax0719a,Ax1140a,Ax0528a,Ax0310a

>  <original SMILES>  (33) 
NS(=O)(=O)Cc1cccc2nccnc12

>  <rationale>  (33) 
info info set:sulfonimide_whole;hbond:S87+G127+A86; 

>  <experiment>  (33) 
sulfonimide_whole

>  <cluster_label>  (33) 
5

>  <cluster_rank>  (33) 
2

>  <N_interactions>  (33) 
3

>  <∆∆G>  (33) 
-5.036012

>  <comRMSD>  (33) 
0.616755

>  <ROCS_TanimotoCombo>  (33) 
0.405

>  <ROCS_ShapeTanimoto>  (33) 
0.21

>  <ROCS_ColorTanimoto>  (33) 
0.195

$$$$
Z5346215097
     RDKit          3D

 24 27  0  0  0  0  0  0  0  0999 V2000
   29.6796   14.4249   10.5362 C   0  0  0  0  0  0  0  0  0  0  0  0
   29.8928   14.7637    9.2404 C   0  0  2  0  0  0  0  0  0  0  0  0
   28.5186   15.2807    8.7581 C   0  0  0  0  0  0  0  0  0  0  0  0
   27.7606   14.2808    8.1085 O   0  0  0  0  0  0  0  0  0  0  0  0
   28.4455   14.0004    7.0076 C   0  0  0  0  0  0  0  0  0  0  0  0
   27.7768   14.0311    5.8226 C   0  0  0  0  0  0  0  0  0  0  0  0
   28.4608   13.8087    4.6747 C   0  0  0  0  0  0  0  0  0  0  0  0
   29.7966   13.5353    4.7862 C   0  0  0  0  0  0  0  0  0  0  0  0
   30.4686   13.4552    5.9381 N   0  0  0  0  0  0  0  0  0  0  0  0
   29.7788   13.7092    7.0595 C   0  0  0  0  0  0  0  0  0  0  0  0
   30.4244   13.7104    8.3138 N   0  0  0  0  0  0  0  0  0  0  0  0
   31.7346   13.2485    8.3596 C   0  0  0  0  0  0  0  0  0  0  0  0
   32.6951   13.8086    8.9062 O   0  0  0  0  0  0  0  0  0  0  0  0
   31.9231   11.9659    7.6815 C   0  0  0  0  0  0  0  0  0  0  0  0
   31.0367   10.8434    7.9392 C   0  0  0  0  0  0  0  0  0  0  0  0
   29.9407   11.1568    8.6085 O   0  0  0  0  0  0  0  0  0  0  0  0
   31.1382    9.6388    7.6050 N   0  0  0  0  0  0  0  0  0  0  0  0
   32.2313    9.3541    6.8740 C   0  0  0  0  0  0  0  0  0  0  0  0
   32.6063    8.2292    6.8081 O   0  0  0  0  0  0  0  0  0  0  0  0
   32.8826   10.3973    6.2426 N   0  0  0  0  0  0  0  0  0  0  0  0
   32.8623   11.6724    6.7634 C   0  0  0  0  0  0  0  0  0  0  0  0
   33.8690   12.4773    6.2201 C   0  0  0  0  0  0  0  0  0  0  0  0
   34.6500   11.5660    5.2530 C   0  0  0  0  0  0  0  0  0  0  0  0
   33.9598   10.2113    5.2895 C   0  0  0  0  0  0  0  0  0  0  0  0
  2  1  1  1
  2  3  1  0
  3  4  1  0
  4  5  1  0
  5  6  2  0
  6  7  1  0
  7  8  2  0
  8  9  1  0
  9 10  2  0
 10 11  1  0
 11 12  1  0
 12 13  2  0
 12 14  1  0
 14 15  1  0
 15 16  1  0
 15 17  2  0
 17 18  1  0
 18 19  2  0
 18 20  1  0
 20 21  1  0
 21 22  1  0
 22 23  1  0
 23 24  1  0
 11  2  1  0
 21 14  2  0
 10  5  1  0
 24 20  1  0
A    1
 C1 
A    2
 C2 
A    3
 C3 
A    4
 O1 
A    5
 C4 
A    6
 C5 
A    7
 C6 
A    8
 C7 
A    9
 N1 
A   10
 C8 
A   11
 N2 
A   12
 C9 
A   13
 O2 
A   14
 C10
A   15
 C11
A   16
 O3 
A   17
 N3 
A   18
 C12
A   19
 O4 
A   20
 N4 
A   21
 C13
A   22
 C14
A   23
 C15
A   24
 C16
M  END
>  <ref_pdb>  (34) 
Ax0310a

>  <ref_mols>  (34) 
Ax0446a,Ax1080a,Ax0812a,Ax0719a,Ax1140a,Ax0528a,Ax0310a

>  <original SMILES>  (34) 
C[C@@H]1COc2cccnc2N1C(=O)c1c(O)nc(=O)n2c1CCC2

>  <rationale>  (34) 
info info set:screening_whole;hbond:S87+G127+E106; hydroph_interaction:P107+Y89+Y90+E88; 

>  <experiment>  (34) 
screening_whole

>  <cluster_label>  (34) 
6

>  <cluster_rank>  (34) 
2

>  <N_interactions>  (34) 
7

>  <∆∆G>  (34) 
-3.616466

>  <comRMSD>  (34) 
0.697708

>  <ROCS_TanimotoCombo>  (34) 
0.461

>  <ROCS_ShapeTanimoto>  (34) 
0.263

>  <ROCS_ColorTanimoto>  (34) 
0.198

$$$$
Z2394925055
     RDKit          3D

 19 20  0  0  0  0  0  0  0  0999 V2000
   34.8998    9.2298    4.1093 C   0  0  0  0  0  0  0  0  0  0  0  0
   34.2967    8.8137    5.3549 N   0  0  0  0  0  0  0  0  0  0  0  0
   33.3468    9.5991    6.0142 C   0  0  0  0  0  0  0  0  0  0  0  0
   33.4138   11.1001    5.9683 C   0  0  0  0  0  0  0  0  0  0  0  0
   32.3851   12.0609    6.6903 C   0  0  0  0  0  0  0  0  0  0  0  0
   31.3753   11.0427    7.3929 C   0  0  0  0  0  0  0  0  0  0  0  0
   30.3475   11.6680    8.0994 N   0  0  0  0  0  0  0  0  0  0  0  0
   29.1322   11.0855    8.3768 C   0  0  0  0  0  0  0  0  0  0  0  0
   28.8586    9.9094    8.4443 O   0  0  0  0  0  0  0  0  0  0  0  0
   27.9602   12.0167    8.6681 C   0  0  0  0  0  0  0  0  0  0  0  0
   28.4040   13.4738    8.5984 C   0  0  0  0  0  0  0  0  0  0  0  0
   28.2134   14.3038    7.3659 C   0  0  0  0  0  0  0  0  0  0  0  0
   27.5265   13.3918    6.3470 C   0  0  0  0  0  0  0  0  0  0  0  0
   28.6323   15.5456    7.3795 N   0  0  0  0  0  0  0  0  0  0  0  0
   29.1480   15.7173    8.6366 O   0  0  0  0  0  0  0  0  0  0  0  0
   29.0706   14.5875    9.4157 C   0  0  0  0  0  0  0  0  0  0  0  0
   29.6216   14.6911   10.7899 C   0  0  0  0  0  0  0  0  0  0  0  0
   31.4797    9.6565    7.3226 C   0  0  0  0  0  0  0  0  0  0  0  0
   32.4123    8.9469    6.6729 N   0  0  0  0  0  0  0  0  0  0  0  0
  1  2  1  0
  2  3  1  0
  3  4  2  0
  4  5  1  0
  5  6  2  0
  6  7  1  0
  7  8  1  0
  8  9  2  0
  8 10  1  0
 10 11  1  0
 11 12  1  0
 12 13  1  0
 12 14  2  0
 14 15  1  0
 15 16  1  0
 16 17  1  0
  6 18  1  0
 18 19  2  0
 19  3  1  0
 16 11  2  0
A    1
 C1 
A    2
 N1 
A    3
 C2 
A    4
 C3 
A    5
 C4 
A    6
 C5 
A    7
 N2 
A    8
 C6 
A    9
 O1 
A   10
 C7 
A   11
 C8 
A   12
 C9 
A   13
 C10
A   14
 N3 
A   15
 O2 
A   16
 C11
A   17
 C12
A   18
 C13
A   19
 N4 
M  END
>  <ref_pdb>  (35) 
Ax0310a

>  <ref_mols>  (35) 
Ax0446a,Ax1080a,Ax0812a,Ax0719a,Ax1140a,Ax0528a,Ax0310a

>  <original SMILES>  (35) 
CNc1ccc(NC(=O)Cc2c(C)noc2C)cn1

>  <rationale>  (35) 
info info set:screening_pocket;hbond:S87+S105+C110; hydroph_interaction:P107+Y89+Y90; 

>  <experiment>  (35) 
screening_pocket

>  <cluster_label>  (35) 
16

>  <cluster_rank>  (35) 
2

>  <N_interactions>  (35) 
6

>  <∆∆G>  (35) 
-8.210313

>  <comRMSD>  (35) 
0.456109

>  <ROCS_TanimotoCombo>  (35) 
0.665

>  <ROCS_ShapeTanimoto>  (35) 
0.232

>  <ROCS_ColorTanimoto>  (35) 
0.432

$$$$
EN300_45481960
     RDKit          3D

 19 19  0  0  0  0  0  0  0  0999 V2000
   32.3565    9.9340    6.7654 C   0  0  0  0  0  0  0  0  0  0  0  0
   32.4234   11.4493    7.0255 C   0  0  0  0  0  0  0  0  0  0  0  0
   31.0679   11.9632    7.5201 C   0  0  0  0  0  0  0  0  0  0  0  0
   32.7772   12.1082    5.6977 C   0  0  0  0  0  0  0  0  0  0  0  0
   33.5513   11.8683    7.8702 O   0  0  0  0  0  0  0  0  0  0  0  0
   33.7533   13.1249    8.4312 C   0  0  0  0  0  0  0  0  0  0  0  0
   32.8534   13.8851    8.6815 O   0  0  0  0  0  0  0  0  0  0  0  0
   35.2556   13.4035    8.7513 C   0  0  0  0  0  0  0  0  0  0  0  0
   35.5694   12.5208    9.9253 O   0  0  0  0  0  0  0  0  0  0  0  0
   36.6594   12.2218   10.8044 C   0  0  0  0  0  0  0  0  0  0  0  0
   36.3903   11.0732   11.5820 C   0  0  0  0  0  0  0  0  0  0  0  0
   37.2126   10.5422   12.5437 C   0  0  0  0  0  0  0  0  0  0  0  0
   38.3995   11.1464   12.7860 C   0  0  0  0  0  0  0  0  0  0  0  0
   38.7328   12.2704   12.0455 C   0  0  0  0  0  0  0  0  0  0  0  0
   40.3014   12.9533   12.4417 S   0  0  0  0  0  6  0  0  0  0  0  0
   41.3118   11.7147   11.9059 N   0  0  0  0  0  0  0  0  0  0  0  0
   40.5516   14.0680   11.5608 O   0  0  0  0  0  0  0  0  0  0  0  0
   40.4145   13.0140   13.8795 O   0  0  0  0  0  0  0  0  0  0  0  0
   37.8878   12.8369   11.0474 C   0  0  0  0  0  0  0  0  0  0  0  0
  1  2  1  0
  2  3  1  0
  2  4  1  0
  2  5  1  0
  5  6  1  0
  6  7  2  0
  6  8  1  0
  8  9  1  0
  9 10  1  0
 10 11  2  0
 11 12  1  0
 12 13  2  0
 13 14  1  0
 14 15  1  0
 15 16  1  0
 15 17  2  0
 15 18  2  0
 14 19  2  0
 19 10  1  0
A    1
 C1 
A    2
 C2 
A    3
 C3 
A    4
 C4 
A    5
 O1 
A    6
 C5 
A    7
 O2 
A    8
 C6 
A    9
 O3 
A   10
 C7 
A   11
 C8 
A   12
 C9 
A   13
 C10
A   14
 C11
A   15
 S1 
A   16
 N1 
A   17
 O4 
A   18
 O5 
A   19
 C12
M  END
>  <ref_pdb>  (36) 
Ax0310a

>  <ref_mols>  (36) 
Ax0446a,Ax1080a,Ax0812a,Ax0719a,Ax1140a,Ax0528a,Ax0310a

>  <original SMILES>  (36) 
CC(C)(C)OC(=O)COc1cccc(S(N)(=O)=O)c1

>  <rationale>  (36) 
info info set:sulfonimide_whole;hbond:S87+G127; hydroph_interaction:P107+V84+L131; 

>  <experiment>  (36) 
sulfonimide_whole

>  <cluster_label>  (36) 
17

>  <cluster_rank>  (36) 
2

>  <N_interactions>  (36) 
6

>  <∆∆G>  (36) 
-4.665717

>  <comRMSD>  (36) 
0.972646

>  <ROCS_TanimotoCombo>  (36) 
0.368

>  <ROCS_ShapeTanimoto>  (36) 
0.251

>  <ROCS_ColorTanimoto>  (36) 
0.118

$$$$
Z56881412
     RDKit          3D

 25 29  0  0  0  0  0  0  0  0999 V2000
   30.2640    8.5962    8.1720 C   0  0  0  0  0  0  0  0  0  0  0  0
   31.2851    9.4907    7.5427 C   0  0  0  0  0  0  0  0  0  0  0  0
   31.0646   10.7930    8.0611 N   0  0  0  0  0  0  0  0  0  0  0  0
   31.9420   11.7067    7.6325 C   0  0  0  0  0  0  0  0  0  0  0  0
   31.6752   12.8405    8.2088 N   0  0  0  0  0  0  0  0  0  0  0  0
   32.5762   13.5362    8.9145 N   0  0  0  0  0  0  0  0  0  0  0  0
   31.9071   14.5205    9.3978 N   0  0  0  0  0  0  0  0  0  0  0  0
   30.6388   14.3685    8.9507 C   0  0  0  0  0  0  0  0  0  0  0  0
   29.5524   15.2934    9.3346 C   0  0  0  0  0  0  0  0  0  0  0  0
   28.1517   14.9249    8.7117 C   0  0  0  0  0  0  0  0  0  0  0  0
   27.0544   15.7688    9.1227 C   0  0  0  0  0  0  0  0  0  0  0  0
   28.1907   13.6673    7.7185 C   0  0  0  0  0  0  0  0  0  0  0  0
   27.0000   13.1739    6.9194 C   0  0  0  0  0  0  0  0  0  0  0  0
   29.2729   12.9124    7.4826 C   0  0  0  0  0  0  0  0  0  0  0  0
   30.5061   13.3293    8.1703 C   0  0  0  0  0  0  0  0  0  0  0  0
   33.0218   11.4306    6.7093 C   0  0  0  0  0  0  0  0  0  0  0  0
   34.0681   12.2478    6.1531 C   0  0  0  0  0  0  0  0  0  0  0  0
   34.9359   11.5053    5.2931 C   0  0  0  0  0  0  0  0  0  0  0  0
   34.3991    9.8718    5.1850 S   0  0  0  0  0  0  0  0  0  0  0  0
   33.0847   10.1197    6.2789 C   0  0  0  0  0  0  0  0  0  0  0  0
   32.2433    9.1163    6.6628 N   0  0  0  0  0  0  0  0  0  0  0  0
   36.1185   12.1290    4.6388 C   0  0  0  0  0  0  0  0  0  0  0  0
   36.6207   13.1514    5.4698 C   0  0  0  0  0  0  0  0  0  0  0  0
   35.6732   14.0422    6.2969 C   0  0  0  0  0  0  0  0  0  0  0  0
   34.3213   13.7119    6.4000 C   0  0  0  0  0  0  0  0  0  0  0  0
  1  2  1  0
  2  3  2  0
  3  4  1  0
  4  5  1  0
  5  6  1  0
  6  7  2  0
  7  8  1  0
  8  9  2  0
  9 10  1  0
 10 11  1  0
 10 12  2  0
 12 13  1  0
 12 14  1  0
 14 15  2  0
  4 16  2  0
 16 17  1  0
 17 18  2  0
 18 19  1  0
 19 20  1  0
 20 21  2  0
 18 22  1  0
 22 23  1  0
 23 24  1  0
 24 25  1  0
 21  2  1  0
 15  5  1  0
 20 16  1  0
 15  8  1  0
 25 17  1  0
A    1
 C1 
A    2
 C2 
A    3
 N1 
A    4
 C3 
A    5
 N2 
A    6
 N3 
A    7
 N4 
A    8
 C4 
A    9
 C5 
A   10
 C6 
A   11
 C7 
A   12
 C8 
A   13
 C9 
A   14
 C10
A   15
 C11
A   16
 C12
A   17
 C13
A   18
 C14
A   19
 S1 
A   20
 C15
A   21
 N5 
A   22
 C16
A   23
 C17
A   24
 C18
A   25
 C19
M  END
>  <ref_pdb>  (37) 
Ax0310a

>  <ref_mols>  (37) 
Ax0446a,Ax1080a,Ax0812a,Ax0719a,Ax1140a,Ax0528a,Ax0310a

>  <original SMILES>  (37) 
Cc1nc(-n2nnc3cc(C)c(C)cc32)c2c3c(sc2n1)CCCC3

>  <rationale>  (37) 
info info set:screening_whole;hbond:S87+S105+G127; hydroph_interaction:Y89+Y90+V124+H21+E85; 

>  <experiment>  (37) 
screening_whole

>  <cluster_label>  (37) 
9

>  <cluster_rank>  (37) 
2

>  <N_interactions>  (37) 
9

>  <∆∆G>  (37) 
-5.629875

>  <comRMSD>  (37) 
0.818349

>  <ROCS_TanimotoCombo>  (37) 
0.463

>  <ROCS_ShapeTanimoto>  (37) 
0.271

>  <ROCS_ColorTanimoto>  (37) 
0.191

$$$$
EN300_26666437
     RDKit          3D

 25 27  0  0  0  0  0  0  0  0999 V2000
   33.5305   15.0909    9.9116 C   0  0  0  0  0  0  0  0  0  0  0  0
   34.4208   14.0153    9.2801 C   0  0  0  0  0  0  0  0  0  0  0  0
   35.0537   14.5077    8.0235 C   0  0  0  0  0  0  0  0  0  0  0  0
   35.6241   13.4109   10.0791 C   0  0  0  0  0  0  0  0  0  0  0  0
   33.4384   13.0310    8.9995 O   0  0  0  0  0  0  0  0  0  0  0  0
   32.2157   13.6387    8.9022 C   0  0  0  0  0  0  0  0  0  0  0  0
   31.9618   14.6857    9.4802 O   0  0  0  0  0  0  0  0  0  0  0  0
   31.2637   12.9648    8.0803 N   0  0  0  0  0  0  0  0  0  0  0  0
   30.0123   13.4120    7.9240 C   0  0  0  0  0  0  0  0  0  0  0  0
   29.2363   12.9867    6.6875 C   0  0  0  0  0  0  0  0  0  0  0  0
   27.8123   13.5318    6.5464 C   0  0  0  0  0  0  0  0  0  0  0  0
   27.3961   14.4431    7.7104 C   0  0  0  0  0  0  0  0  0  0  0  0
   28.1727   14.7634    8.7861 C   0  0  0  0  0  0  0  0  0  0  0  0
   29.4552   14.2599    8.8953 C   0  0  0  0  0  0  0  0  0  0  0  0
   31.5591   11.6371    7.6950 C   0  0  0  0  0  0  0  0  0  0  0  0
   30.8277   10.6741    8.2630 N   0  0  0  0  0  0  0  0  0  0  0  0
   31.1153    9.4389    7.9216 C   0  0  0  0  0  0  0  0  0  0  0  0
   30.1879    8.1820    8.6911 S   0  0  0  0  0  0  0  0  0  0  0  0
   32.0528    9.0749    7.0541 N   0  0  0  0  0  0  0  0  0  0  0  0
   32.7663   10.0447    6.4970 C   0  0  0  0  0  0  0  0  0  0  0  0
   33.7436    9.7008    5.6040 C   0  0  0  0  0  0  0  0  0  0  0  0
   34.6486   10.7256    4.9006 C   0  0  0  0  0  0  0  0  0  0  0  0
   34.3967   12.0645    5.2418 C   0  0  0  0  0  0  0  0  0  0  0  0
   33.4327   12.4136    6.1165 C   0  0  0  0  0  0  0  0  0  0  0  0
   32.5785   11.3792    6.7756 C   0  0  0  0  0  0  0  0  0  0  0  0
  1  2  1  0
  2  3  1  0
  2  4  1  0
  2  5  1  0
  5  6  1  0
  6  7  2  0
  6  8  1  0
  8  9  1  0
  9 10  2  0
 10 11  1  0
 11 12  2  0
 12 13  1  0
 13 14  2  0
  8 15  1  0
 15 16  2  0
 16 17  1  0
 17 18  1  0
 17 19  2  0
 19 20  1  0
 20 21  2  0
 21 22  1  0
 22 23  2  0
 23 24  1  0
 24 25  2  0
 14  9  1  0
 25 15  1  0
 25 20  1  0
A    1
 C1 
A    2
 C2 
A    3
 C3 
A    4
 C4 
A    5
 O1 
A    6
 C5 
A    7
 O2 
A    8
 N1 
A    9
 C6 
A   10
 C7 
A   11
 C8 
A   12
 C9 
A   13
 C10
A   14
 C11
A   15
 C12
A   16
 N2 
A   17
 C13
A   18
 S1 
A   19
 N3 
A   20
 C14
A   21
 C15
A   22
 C16
A   23
 C17
A   24
 C18
A   25
 C19
M  END
>  <ref_pdb>  (38) 
Ax0310a

>  <ref_mols>  (38) 
Ax0446a,Ax1080a,Ax0812a,Ax0719a,Ax1140a,Ax0528a,Ax0310a

>  <original SMILES>  (38) 
CC(C)(C)OC(=O)N(c1ccccc1)c1nc(S)nc2ccccc12

>  <rationale>  (38) 
info info set:bb_whole;hbond:S87+S105+G127; hydroph_interaction:P107+Y89+Y90+V84; 

>  <experiment>  (38) 
bb_whole

>  <cluster_label>  (38) 
3

>  <cluster_rank>  (38) 
2

>  <N_interactions>  (38) 
7

>  <∆∆G>  (38) 
-11.511835

>  <comRMSD>  (38) 
0.6428

>  <ROCS_TanimotoCombo>  (38) 
0.423

>  <ROCS_ShapeTanimoto>  (38) 
0.272

>  <ROCS_ColorTanimoto>  (38) 
0.152

$$$$
EN300_107669
     RDKit          3D

 16 16  0  0  0  0  0  0  0  0999 V2000
   30.1303    8.9851    8.8381 C   0  0  0  0  0  0  0  0  0  0  0  0
   30.9913    9.9153    7.9671 C   0  0  0  0  0  0  0  0  0  0  0  0
   31.9429    8.9812    7.2524 C   0  0  0  0  0  0  0  0  0  0  0  0
   32.9908    9.5412    6.3015 C   0  0  0  0  0  0  0  0  0  0  0  0
   32.9908   11.0631    6.1529 C   0  0  0  0  0  0  0  0  0  0  0  0
   34.1952   11.7943    5.1013 S   0  0  0  0  0  6  0  0  0  0  0  0
   33.4400   11.7651    3.6064 N   0  0  0  0  0  0  0  0  0  0  0  0
   35.3064   10.8817    4.9911 O   0  0  0  0  0  0  0  0  0  0  0  0
   34.3385   13.1852    5.4528 O   0  0  0  0  0  0  0  0  0  0  0  0
   32.0595   11.8649    6.8415 C   0  0  0  0  0  0  0  0  0  0  0  0
   31.0118   11.3119    7.7809 C   0  0  0  0  0  0  0  0  0  0  0  0
   30.1482   12.1281    8.4103 N   0  0  0  0  0  0  0  0  0  0  0  0
   30.3579   13.4010    8.9264 C   0  0  0  0  0  0  0  0  0  0  0  0
   31.5873   14.1513    9.0949 O   0  0  0  0  0  0  0  0  0  0  0  0
   29.1474   14.1910    9.4107 C   0  0  0  0  0  0  0  0  0  0  0  0
   28.3093   14.9817    8.0658 Cl  0  0  0  0  0  0  0  0  0  0  0  0
  1  2  1  0
  2  3  2  0
  3  4  1  0
  4  5  2  0
  5  6  1  0
  6  7  1  0
  6  8  2  0
  6  9  2  0
  5 10  1  0
 10 11  2  0
 11 12  1  0
 12 13  1  0
 13 14  2  0
 13 15  1  0
 15 16  1  0
 11  2  1  0
A    1
 C1 
A    2
 C2 
A    3
 C3 
A    4
 C4 
A    5
 C5 
A    6
 S1 
A    7
 N1 
A    8
 O1 
A    9
 O2 
A   10
 C6 
A   11
 C7 
A   12
 N2 
A   13
 C8 
A   14
 O3 
A   15
 C9 
A   16
CL1 
M  END
>  <ref_pdb>  (39) 
Ax0310a

>  <ref_mols>  (39) 
Ax0446a,Ax1080a,Ax0812a,Ax0719a,Ax1140a,Ax0528a,Ax0310a

>  <original SMILES>  (39) 
Cc1ccc(S(N)(=O)=O)cc1NC(=O)CCl

>  <rationale>  (39) 
info info set:sulfonimide_whole;halogenbond:E88; hbond:S87; hydroph_interaction:V124; 

>  <experiment>  (39) 
sulfonimide_whole

>  <cluster_label>  (39) 
7

>  <cluster_rank>  (39) 
2

>  <N_interactions>  (39) 
3

>  <∆∆G>  (39) 
-8.940783

>  <comRMSD>  (39) 
0.405766

>  <ROCS_TanimotoCombo>  (39) 
0.357

>  <ROCS_ShapeTanimoto>  (39) 
0.217

>  <ROCS_ColorTanimoto>  (39) 
0.14

$$$$
Z3714214241
     RDKit          3D

 17 18  0  0  0  0  0  0  0  0999 V2000
   34.7396    9.2064    4.2094 C   0  0  0  0  0  0  0  0  0  0  0  0
   34.1245    8.8980    5.4044 N   0  0  0  0  0  0  0  0  0  0  0  0
   33.1544    9.6002    6.1393 C   0  0  0  0  0  0  0  0  0  0  0  0
   33.0970   10.9809    6.1023 C   0  0  0  0  0  0  0  0  0  0  0  0
   32.1525   11.6963    6.8263 C   0  0  0  0  0  0  0  0  0  0  0  0
   31.2298   11.0176    7.6166 C   0  0  0  0  0  0  0  0  0  0  0  0
   30.2561   11.7289    8.3507 N   0  0  0  0  0  0  0  0  0  0  0  0
   29.5715   12.8676    7.9109 C   0  0  0  0  0  0  0  0  0  0  0  0
   29.6926   13.0934    6.5889 N   0  0  0  0  0  0  0  0  0  0  0  0
   29.0631   14.1461    6.0954 C   0  0  0  0  0  0  0  0  0  0  0  0
   28.3424   14.9887    6.8025 N   0  0  0  0  0  0  0  0  0  0  0  0
   28.2471   14.7568    8.0828 C   0  0  0  0  0  0  0  0  0  0  0  0
   27.4403   15.6703    9.0302 C   0  0  0  0  0  0  0  0  0  0  0  0
   28.7987   13.7705    8.6920 C   0  0  0  0  0  0  0  0  0  0  0  0
   28.2610   14.0396   10.4823 Br  0  0  0  0  0  0  0  0  0  0  0  0
   31.3400    9.6296    7.6109 C   0  0  0  0  0  0  0  0  0  0  0  0
   32.2660    8.9281    6.9026 N   0  0  0  0  0  0  0  0  0  0  0  0
  1  2  1  0
  2  3  1  0
  3  4  2  0
  4  5  1  0
  5  6  2  0
  6  7  1  0
  7  8  1  0
  8  9  2  0
  9 10  1  0
 10 11  2  0
 11 12  1  0
 12 13  1  0
 12 14  2  0
 14 15  1  0
  6 16  1  0
 16 17  2  0
 17  3  1  0
 14  8  1  0
A    1
 C1 
A    2
 N1 
A    3
 C2 
A    4
 C3 
A    5
 C4 
A    6
 C5 
A    7
 N2 
A    8
 C6 
A    9
 N3 
A   10
 C7 
A   11
 N4 
A   12
 C8 
A   13
 C9 
A   14
 C10
A   15
BR1 
A   16
 C11
A   17
 N5 
M  END
>  <ref_pdb>  (40) 
Ax0310a

>  <ref_mols>  (40) 
Ax0446a,Ax1080a,Ax0812a,Ax0719a,Ax1140a,Ax0528a,Ax0310a

>  <original SMILES>  (40) 
CNc1ccc(Nc2ncnc(C)c2Br)cn1

>  <rationale>  (40) 
info info set:screening_pocket;halogenbond:S125+D39; hbond:S105+S125; hydroph_interaction:Y89+Y90+H21; pistack:H21; 

>  <experiment>  (40) 
screening_pocket

>  <cluster_label>  (40) 
18

>  <cluster_rank>  (40) 
3

>  <N_interactions>  (40) 
8

>  <∆∆G>  (40) 
-3.191017

>  <comRMSD>  (40) 
0.567545

>  <ROCS_TanimotoCombo>  (40) 
0.628

>  <ROCS_ShapeTanimoto>  (40) 
0.229

>  <ROCS_ColorTanimoto>  (40) 
0.399

$$$$
Z2057627275
     RDKit          3D

 19 20  0  0  0  0  0  0  0  0999 V2000
   28.9133   16.7688    8.2932 C   0  0  0  0  0  0  0  0  0  0  0  0
   28.4325   15.7558    7.4777 O   0  0  0  0  0  0  0  0  0  0  0  0
   27.7600   14.9690    8.2676 C   0  0  1  0  0  0  0  0  0  0  0  0
   27.8206   13.6112    7.6712 C   0  0  0  0  0  0  0  0  0  0  0  0
   28.8542   12.9666    8.5299 C   0  0  1  0  0  0  0  0  0  0  0  0
   30.0043   12.4226    7.6682 C   0  0  0  0  0  0  0  0  0  0  0  0
   30.3853   13.1499    6.4960 O   0  0  0  0  0  0  0  0  0  0  0  0
   30.3844   11.2854    8.2662 N   0  0  0  0  0  0  0  0  0  0  0  0
   31.3416   10.7543    7.5068 C   0  0  0  0  0  0  0  0  0  0  0  0
   32.2296   11.6621    6.7135 C   0  0  0  0  0  0  0  0  0  0  0  0
   33.1941   11.0820    5.9291 C   0  0  0  0  0  0  0  0  0  0  0  0
   33.2713    9.5546    5.9449 C   0  0  0  0  0  0  0  0  0  0  0  0
   34.3462    8.9223    5.0663 C   0  0  0  0  0  0  0  0  0  0  0  0
   32.4327    8.7644    6.7026 N   0  0  0  0  0  0  0  0  0  0  0  0
   31.5145    9.4080    7.4396 C   0  0  0  0  0  0  0  0  0  0  0  0
   30.6847    8.6389    8.1820 O   0  0  0  0  0  0  0  0  0  0  0  0
   29.3772   13.8292    9.5939 N   0  0  0  0  0  0  0  0  0  0  0  0
   30.8003   14.1960    9.5495 C   0  0  0  0  0  0  0  0  0  0  0  0
   28.5173   14.9889    9.5758 C   0  0  0  0  0  0  0  0  0  0  0  0
  1  2  1  0
  3  2  1  6
  3  4  1  0
  4  5  1  0
  5  6  1  6
  6  7  2  0
  6  8  1  0
  8  9  1  0
  9 10  2  0
 10 11  1  0
 11 12  2  0
 12 13  1  0
 12 14  1  0
 14 15  2  0
 15 16  1  0
  5 17  1  0
 17 18  1  0
 17 19  1  0
 19  3  1  0
 15  9  1  0
A    1
 C1 
A    2
 O1 
A    3
 C2 
A    4
 C3 
A    5
 C4 
A    6
 C5 
A    7
 O2 
A    8
 N1 
A    9
 C6 
A   10
 C7 
A   11
 C8 
A   12
 C9 
A   13
 C10
A   14
 N2 
A   15
 C11
A   16
 O3 
A   17
 N3 
A   18
 C12
A   19
 C13
M  END
>  <ref_pdb>  (41) 
Ax0310a

>  <ref_mols>  (41) 
Ax0446a,Ax1080a,Ax0812a,Ax0719a,Ax1140a,Ax0528a,Ax0310a

>  <original SMILES>  (41) 
CO[C@H]1C[C@@H](C(=O)Nc2ccc(C)nc2O)N(C)C1

>  <rationale>  (41) 
info info set:screening_pocket;hbond:S87+S105+S125; saltbridge:D39; 

>  <experiment>  (41) 
screening_pocket

>  <cluster_label>  (41) 
19

>  <cluster_rank>  (41) 
3

>  <N_interactions>  (41) 
4

>  <∆∆G>  (41) 
-2.620226

>  <comRMSD>  (41) 
0.55574

>  <ROCS_TanimotoCombo>  (41) 
0.631

>  <ROCS_ShapeTanimoto>  (41) 
0.248

>  <ROCS_ColorTanimoto>  (41) 
0.383

$$$$
EN300_6511692
     RDKit          3D

 15 15  0  0  0  0  0  0  0  0999 V2000
   34.8319    7.1539    3.3327 C   0  0  0  0  0  0  0  0  0  0  0  0
   35.3871    8.0817    4.4235 C   0  0  0  0  0  0  0  0  0  0  0  0
   34.5769    9.2892    4.4446 N   0  0  0  0  0  0  0  0  0  0  0  0
   33.5981    9.7043    5.3930 C   0  0  0  0  0  0  0  0  0  0  0  0
   32.9133    8.9133    6.2684 N   0  0  0  0  0  0  0  0  0  0  0  0
   31.9660    9.4749    7.0910 C   0  0  0  0  0  0  0  0  0  0  0  0
   31.6410   10.9268    7.0862 C   0  0  0  0  0  0  0  0  0  0  0  0
   30.5770   11.3667    8.0260 C   0  0  0  0  0  0  0  0  0  0  0  0
   30.1582   10.6262    8.8749 O   0  0  0  0  0  0  0  0  0  0  0  0
   30.2167   12.6558    7.7263 O   0  0  0  0  0  0  0  0  0  0  0  0
   29.1887   13.3071    8.5082 C   0  0  0  0  0  0  0  0  0  0  0  0
   28.4329   14.3588    7.6598 C   0  0  0  0  0  0  0  0  0  0  0  0
   32.3101   11.7575    6.2438 C   0  0  0  0  0  0  0  0  0  0  0  0
   33.3604   11.2151    5.3100 C   0  0  0  0  0  0  0  0  0  0  0  0
   34.2152   12.2407    4.2225 Cl  0  0  0  0  0  0  0  0  0  0  0  0
  1  2  1  0
  2  3  1  0
  3  4  1  0
  4  5  2  0
  5  6  1  0
  6  7  2  0
  7  8  1  0
  8  9  2  0
  8 10  1  0
 10 11  1  0
 11 12  1  0
  7 13  1  0
 13 14  2  0
 14 15  1  0
 14  4  1  0
A    1
 C1 
A    2
 C2 
A    3
 N1 
A    4
 C3 
A    5
 N2 
A    6
 C4 
A    7
 C5 
A    8
 C6 
A    9
 O1 
A   10
 O2 
A   11
 C7 
A   12
 C8 
A   13
 C9 
A   14
 C10
A   15
CL1 
M  END
>  <ref_pdb>  (42) 
Ax0310a

>  <ref_mols>  (42) 
Ax0446a,Ax1080a,Ax0812a,Ax0719a,Ax1140a,Ax0528a,Ax0310a

>  <original SMILES>  (42) 
CCNc1ncc(C(=O)OCC)cc1Cl

>  <rationale>  (42) 
info info set:bb_densepocket2;hydroph_interaction:P107+E106; 

>  <experiment>  (42) 
bb_densepocket2

>  <cluster_label>  (42) 
4

>  <cluster_rank>  (42) 
3

>  <N_interactions>  (42) 
2

>  <∆∆G>  (42) 
-3.906067

>  <comRMSD>  (42) 
0.909196

>  <ROCS_TanimotoCombo>  (42) 
0.63

>  <ROCS_ShapeTanimoto>  (42) 
0.234

>  <ROCS_ColorTanimoto>  (42) 
0.397

$$$$
Z8820654813
     RDKit          3D

 20 22  0  0  0  0  0  0  0  0999 V2000
   28.3528   14.1792    5.2413 C   0  0  0  0  0  0  0  0  0  0  0  0
   28.4278   15.0278    6.3796 O   0  0  0  0  0  0  0  0  0  0  0  0
   28.0287   14.4039    7.4572 C   0  0  0  0  0  0  0  0  0  0  0  0
   26.8642   14.5551    8.4451 C   0  0  0  0  0  0  0  0  0  0  0  0
   26.7332   13.6014    9.6373 C   0  0  0  0  0  0  0  0  0  0  0  0
   25.6621   13.5480   10.7221 C   0  0  0  0  0  0  0  0  0  0  0  0
   27.6274   12.7091    9.7667 N   0  0  0  0  0  0  0  0  0  0  0  0
   28.6004   12.6071    8.8689 C   0  0  0  0  0  0  0  0  0  0  0  0
   28.8296   13.4030    7.7480 C   0  0  0  0  0  0  0  0  0  0  0  0
   30.0580   12.8513    7.1046 C   0  0  0  0  0  0  0  0  0  0  0  0
   30.2758   11.6024    7.7895 N   0  0  0  0  0  0  0  0  0  0  0  0
   31.2134   10.7905    7.2476 C   0  0  0  0  0  0  0  0  0  0  0  0
   31.3696    9.3080    7.5578 C   0  0  0  0  0  0  0  0  0  0  0  0
   32.3332    8.5730    6.9344 N   0  0  0  0  0  0  0  0  0  0  0  0
   33.1567    9.2649    5.9963 C   0  0  0  0  0  0  0  0  0  0  0  0
   34.1877    8.7526    5.2268 N   0  0  0  0  0  0  0  0  0  0  0  0
   34.7260    9.7618    4.4590 C   0  0  0  0  0  0  0  0  0  0  0  0
   34.0109   10.8789    4.7686 C   0  0  0  0  0  0  0  0  0  0  0  0
   33.0480   10.5938    5.7017 C   0  0  0  0  0  0  0  0  0  0  0  0
   32.0796   11.3899    6.3183 C   0  0  0  0  0  0  0  0  0  0  0  0
  1  2  1  0
  2  3  1  0
  3  4  2  0
  4  5  1  0
  5  6  1  0
  5  7  2  0
  7  8  1  0
  8  9  2  0
  9 10  1  0
 10 11  1  0
 11 12  1  0
 12 13  2  0
 13 14  1  0
 14 15  2  0
 15 16  1  0
 16 17  1  0
 17 18  2  0
 18 19  1  0
 19 20  2  0
  9  3  1  0
 20 12  1  0
 19 15  1  0
A    1
 C1 
A    2
 O1 
A    3
 C2 
A    4
 C3 
A    5
 C4 
A    6
 C5 
A    7
 N1 
A    8
 C6 
A    9
 C7 
A   10
 C8 
A   11
 N2 
A   12
 C9 
A   13
 C10
A   14
 N3 
A   15
 C11
A   16
 N4 
A   17
 C12
A   18
 C13
A   19
 C14
A   20
 C15
M  END
>  <ref_pdb>  (43) 
Ax0310a

>  <ref_mols>  (43) 
Ax0446a,Ax1080a,Ax0812a,Ax0719a,Ax1140a,Ax0528a,Ax0310a

>  <original SMILES>  (43) 
COc1cc(C)ncc1CNc1cnc2[nH]ccc2c1

>  <rationale>  (43) 
info info set:screening_pocket;hbond:S105+S125; hydroph_interaction:P107+Y89+N19; pistack:Y90; 

>  <experiment>  (43) 
screening_pocket

>  <cluster_label>  (43) 
13

>  <cluster_rank>  (43) 
3

>  <N_interactions>  (43) 
6

>  <∆∆G>  (43) 
-0.411458

>  <comRMSD>  (43) 
0.737383

>  <ROCS_TanimotoCombo>  (43) 
0.633

>  <ROCS_ShapeTanimoto>  (43) 
0.241

>  <ROCS_ColorTanimoto>  (43) 
0.393

$$$$
Z910841134
     RDKit          3D

 16 16  0  0  0  0  0  0  0  0999 V2000
   28.0742   14.2312    8.9555 C   0  0  0  0  0  0  0  0  0  0  0  0
   29.2432   14.5463    8.0888 C   0  0  0  0  0  0  0  0  0  0  0  0
   29.8160   13.2156    7.5223 C   0  0  0  0  0  0  0  0  0  0  0  0
   29.4178   12.7483    6.2770 O   0  0  0  0  0  0  0  0  0  0  0  0
   30.7237   12.5688    8.2587 N   0  0  0  0  0  0  0  0  0  0  0  0
   31.3612   13.4799    8.9895 C   0  0  0  0  0  0  0  0  0  0  0  0
   31.4720   11.4948    7.6714 C   0  0  0  0  0  0  0  0  0  0  0  0
   30.9554   10.1012    7.7391 C   0  0  0  0  0  0  0  0  0  0  0  0
   29.8429    9.7545    8.3416 F   0  0  0  0  0  0  0  0  0  0  0  0
   31.7252    9.0684    7.1008 C   0  0  0  0  0  0  0  0  0  0  0  0
   32.9991    9.3309    6.3642 C   0  0  0  0  0  0  0  0  0  0  0  0
   33.4307   10.6471    6.3641 C   0  0  0  0  0  0  0  0  0  0  0  0
   32.7090   11.6829    7.0057 C   0  0  0  0  0  0  0  0  0  0  0  0
   33.3327   12.9115    6.9383 C   0  0  0  0  0  0  0  0  0  0  0  0
   33.4952   13.6500    7.9011 O   0  0  0  0  0  0  0  0  0  0  0  0
   33.7847   13.2182    5.7200 O   0  0  0  0  0  0  0  0  0  0  0  0
  1  2  1  0
  2  3  1  0
  3  4  2  0
  3  5  1  0
  5  6  1  0
  5  7  1  0
  7  8  2  0
  8  9  1  0
  8 10  1  0
 10 11  2  0
 11 12  1  0
 12 13  2  0
 13 14  1  0
 14 15  2  0
 14 16  1  0
 13  7  1  0
A    1
 C1 
A    2
 C2 
A    3
 C3 
A    4
 O1 
A    5
 N1 
A    6
 C4 
A    7
 C5 
A    8
 C6 
A    9
 F1 
A   10
 C7 
A   11
 C8 
A   12
 C9 
A   13
 C10
A   14
 C11
A   15
 O2 
A   16
 O3 
M  END
>  <ref_pdb>  (44) 
Ax0310a

>  <ref_mols>  (44) 
Ax0446a,Ax1080a,Ax0812a,Ax0719a,Ax1140a,Ax0528a,Ax0310a

>  <original SMILES>  (44) 
CCC(=O)N(C)c1c(F)cccc1C(=O)O

>  <rationale>  (44) 
info info set:3d;halogenbond:C110; hbond:G127; 

>  <experiment>  (44) 
3d

>  <cluster_label>  (44) 
2

>  <cluster_rank>  (44) 
3

>  <N_interactions>  (44) 
2

>  <∆∆G>  (44) 
-3.357941

>  <comRMSD>  (44) 
0.748709

>  <ROCS_TanimotoCombo>  (44) 
0.334

>  <ROCS_ShapeTanimoto>  (44) 
0.221

>  <ROCS_ColorTanimoto>  (44) 
0.113

$$$$
Z2060926323
     RDKit          3D

 16 17  0  0  0  0  0  0  0  0999 V2000
   30.2243   10.0231    8.5540 C   0  0  0  0  0  0  0  0  0  0  0  0
   31.2685   10.0870    7.5437 C   0  0  0  0  0  0  0  0  0  0  0  0
   31.9176    8.9487    7.2895 N   0  0  0  0  0  0  0  0  0  0  0  0
   32.8688    9.0438    6.3479 N   0  0  0  0  0  0  0  0  0  0  0  0
   32.7827   10.3579    6.0083 C   0  0  0  0  0  0  0  0  0  0  0  0
   31.8010   11.0684    6.7162 C   0  0  0  0  0  0  0  0  0  0  0  0
   31.5248   12.4204    6.5392 C   0  0  0  0  0  0  0  0  0  0  0  0
   30.3864   12.8697    6.4196 O   0  0  0  0  0  0  0  0  0  0  0  0
   32.6700   13.1853    6.5177 N   0  0  0  0  0  0  0  0  0  0  0  0
   33.1164   13.8351    5.2697 C   0  0  0  0  0  0  0  0  0  0  0  0
   34.4909   14.2660    5.6766 C   0  0  1  0  0  0  0  0  0  0  0  0
   34.4565   15.2844    6.5384 F   0  0  0  0  0  0  0  0  0  0  0  0
   34.9354   13.3221    6.5073 C   0  0  0  0  0  0  0  0  0  0  0  0
   33.8768   12.8135    7.2556 C   0  0  1  0  0  0  0  0  0  0  0  0
   33.7666   13.1978    8.5707 C   0  0  0  0  0  0  0  0  0  0  0  0
   33.5539   14.5591    8.7585 O   0  0  0  0  0  0  0  0  0  0  0  0
  1  2  1  0
  2  3  1  0
  3  4  1  0
  4  5  2  0
  5  6  1  0
  6  7  1  0
  7  8  2  0
  7  9  1  0
  9 10  1  0
 10 11  1  0
 11 12  1  1
 11 13  1  0
 13 14  1  0
 14 15  1  1
 15 16  1  0
  6  2  2  0
 14  9  1  0
A    1
 C1 
A    2
 C2 
A    3
 N1 
A    4
 N2 
A    5
 C3 
A    6
 C4 
A    7
 C5 
A    8
 O1 
A    9
 N3 
A   10
 C6 
A   11
 C7 
A   12
 F1 
A   13
 C8 
A   14
 C9 
A   15
 C10
A   16
 O2 
M  END
>  <ref_pdb>  (45) 
Ax0310a

>  <ref_mols>  (45) 
Ax0446a,Ax1080a,Ax0812a,Ax0719a,Ax1140a,Ax0528a,Ax0310a

>  <original SMILES>  (45) 
Cc1[nH]ncc1C(=O)N1C[C@@H](F)C[C@H]1CO

>  <rationale>  (45) 
info info set:3d;halogenbond:E85; hydroph_interaction:P107; 

>  <experiment>  (45) 
3d

>  <cluster_label>  (45) 
1

>  <cluster_rank>  (45) 
3

>  <N_interactions>  (45) 
2

>  <∆∆G>  (45) 
-2.826654

>  <comRMSD>  (45) 
0.923624

>  <ROCS_TanimotoCombo>  (45) 
0.335

>  <ROCS_ShapeTanimoto>  (45) 
0.2

>  <ROCS_ColorTanimoto>  (45) 
0.135

$$$$
Z4351154733
     RDKit          3D

 16 17  0  0  0  0  0  0  0  0999 V2000
   30.3910    8.8880    9.7447 C   0  0  0  0  0  0  0  0  0  0  0  0
   30.4963    8.4517    8.4653 C   0  0  0  0  0  0  0  0  0  0  0  0
   29.2248    7.8186    8.4075 C   0  0  0  0  0  0  0  0  0  0  0  0
   30.4759    9.5709    7.8162 N   0  0  0  0  0  0  0  0  0  0  0  0
   31.4849    9.9260    7.0922 C   0  0  0  0  0  0  0  0  0  0  0  0
   32.3997    9.0398    6.6292 N   0  0  0  0  0  0  0  0  0  0  0  0
   33.4033    9.4903    5.8549 C   0  0  0  0  0  0  0  0  0  0  0  0
   33.4823   10.9740    5.5423 C   0  0  0  0  0  0  0  0  0  0  0  0
   32.4148   11.8779    6.1238 C   0  0  0  0  0  0  0  0  0  0  0  0
   31.4309   11.3070    6.8911 C   0  0  0  0  0  0  0  0  0  0  0  0
   30.3344   11.9355    7.5239 N   0  0  0  0  0  0  0  0  0  0  0  0
   30.2940   13.1587    8.1090 C   0  0  0  0  0  0  0  0  0  0  0  0
   31.2027   13.9438    8.1306 O   0  0  0  0  0  0  0  0  0  0  0  0
   28.9989   13.5297    8.7904 C   0  0  0  0  0  0  0  0  0  0  0  0
   28.8081   14.6580    9.3317 C   0  0  0  0  0  0  0  0  0  0  0  0
   28.1227   14.6344    8.0596 C   0  0  0  0  0  0  0  0  0  0  0  0
  1  2  1  0
  2  3  1  0
  2  4  1  0
  4  5  1  0
  5  6  2  0
  6  7  1  0
  7  8  2  0
  8  9  1  0
  9 10  2  0
 10 11  1  0
 11 12  1  0
 12 13  2  0
 12 14  1  0
 14 15  1  0
 15 16  1  0
 10  5  1  0
 16 14  1  0
A    1
 C1 
A    2
 C2 
A    3
 C3 
A    4
 N1 
A    5
 C4 
A    6
 N2 
A    7
 C5 
A    8
 C6 
A    9
 C7 
A   10
 C8 
A   11
 N3 
A   12
 C9 
A   13
 O1 
A   14
 C10
A   15
 C11
A   16
 C12
M  END
>  <ref_pdb>  (46) 
Ax0310a

>  <ref_mols>  (46) 
Ax0446a,Ax1080a,Ax0812a,Ax0719a,Ax1140a,Ax0528a,Ax0310a

>  <original SMILES>  (46) 
CC(C)Nc1ncccc1NC(=O)C1CC1

>  <rationale>  (46) 
info info set:screening_pocket;hbond:S87+P107; hydroph_interaction:P107+Y90+D109; 

>  <experiment>  (46) 
screening_pocket

>  <cluster_label>  (46) 
11

>  <cluster_rank>  (46) 
3

>  <N_interactions>  (46) 
5

>  <∆∆G>  (46) 
-1.356348

>  <comRMSD>  (46) 
0.826773

>  <ROCS_TanimotoCombo>  (46) 
0.662

>  <ROCS_ShapeTanimoto>  (46) 
0.229

>  <ROCS_ColorTanimoto>  (46) 
0.433

$$$$
EN300_206684
     RDKit          3D

 15 15  0  0  0  0  0  0  0  0999 V2000
   38.6407   10.9880   11.5807 N   0  0  0  0  0  0  0  0  0  0  0  0
   37.7714   12.4051   11.8524 S   0  0  0  0  0  6  0  0  0  0  0  0
   36.6251   11.9645   12.6194 O   0  0  0  0  0  0  0  0  0  0  0  0
   38.6844   13.3686   12.4086 O   0  0  0  0  0  0  0  0  0  0  0  0
   37.2343   12.9215   10.2114 C   0  0  0  0  0  0  0  0  0  0  0  0
   35.8804   13.0836   10.1270 C   0  0  0  0  0  0  0  0  0  0  0  0
   35.1873   13.7121    8.8764 C   0  0  0  0  0  0  0  0  0  0  0  0
   33.8270   13.1968    8.8203 O   0  0  0  0  0  0  0  0  0  0  0  0
   33.1280   13.2124    7.5375 C   0  0  0  0  0  0  0  0  0  0  0  0
   32.5776   11.8358    7.3747 C   0  0  0  0  0  0  0  0  0  0  0  0
   33.1962   10.7612    6.5741 C   0  0  0  0  0  0  0  0  0  0  0  0
   32.6239    9.3676    6.5229 C   0  0  0  0  0  0  0  0  0  0  0  0
   31.3843    9.0610    7.3108 C   0  0  0  0  0  0  0  0  0  0  0  0
   30.7273   10.1805    8.0997 C   0  0  0  0  0  0  0  0  0  0  0  0
   31.3918   11.5448    8.0706 C   0  0  0  0  0  0  0  0  0  0  0  0
  1  2  1  0
  2  3  2  0
  2  4  2  0
  2  5  1  0
  5  6  1  0
  6  7  1  0
  7  8  1  0
  8  9  1  0
  9 10  1  0
 10 11  2  0
 11 12  1  0
 12 13  2  0
 13 14  1  0
 14 15  2  0
 15 10  1  0
A    1
 N1 
A    2
 S1 
A    3
 O1 
A    4
 O2 
A    5
 C1 
A    6
 C2 
A    7
 C3 
A    8
 O3 
A    9
 C4 
A   10
 C5 
A   11
 C6 
A   12
 C7 
A   13
 C8 
A   14
 C9 
A   15
 C10
M  END
>  <ref_pdb>  (47) 
Ax0310a

>  <ref_mols>  (47) 
Ax0446a,Ax1080a,Ax0812a,Ax0719a,Ax1140a,Ax0528a,Ax0310a

>  <original SMILES>  (47) 
NS(=O)(=O)CCCOCc1ccccc1

>  <rationale>  (47) 
info info set:sulfonimide_joint;hbond:G127+T126+G128; hydroph_interaction:V84; 

>  <experiment>  (47) 
sulfonimide_joint

>  <cluster_label>  (47) 
15

>  <cluster_rank>  (47) 
3

>  <N_interactions>  (47) 
4

>  <∆∆G>  (47) 
-6.71242

>  <comRMSD>  (47) 
0.645834

>  <ROCS_TanimotoCombo>  (47) 
0.343

>  <ROCS_ShapeTanimoto>  (47) 
0.207

>  <ROCS_ColorTanimoto>  (47) 
0.136

$$$$
Z1082767906
     RDKit          3D

 24 26  0  0  0  0  0  0  0  0999 V2000
   35.7854   11.5421    4.5337 C   0  0  0  0  0  0  0  0  0  0  0  0
   34.5001   11.2106    5.2595 C   0  0  0  0  0  0  0  0  0  0  0  0
   34.1489    9.5943    5.6821 S   0  0  0  0  0  0  0  0  0  0  0  0
   32.7272   10.0395    6.4738 C   0  0  0  0  0  0  0  0  0  0  0  0
   31.9876    9.1294    7.1171 N   0  0  0  0  0  0  0  0  0  0  0  0
   30.9036    9.6574    7.6666 C   0  0  0  0  0  0  0  0  0  0  0  0
   30.4991   10.9266    7.6044 N   0  0  0  0  0  0  0  0  0  0  0  0
   31.2926   11.8039    6.9235 C   0  0  0  0  0  0  0  0  0  0  0  0
   30.9452   13.1262    6.7639 O   0  0  0  0  0  0  0  0  0  0  0  0
   29.8372   13.5761    7.4095 C   0  0  0  0  0  0  0  0  0  0  0  0
   28.4959   13.5227    6.7559 C   0  0  0  0  0  0  0  0  0  0  0  0
   27.5290   14.0408    7.5820 C   0  0  0  0  0  0  0  0  0  0  0  0
   27.7902   14.5991    8.9742 C   0  0  0  0  0  0  0  0  0  0  0  0
   29.0606   14.5927    9.4768 C   0  0  0  0  0  0  0  0  0  0  0  0
   30.0643   14.0690    8.6598 C   0  0  0  0  0  0  0  0  0  0  0  0
   31.2956   14.0557    9.1253 O   0  0  0  0  0  0  0  0  0  0  0  0
   31.5550   15.0404   10.0565 C   0  0  0  0  0  0  0  0  0  0  0  0
   33.0081   14.8520   10.1141 C   0  0  0  0  0  0  0  0  0  0  0  0
   33.4405   13.7073    9.5391 F   0  0  0  0  0  0  0  0  0  0  0  0
   33.7036   15.8495    9.5700 F   0  0  0  0  0  0  0  0  0  0  0  0
   33.1851   14.8436   11.3888 F   0  0  0  0  0  0  0  0  0  0  0  0
   32.4766   11.3845    6.3541 C   0  0  0  0  0  0  0  0  0  0  0  0
   33.4983   12.0661    5.6637 C   0  0  0  0  0  0  0  0  0  0  0  0
   33.4641   13.5506    5.4381 C   0  0  0  0  0  0  0  0  0  0  0  0
  1  2  1  0
  2  3  1  0
  3  4  1  0
  4  5  2  0
  5  6  1  0
  6  7  2  0
  7  8  1  0
  8  9  1  0
  9 10  1  0
 10 11  2  0
 11 12  1  0
 12 13  2  0
 13 14  1  0
 14 15  2  0
 15 16  1  0
 16 17  1  0
 17 18  1  0
 18 19  1  0
 18 20  1  0
 18 21  1  0
  8 22  2  0
 22 23  1  0
 23 24  1  0
 23  2  2  0
 22  4  1  0
 15 10  1  0
A    1
 C1 
A    2
 C2 
A    3
 S1 
A    4
 C3 
A    5
 N1 
A    6
 C4 
A    7
 N2 
A    8
 C5 
A    9
 O1 
A   10
 C6 
A   11
 C7 
A   12
 C8 
A   13
 C9 
A   14
 C10
A   15
 C11
A   16
 O2 
A   17
 C12
A   18
 C13
A   19
 F1 
A   20
 F2 
A   21
 F3 
A   22
 C14
A   23
 C15
A   24
 C16
M  END
>  <ref_pdb>  (48) 
Ax0310a

>  <ref_mols>  (48) 
Ax0446a,Ax1080a,Ax0812a,Ax0719a,Ax1140a,Ax0528a,Ax0310a

>  <original SMILES>  (48) 
Cc1sc2ncnc(Oc3ccccc3OCC(F)(F)F)c2c1C

>  <rationale>  (48) 
info info set:screening_whole;halogenbond:G127; hbond:S87; hydroph_interaction:P107+Y89+Y90; 

>  <experiment>  (48) 
screening_whole

>  <cluster_label>  (48) 
14

>  <cluster_rank>  (48) 
3

>  <N_interactions>  (48) 
5

>  <∆∆G>  (48) 
-2.424555

>  <comRMSD>  (48) 
0.791127

>  <ROCS_TanimotoCombo>  (48) 
0.462

>  <ROCS_ShapeTanimoto>  (48) 
0.247

>  <ROCS_ColorTanimoto>  (48) 
0.215

$$$$
EN300_206714
     RDKit          3D

 19 20  0  0  0  0  0  0  0  0999 V2000
   35.6102   13.1811    6.3351 C   0  0  0  0  0  0  0  0  0  0  0  0
   35.0691   13.7964    7.6252 C   0  0  0  0  0  0  0  0  0  0  0  0
   34.7154   15.1476    7.1501 C   0  0  0  0  0  0  0  0  0  0  0  0
   36.0972   13.8964    8.5769 O   0  0  0  0  0  0  0  0  0  0  0  0
   35.6706   12.9183    9.5592 B   0  0  0  0  0  0  0  0  0  0  0  0
   36.7301   12.1931   10.5162 C   0  0  0  0  0  0  0  0  0  0  0  0
   36.3859   11.0278   11.4697 C   0  0  0  0  0  0  0  0  0  0  0  0
   37.2908   10.4203   12.2962 C   0  0  0  0  0  0  0  0  0  0  0  0
   38.7120   10.8991   12.2817 C   0  0  0  0  0  0  0  0  0  0  0  0
   39.0637   12.0241   11.3320 C   0  0  0  0  0  0  0  0  0  0  0  0
   40.7028   12.5513   11.2826 S   0  0  0  0  0  6  0  0  0  0  0  0
   41.5340   12.0439   12.6921 N   0  0  0  0  0  0  0  0  0  0  0  0
   41.3450   11.8910   10.1609 O   0  0  0  0  0  0  0  0  0  0  0  0
   40.7307   14.0397   11.1191 O   0  0  0  0  0  0  0  0  0  0  0  0
   38.1729   12.6606   10.4947 C   0  0  0  0  0  0  0  0  0  0  0  0
   34.2771   12.5193    9.2490 O   0  0  0  0  0  0  0  0  0  0  0  0
   33.8183   13.1430    8.3071 C   0  0  0  0  0  0  0  0  0  0  0  0
   33.0301   12.2887    7.3711 C   0  0  0  0  0  0  0  0  0  0  0  0
   32.8776   14.0773    9.0043 C   0  0  0  0  0  0  0  0  0  0  0  0
  1  2  1  0
  2  3  1  0
  2  4  1  0
  4  5  1  0
  5  6  1  0
  6  7  2  0
  7  8  1  0
  8  9  2  0
  9 10  1  0
 10 11  1  0
 11 12  1  0
 11 13  2  0
 11 14  2  0
 10 15  2  0
  5 16  1  0
 16 17  1  0
 17 18  1  0
 17 19  1  0
 17  2  1  0
 15  6  1  0
A    1
 C1 
A    2
 C2 
A    3
 C3 
A    4
 O1 
A    5
 B1 
A    6
 C4 
A    7
 C5 
A    8
 C6 
A    9
 C7 
A   10
 C8 
A   11
 S1 
A   12
 N1 
A   13
 O2 
A   14
 O3 
A   15
 C9 
A   16
 O4 
A   17
 C10
A   18
 C11
A   19
 C12
M  END
>  <ref_pdb>  (49) 
Ax0310a

>  <ref_mols>  (49) 
Ax0446a,Ax1080a,Ax0812a,Ax0719a,Ax1140a,Ax0528a,Ax0310a

>  <original SMILES>  (49) 
CC1(C)OB(c2cccc(S(N)(=O)=O)c2)OC1(C)C

>  <rationale>  (49) 
info info set:sulfonimide_joint;hbond:G127+E85+N129; hydroph_interaction:V84+E85+L100+L131; 

>  <experiment>  (49) 
sulfonimide_joint

>  <cluster_label>  (49) 
17

>  <cluster_rank>  (49) 
3

>  <N_interactions>  (49) 
8

>  <∆∆G>  (49) 
-2.019821

>  <comRMSD>  (49) 
0.713548

>  <ROCS_TanimotoCombo>  (49) 
0.329

>  <ROCS_ShapeTanimoto>  (49) 
0.213

>  <ROCS_ColorTanimoto>  (49) 
0.116

$$$$
Z1624949930
     RDKit          3D

 16 16  0  0  0  0  0  0  0  0999 V2000
   35.2527   14.5871    8.8935 C   0  0  0  0  0  0  0  0  0  0  0  0
   34.8673   14.1417    7.6530 N   0  0  0  0  0  0  0  0  0  0  0  0
   33.8275   13.1345    7.5922 C   0  0  0  0  0  0  0  0  0  0  0  0
   33.0822   12.7578    8.6494 O   0  0  0  0  0  0  0  0  0  0  0  0
   33.5392   12.3798    6.2704 C   0  0  0  0  0  0  0  0  0  0  0  0
   32.6843   11.2509    6.6199 N   0  0  0  0  0  0  0  0  0  0  0  0
   32.8186    9.9340    6.4105 C   0  0  0  0  0  0  0  0  0  0  0  0
   33.9972    9.3528    5.6498 C   0  0  0  0  0  0  0  0  0  0  0  0
   31.8582    9.1909    6.8977 N   0  0  0  0  0  0  0  0  0  0  0  0
   30.9533   10.0800    7.4498 N   0  0  0  0  0  0  0  0  0  0  0  0
   29.7215    9.7075    8.1843 C   0  0  0  0  0  0  0  0  0  0  0  0
   30.2396    9.3038    9.4201 C   0  0  0  0  0  0  0  0  0  0  0  0
   28.7339   10.8861    8.3262 C   0  0  0  0  0  0  0  0  0  0  0  0
   29.0808    8.3684    8.2521 C   0  0  0  0  0  0  0  0  0  0  0  0
   31.2827   11.3669    7.0126 C   0  0  0  0  0  0  0  0  0  0  0  0
   30.5987   12.3770    6.9456 O   0  0  0  0  0  0  0  0  0  0  0  0
  1  2  1  0
  2  3  1  0
  3  4  2  0
  3  5  1  0
  5  6  1  0
  6  7  1  0
  7  8  1  0
  7  9  2  0
  9 10  1  0
 10 11  1  0
 11 12  1  0
 11 13  1  0
 11 14  1  0
 10 15  1  0
 15 16  2  0
 15  6  1  0
A    1
 C1 
A    2
 N1 
A    3
 C2 
A    4
 O1 
A    5
 C3 
A    6
 N2 
A    7
 C4 
A    8
 C5 
A    9
 N3 
A   10
 N4 
A   11
 C6 
A   12
 C7 
A   13
 C8 
A   14
 C9 
A   15
 C10
A   16
 O2 
M  END
>  <ref_pdb>  (50) 
Ax0310a

>  <ref_mols>  (50) 
Ax0446a,Ax1080a,Ax0812a,Ax0719a,Ax1140a,Ax0528a,Ax0310a

>  <original SMILES>  (50) 
CNC(=O)Cn1c(C)nn(C(C)(C)C)c1=O

>  <rationale>  (50) 
info info set:3d;hbond:G127+E106; hydroph_interaction:V124; 

>  <experiment>  (50) 
3d

>  <cluster_label>  (50) 
6

>  <cluster_rank>  (50) 
3

>  <N_interactions>  (50) 
3

>  <∆∆G>  (50) 
-6.22998

>  <comRMSD>  (50) 
0.780161

>  <ROCS_TanimotoCombo>  (50) 
0.348

>  <ROCS_ShapeTanimoto>  (50) 
0.21

>  <ROCS_ColorTanimoto>  (50) 
0.138

$$$$
Z3044709108
     RDKit          3D

 20 21  0  0  0  0  0  0  0  0999 V2000
   29.8253    8.6367    8.5300 C   0  0  0  0  0  0  0  0  0  0  0  0
   31.2051    8.5824    8.1620 N   0  0  0  0  0  0  0  0  0  0  0  0
   31.8736    9.4482    7.2751 C   0  0  0  0  0  0  0  0  0  0  0  0
   32.7854    8.9013    6.4273 N   0  0  0  0  0  0  0  0  0  0  0  0
   33.5075    9.6433    5.5430 C   0  0  0  0  0  0  0  0  0  0  0  0
   34.5433    8.8934    4.6195 C   0  0  0  0  0  0  0  0  0  0  0  0
   33.3668   11.0114    5.4366 C   0  0  0  0  0  0  0  0  0  0  0  0
   32.3535   11.6095    6.3706 C   0  0  0  0  0  0  0  0  0  0  0  0
   31.6472   10.8328    7.2473 C   0  0  0  0  0  0  0  0  0  0  0  0
   30.6666   11.5830    8.1206 C   0  0  0  0  0  0  0  0  0  0  0  0
   29.9937   10.8899    8.8116 O   0  0  0  0  0  0  0  0  0  0  0  0
   30.6379   12.9806    8.0446 N   0  0  0  0  0  0  0  0  0  0  0  0
   29.7529   13.8786    8.8109 C   0  0  0  0  0  0  0  0  0  0  0  0
   28.4547   13.9588    8.0258 C   0  0  0  0  0  0  0  0  0  0  0  0
   27.6952   15.2012    8.3059 C   0  0  0  0  0  0  0  0  0  0  0  0
   26.5651   14.9698    7.4396 C   0  0  0  0  0  0  0  0  0  0  0  0
   26.6589   13.7188    6.6925 C   0  0  0  0  0  0  0  0  0  0  0  0
   25.6453   13.1846    5.6723 C   0  0  0  0  0  0  0  0  0  0  0  0
   27.8045   13.1861    7.1353 N   0  0  0  0  0  0  0  0  0  0  0  0
   28.3175   12.0117    6.7819 C   0  0  0  0  0  0  0  0  0  0  0  0
  1  2  1  0
  2  3  1  0
  3  4  2  0
  4  5  1  0
  5  6  1  0
  5  7  2  0
  7  8  1  0
  8  9  2  0
  9 10  1  0
 10 11  2  0
 10 12  1  0
 12 13  1  0
 13 14  1  0
 14 15  2  0
 15 16  1  0
 16 17  2  0
 17 18  1  0
 17 19  1  0
 19 20  1  0
  9  3  1  0
 19 14  1  0
A    1
 C1 
A    2
 N1 
A    3
 C2 
A    4
 N2 
A    5
 C3 
A    6
 C4 
A    7
 C5 
A    8
 C6 
A    9
 C7 
A   10
 C8 
A   11
 O1 
A   12
 N3 
A   13
 C9 
A   14
 C10
A   15
 C11
A   16
 C12
A   17
 C13
A   18
 C14
A   19
 N4 
A   20
 C15
M  END
>  <ref_pdb>  (51) 
Ax0310a

>  <ref_mols>  (51) 
Ax0446a,Ax1080a,Ax0812a,Ax0719a,Ax1140a,Ax0528a,Ax0310a

>  <original SMILES>  (51) 
CNc1nc(C)ccc1C(=O)NCc1ccc(C)n1C

>  <rationale>  (51) 
info info set:screening_pocket;hbond:S87+S105; hydroph_interaction:P107+Y89+Y90+H21; pication:H21; 

>  <experiment>  (51) 
screening_pocket

>  <cluster_label>  (51) 
12

>  <cluster_rank>  (51) 
3

>  <N_interactions>  (51) 
8

>  <∆∆G>  (51) 
-5.743045

>  <comRMSD>  (51) 
0.747566

>  <ROCS_TanimotoCombo>  (51) 
0.643

>  <ROCS_ShapeTanimoto>  (51) 
0.251

>  <ROCS_ColorTanimoto>  (51) 
0.392

$$$$
EN300_219365
     RDKit          3D

 15 16  0  0  0  0  0  0  0  0999 V2000
   34.8643   14.7244    8.0378 N   0  0  0  0  0  0  0  0  0  0  0  0
   33.4715   13.8896    8.4717 S   0  0  0  0  0  6  0  0  0  0  0  0
   33.9681   12.7412    9.1070 O   0  0  0  0  0  0  0  0  0  0  0  0
   32.5426   14.7614    9.1639 O   0  0  0  0  0  0  0  0  0  0  0  0
   32.9478   13.4737    6.8428 C   0  0  0  0  0  0  0  0  0  0  0  0
   33.2834   12.2291    6.3899 C   0  0  0  0  0  0  0  0  0  0  0  0
   34.3531   11.9833    5.5413 C   0  0  0  0  0  0  0  0  0  0  0  0
   34.6238   10.6922    5.1407 C   0  0  0  0  0  0  0  0  0  0  0  0
   33.7947    9.5363    5.5963 C   0  0  0  0  0  0  0  0  0  0  0  0
   32.7018    9.6942    6.4501 C   0  0  0  0  0  0  0  0  0  0  0  0
   32.3930   11.0984    6.8949 C   0  0  0  0  0  0  0  0  0  0  0  0
   31.4849   11.4072    7.6376 O   0  0  0  0  0  0  0  0  0  0  0  0
   30.6255   10.3555    8.1096 C   0  0  0  0  0  0  0  0  0  0  0  0
   31.1335    8.9199    7.9930 C   0  0  0  0  0  0  0  0  0  0  0  0
   31.9693    8.6328    6.8551 O   0  0  0  0  0  0  0  0  0  0  0  0
  1  2  1  0
  2  3  2  0
  2  4  2  0
  2  5  1  0
  5  6  1  0
  6  7  2  0
  7  8  1  0
  8  9  2  0
  9 10  1  0
 10 11  2  0
 11 12  1  0
 12 13  1  0
 13 14  1  0
 14 15  1  0
 11  6  1  0
 15 10  1  0
A    1
 N1 
A    2
 S1 
A    3
 O1 
A    4
 O2 
A    5
 C1 
A    6
 C2 
A    7
 C3 
A    8
 C4 
A    9
 C5 
A   10
 C6 
A   11
 C7 
A   12
 O3 
A   13
 C8 
A   14
 C9 
A   15
 O4 
M  END
>  <ref_pdb>  (52) 
Ax0310a

>  <ref_mols>  (52) 
Ax0446a,Ax1080a,Ax0812a,Ax0719a,Ax1140a,Ax0528a,Ax0310a

>  <original SMILES>  (52) 
NS(=O)(=O)Cc1cccc2c1OCCO2

>  <rationale>  (52) 
info info set:sulfonimide_whole;hbond:S87+G127+A86; 

>  <experiment>  (52) 
sulfonimide_whole

>  <cluster_label>  (52) 
5

>  <cluster_rank>  (52) 
3

>  <N_interactions>  (52) 
3

>  <∆∆G>  (52) 
-4.70811

>  <comRMSD>  (52) 
0.657785

>  <ROCS_TanimotoCombo>  (52) 
0.404

>  <ROCS_ShapeTanimoto>  (52) 
0.209

>  <ROCS_ColorTanimoto>  (52) 
0.196

$$$$
EN300_107837
     RDKit          3D

 16 16  0  0  0  0  0  0  0  0999 V2000
   33.4057   11.7013    3.5814 N   0  0  0  0  0  0  0  0  0  0  0  0
   34.1412   11.7386    5.0931 S   0  0  0  0  0  6  0  0  0  0  0  0
   34.3553   13.1228    5.4446 O   0  0  0  0  0  0  0  0  0  0  0  0
   35.2247   10.7826    5.0324 O   0  0  0  0  0  0  0  0  0  0  0  0
   32.9339   11.0947    6.1786 C   0  0  0  0  0  0  0  0  0  0  0  0
   32.8938    9.7123    6.3396 C   0  0  0  0  0  0  0  0  0  0  0  0
   31.9913    9.1279    7.1928 C   0  0  0  0  0  0  0  0  0  0  0  0
   31.0984    9.8865    7.9131 C   0  0  0  0  0  0  0  0  0  0  0  0
   30.1046    8.9432    8.9311 Cl  0  0  0  0  0  0  0  0  0  0  0  0
   31.0916   11.3030    7.7609 C   0  0  0  0  0  0  0  0  0  0  0  0
   30.1424   12.0567    8.5080 N   0  0  0  0  0  0  0  0  0  0  0  0
   30.3258   13.4171    8.7898 C   0  0  0  0  0  0  0  0  0  0  0  0
   31.3805   14.0219    8.6433 O   0  0  0  0  0  0  0  0  0  0  0  0
   29.2091   14.0622    9.2910 C   0  0  0  0  0  0  0  0  0  0  0  0
   28.4206   14.9276    7.9617 Cl  0  0  0  0  0  0  0  0  0  0  0  0
   32.0164   11.8657    6.8946 C   0  0  0  0  0  0  0  0  0  0  0  0
  1  2  1  0
  2  3  2  0
  2  4  2  0
  2  5  1  0
  5  6  2  0
  6  7  1  0
  7  8  2  0
  8  9  1  0
  8 10  1  0
 10 11  1  0
 11 12  1  0
 12 13  2  0
 12 14  1  0
 14 15  1  0
 10 16  2  0
 16  5  1  0
A    1
 N1 
A    2
 S1 
A    3
 O1 
A    4
 O2 
A    5
 C1 
A    6
 C2 
A    7
 C3 
A    8
 C4 
A    9
CL1 
A   10
 C5 
A   11
 N2 
A   12
 C6 
A   13
 O3 
A   14
 C7 
A   15
CL2 
A   16
 C8 
M  END
>  <ref_pdb>  (53) 
Ax0310a

>  <ref_mols>  (53) 
Ax0446a,Ax1080a,Ax0812a,Ax0719a,Ax1140a,Ax0528a,Ax0310a

>  <original SMILES>  (53) 
NS(=O)(=O)c1ccc(Cl)c(NC(=O)CCl)c1

>  <rationale>  (53) 
info info set:sulfonimide_whole;halogenbond:E88; hbond:S87+S125; 

>  <experiment>  (53) 
sulfonimide_whole

>  <cluster_label>  (53) 
7

>  <cluster_rank>  (53) 
3

>  <N_interactions>  (53) 
3

>  <∆∆G>  (53) 
-6.03163

>  <comRMSD>  (53) 
0.407871

>  <ROCS_TanimotoCombo>  (53) 
0.355

>  <ROCS_ShapeTanimoto>  (53) 
0.215

>  <ROCS_ColorTanimoto>  (53) 
0.14

$$$$
Z98003105
     RDKit          3D

 21 22  0  0  0  0  0  0  0  0999 V2000
   31.0043    8.8991    8.1588 N   0  0  0  0  0  0  0  0  0  0  0  0
   31.6662    9.4749    7.3829 C   0  0  0  0  0  0  0  0  0  0  0  0
   32.5343    8.7766    6.6437 N   0  0  0  0  0  0  0  0  0  0  0  0
   33.2887    9.4699    5.7617 C   0  0  0  0  0  0  0  0  0  0  0  0
   33.1911   10.8374    5.6083 C   0  0  0  0  0  0  0  0  0  0  0  0
   32.3287   11.5840    6.3299 N   0  0  0  0  0  0  0  0  0  0  0  0
   31.5851   10.8554    7.2055 C   0  0  0  0  0  0  0  0  0  0  0  0
   30.6504   11.4591    8.0218 C   0  0  0  0  0  0  0  0  0  0  0  0
   29.9757   10.7736    8.7510 O   0  0  0  0  0  0  0  0  0  0  0  0
   30.5663   12.8164    7.9070 O   0  0  0  0  0  0  0  0  0  0  0  0
   29.2363   13.1458    8.3297 C   0  0  0  0  0  0  0  0  0  0  0  0
   28.5095   13.9148    7.4288 C   0  0  0  0  0  0  0  0  0  0  0  0
   28.5621   15.1516    7.3748 O   0  0  0  0  0  0  0  0  0  0  0  0
   27.7196   13.1293    6.6189 N   0  0  0  0  0  0  0  0  0  0  0  0
   26.9312   13.5921    5.4829 C   0  0  0  0  0  0  0  0  0  0  0  0
   25.6277   14.3114    5.7045 C   0  0  0  0  0  0  0  0  0  0  0  0
   24.3474   13.5009    5.8732 C   0  0  0  0  0  0  0  0  0  0  0  0
   24.4780   13.6085    7.3659 C   0  0  0  0  0  0  0  0  0  0  0  0
   25.0276   12.3728    7.9926 C   0  0  0  0  0  0  0  0  0  0  0  0
   25.8592   11.6454    7.0156 C   0  0  0  0  0  0  0  0  0  0  0  0
   27.2852   11.9459    7.3135 C   0  0  0  0  0  0  0  0  0  0  0  0
  1  2  1  0
  2  3  2  0
  3  4  1  0
  4  5  2  0
  5  6  1  0
  6  7  2  0
  7  8  1  0
  8  9  2  0
  8 10  1  0
 10 11  1  0
 11 12  1  0
 12 13  2  0
 12 14  1  0
 14 15  1  0
 15 16  1  0
 16 17  1  0
 17 18  1  0
 18 19  1  0
 19 20  1  0
 20 21  1  0
  7  2  1  0
 21 14  1  0
A    1
 N1 
A    2
 C1 
A    3
 N2 
A    4
 C2 
A    5
 C3 
A    6
 N3 
A    7
 C4 
A    8
 C5 
A    9
 O1 
A   10
 O2 
A   11
 C6 
A   12
 C7 
A   13
 O3 
A   14
 N4 
A   15
 C8 
A   16
 C9 
A   17
 C10
A   18
 C11
A   19
 C12
A   20
 C13
A   21
 C14
M  END
>  <ref_pdb>  (54) 
Ax0310a

>  <ref_mols>  (54) 
Ax0446a,Ax1080a,Ax0812a,Ax0719a,Ax1140a,Ax0528a,Ax0310a

>  <original SMILES>  (54) 
Nc1nccnc1C(=O)OCC(=O)N1CCCCCCC1

>  <rationale>  (54) 
info info set:screening_pocket;hbond:S87+S105+G127; hydroph_interaction:Y89+H21+L22; 

>  <experiment>  (54) 
screening_pocket

>  <cluster_label>  (54) 
16

>  <cluster_rank>  (54) 
3

>  <N_interactions>  (54) 
7

>  <∆∆G>  (54) 
-3.190615

>  <comRMSD>  (54) 
0.634377

>  <ROCS_TanimotoCombo>  (54) 
0.644

>  <ROCS_ShapeTanimoto>  (54) 
0.231

>  <ROCS_ColorTanimoto>  (54) 
0.413

$$$$
Z3542299488
     RDKit          3D

 17 18  0  0  0  0  0  0  0  0999 V2000
   34.3057   12.2980    3.6084 C   0  0  0  0  0  0  0  0  0  0  0  0
   34.0231   11.0243    4.3598 C   0  0  0  0  0  0  0  0  0  0  0  0
   34.6816    9.7006    4.0880 C   0  0  0  0  0  0  0  0  0  0  0  0
   34.1187    8.7960    5.0096 N   0  0  0  0  0  0  0  0  0  0  0  0
   33.2104    9.4094    5.7974 C   0  0  0  0  0  0  0  0  0  0  0  0
   32.6092    8.6914    6.6906 N   0  0  0  0  0  0  0  0  0  0  0  0
   31.7473    9.4489    7.3693 C   0  0  0  0  0  0  0  0  0  0  0  0
   31.5168   10.7914    7.1787 C   0  0  0  0  0  0  0  0  0  0  0  0
   30.4995   11.3851    8.0839 C   0  0  0  0  0  0  0  0  0  0  0  0
   30.0356   10.6094    8.8707 O   0  0  0  0  0  0  0  0  0  0  0  0
   30.1734   12.7186    7.9699 N   0  0  0  0  0  0  0  0  0  0  0  0
   28.7939   13.1840    8.1205 C   0  0  2  0  0  0  0  0  0  0  0  0
   28.0337   12.7631    7.0441 C   0  0  0  0  0  0  0  0  0  0  0  0
   28.7523   14.6459    8.1307 C   0  0  0  0  0  0  0  0  0  0  0  0
   28.7313   15.9770    8.0657 N   0  0  0  0  0  0  0  0  0  0  0  0
   32.1971   11.5048    6.2034 C   0  0  0  0  0  0  0  0  0  0  0  0
   33.1109   10.7686    5.4510 C   0  0  0  0  0  0  0  0  0  0  0  0
  1  2  1  0
  2  3  2  0
  3  4  1  0
  4  5  1  0
  5  6  2  0
  6  7  1  0
  7  8  2  0
  8  9  1  0
  9 10  2  0
  9 11  1  0
 11 12  1  0
 12 13  1  6
 12 14  1  0
 14 15  3  0
  8 16  1  0
 16 17  2  0
 17  2  1  0
 17  5  1  0
A    1
 C1 
A    2
 C2 
A    3
 C3 
A    4
 N1 
A    5
 C4 
A    6
 N2 
A    7
 C5 
A    8
 C6 
A    9
 C7 
A   10
 O1 
A   11
 N3 
A   12
 C8 
A   13
 C9 
A   14
 C10
A   15
 N4 
A   16
 C11
A   17
 C12
M  END
>  <ref_pdb>  (55) 
Ax0310a

>  <ref_mols>  (55) 
Ax0446a,Ax1080a,Ax0812a,Ax0719a,Ax1140a,Ax0528a,Ax0310a

>  <original SMILES>  (55) 
Cc1c[nH]c2ncc(C(=O)N[C@H](C)C#N)cc12

>  <rationale>  (55) 
info info set:screening_pocket;hbond:S87+Y90+E88; hydroph_interaction:P107; 

>  <experiment>  (55) 
screening_pocket

>  <cluster_label>  (55) 
8

>  <cluster_rank>  (55) 
3

>  <N_interactions>  (55) 
5

>  <∆∆G>  (55) 
-4.845029

>  <comRMSD>  (55) 
0.593733

>  <ROCS_TanimotoCombo>  (55) 
0.704

>  <ROCS_ShapeTanimoto>  (55) 
0.259

>  <ROCS_ColorTanimoto>  (55) 
0.444

$$$$
Z2001735784
     RDKit          3D

 17 18  0  0  0  0  0  0  0  0999 V2000
   26.9658   15.4434    9.0333 C   0  0  0  0  0  0  0  0  0  0  0  0
   28.1084   14.8974    8.3932 C   0  0  0  0  0  0  0  0  0  0  0  0
   29.1641   14.3089    9.1938 C   0  0  0  0  0  0  0  0  0  0  0  0
   30.0811   13.9183    8.1359 C   0  0  0  0  0  0  0  0  0  0  0  0
   31.3734   13.2519    8.4035 C   0  0  0  0  0  0  0  0  0  0  0  0
   32.3900   13.8271    9.1609 O   0  0  0  0  0  0  0  0  0  0  0  0
   31.5621   12.0368    7.8456 N   0  0  0  0  0  0  0  0  0  0  0  0
   30.4449   11.3028    7.8996 C   0  0  0  0  0  0  0  0  0  0  0  0
   30.8775    9.9011    8.0448 C   0  0  0  0  0  0  0  0  0  0  0  0
   30.1570    9.0576    8.8125 O   0  0  0  0  0  0  0  0  0  0  0  0
   32.0252    9.5791    7.3515 N   0  0  0  0  0  0  0  0  0  0  0  0
   32.7200   10.6251    6.5563 C   0  0  0  0  0  0  0  0  0  0  0  0
   32.4191   11.9848    6.7867 C   0  0  0  0  0  0  0  0  0  0  0  0
   32.1405   12.8765    5.6546 C   0  0  0  0  0  0  0  0  0  0  0  0
   33.6677   12.7072    7.3193 C   0  0  0  0  0  0  0  0  0  0  0  0
   29.6082   14.2239    7.0365 O   0  0  0  0  0  0  0  0  0  0  0  0
   28.3665   14.8439    7.1071 N   0  0  0  0  0  0  0  0  0  0  0  0
  1  2  1  0
  2  3  1  0
  3  4  2  0
  4  5  1  0
  5  6  2  0
  5  7  1  0
  7  8  1  0
  8  9  1  0
  9 10  2  0
  9 11  1  0
 11 12  1  0
 12 13  1  0
 13 14  1  0
 13 15  1  0
  4 16  1  0
 16 17  1  0
 17  2  2  0
 13  7  1  0
A    1
 C1 
A    2
 C2 
A    3
 C3 
A    4
 C4 
A    5
 C5 
A    6
 O1 
A    7
 N1 
A    8
 C6 
A    9
 C7 
A   10
 O2 
A   11
 N2 
A   12
 C8 
A   13
 C9 
A   14
 C10
A   15
 C11
A   16
 O3 
A   17
 N3 
M  END
>  <ref_pdb>  (56) 
Ax0310a

>  <ref_mols>  (56) 
Ax0446a,Ax1080a,Ax0812a,Ax0719a,Ax1140a,Ax0528a,Ax0310a

>  <original SMILES>  (56) 
Cc1cc(C(=O)N2CC(=O)NCC2(C)C)on1

>  <rationale>  (56) 
info info set:3d;hbond:S87+S105+G127; hydroph_interaction:P107+Y89+Y90+H21; 

>  <experiment>  (56) 
3d

>  <cluster_label>  (56) 
9

>  <cluster_rank>  (56) 
3

>  <N_interactions>  (56) 
8

>  <∆∆G>  (56) 
-3.325174

>  <comRMSD>  (56) 
0.863595

>  <ROCS_TanimotoCombo>  (56) 
0.349

>  <ROCS_ShapeTanimoto>  (56) 
0.204

>  <ROCS_ColorTanimoto>  (56) 
0.145

$$$$
Z238750748
     RDKit          3D

 29 33  0  0  0  0  0  0  0  0999 V2000
   38.0649   12.9032    9.4436 C   0  0  0  0  0  0  0  0  0  0  0  0
   37.6253   13.8967    8.5185 O   0  0  0  0  0  0  0  0  0  0  0  0
   36.2234   13.7945    8.2172 C   0  0  0  0  0  0  0  0  0  0  0  0
   35.7672   14.2682    6.8614 C   0  0  0  0  0  0  0  0  0  0  0  0
   34.2657   14.1239    6.5607 C   0  0  0  0  0  0  0  0  0  0  0  0
   33.4188   13.5170    7.6881 C   0  0  0  0  0  0  0  0  0  0  0  0
   32.0307   13.2837    7.6093 N   0  0  0  0  0  0  0  0  0  0  0  0
   31.2443   13.9021    8.5432 C   0  0  0  0  0  0  0  0  0  0  0  0
   31.6148   14.4189    9.5945 O   0  0  0  0  0  0  0  0  0  0  0  0
   29.7923   13.9591    8.1395 C   0  0  0  0  0  0  0  0  0  0  0  0
   29.0600   14.7149    9.0197 C   0  0  0  0  0  0  0  0  0  0  0  0
   27.5958   14.8512    8.6697 C   0  0  0  0  0  0  0  0  0  0  0  0
   27.1299   14.1472    7.4325 C   0  0  0  0  0  0  0  0  0  0  0  0
   28.0470   13.3576    6.5908 C   0  0  0  0  0  0  0  0  0  0  0  0
   29.3699   13.2998    6.9871 C   0  0  0  0  0  0  0  0  0  0  0  0
   30.2561   12.5980    6.1863 N   0  0  0  0  0  0  0  0  0  0  0  0
   30.4212   13.4732    5.0267 C   0  0  0  0  0  0  0  0  0  0  0  0
   31.4641   12.1227    6.9323 C   0  0  2  0  0  0  0  0  0  0  0  0
   31.0319   10.9026    7.8766 C   0  0  0  0  0  0  0  0  0  0  0  0
   30.2288   10.8560    8.7550 O   0  0  0  0  0  0  0  0  0  0  0  0
   31.7574    9.7933    7.5145 N   0  0  0  0  0  0  0  0  0  0  0  0
   32.6016   10.0817    6.4783 C   0  0  0  0  0  0  0  0  0  0  0  0
   33.4511    9.2089    5.9060 C   0  0  0  0  0  0  0  0  0  0  0  0
   34.2453    9.6366    4.8579 C   0  0  0  0  0  0  0  0  0  0  0  0
   34.1568   10.9601    4.4105 C   0  0  0  0  0  0  0  0  0  0  0  0
   33.2732   11.8605    5.0183 C   0  0  0  0  0  0  0  0  0  0  0  0
   32.4948   11.4005    6.0655 C   0  0  0  0  0  0  0  0  0  0  0  0
   34.0034   13.1745    8.8228 C   0  0  0  0  0  0  0  0  0  0  0  0
   35.3208   13.2897    9.0812 C   0  0  0  0  0  0  0  0  0  0  0  0
  1  2  1  0
  2  3  1  0
  3  4  2  0
  4  5  1  0
  5  6  2  0
  6  7  1  0
  7  8  1  0
  8  9  2  0
  8 10  1  0
 10 11  2  0
 11 12  1  0
 12 13  2  0
 13 14  1  0
 14 15  2  0
 15 16  1  0
 16 17  1  0
 18 16  1  6
 18 19  1  0
 19 20  2  0
 19 21  1  0
 21 22  1  0
 22 23  2  0
 23 24  1  0
 24 25  2  0
 25 26  1  0
 26 27  2  0
  6 28  1  0
 28 29  2  0
 29  3  1  0
 18  7  1  0
 27 22  1  0
 15 10  1  0
 27 18  1  0
A    1
 C1 
A    2
 O1 
A    3
 C2 
A    4
 C3 
A    5
 C4 
A    6
 C5 
A    7
 N1 
A    8
 C6 
A    9
 O2 
A   10
 C7 
A   11
 C8 
A   12
 C9 
A   13
 C10
A   14
 C11
A   15
 C12
A   16
 N2 
A   17
 C13
A   18
 C14
A   19
 C15
A   20
 O3 
A   21
 N3 
A   22
 C16
A   23
 C17
A   24
 C18
A   25
 C19
A   26
 C20
A   27
 C21
A   28
 C22
A   29
 C23
M  END
>  <ref_pdb>  (57) 
Ax0310a

>  <ref_mols>  (57) 
Ax0446a,Ax1080a,Ax0812a,Ax0719a,Ax1140a,Ax0528a,Ax0310a

>  <original SMILES>  (57) 
COc1ccc(N2C(=O)c3ccccc3N(C)[C@]23C(=O)Nc2ccccc23)cc1

>  <rationale>  (57) 
info info set:screening_whole;hbond:S87+S105+E85; hydroph_interaction:P107+Y89+Y90+V84+E85; 

>  <experiment>  (57) 
screening_whole

>  <cluster_label>  (57) 
3

>  <cluster_rank>  (57) 
3

>  <N_interactions>  (57) 
10

>  <∆∆G>  (57) 
-5.013019

>  <comRMSD>  (57) 
0.739656

>  <ROCS_TanimotoCombo>  (57) 
0.466

>  <ROCS_ShapeTanimoto>  (57) 
0.291

>  <ROCS_ColorTanimoto>  (57) 
0.175

$$$$
Z168123244
     RDKit          3D

 19 20  0  0  0  0  0  0  0  0999 V2000
   31.3285    8.7762    7.9725 C   0  0  0  0  0  0  0  0  0  0  0  0
   31.8826    9.4694    7.1669 C   0  0  0  0  0  0  0  0  0  0  0  0
   32.7752    8.8593    6.3103 N   0  0  0  0  0  0  0  0  0  0  0  0
   33.4503    9.5996    5.3522 C   0  0  0  0  0  0  0  0  0  0  0  0
   34.4341    8.9579    4.3882 C   0  0  0  0  0  0  0  0  0  0  0  0
   34.5584    7.7238    3.6958 C   0  0  0  0  0  0  0  0  0  0  0  0
   35.5275    7.2942    2.8482 C   0  0  0  0  0  0  0  0  0  0  0  0
   36.6014    8.0011    2.4878 C   0  0  0  0  0  0  0  0  0  0  0  0
   36.6557    9.3858    3.1233 C   0  0  0  0  0  0  0  0  0  0  0  0
   35.5712    9.8961    4.0901 C   0  0  0  0  0  0  0  0  0  0  0  0
   33.2312   10.9850    5.2570 C   0  0  0  0  0  0  0  0  0  0  0  0
   32.3330   11.6352    6.1139 C   0  0  0  0  0  0  0  0  0  0  0  0
   31.6882   10.8465    7.0396 C   0  0  0  0  0  0  0  0  0  0  0  0
   30.7872   11.4446    7.9006 C   0  0  0  0  0  0  0  0  0  0  0  0
   30.3141   10.8107    8.8053 O   0  0  0  0  0  0  0  0  0  0  0  0
   30.5096   12.7502    7.6125 O   0  0  0  0  0  0  0  0  0  0  0  0
   29.5977   13.3584    8.5542 C   0  0  0  0  0  0  0  0  0  0  0  0
   28.9635   14.5553    8.0048 C   0  0  0  0  0  0  0  0  0  0  0  0
   28.4997   15.5166    7.5703 N   0  0  0  0  0  0  0  0  0  0  0  0
  1  2  1  0
  2  3  2  0
  3  4  1  0
  4  5  1  0
  5  6  2  0
  6  7  1  0
  7  8  2  0
  8  9  1  0
  9 10  2  0
  4 11  2  0
 11 12  1  0
 12 13  2  0
 13 14  1  0
 14 15  2  0
 14 16  1  0
 16 17  1  0
 17 18  1  0
 18 19  3  0
 13  2  1  0
 10  5  1  0
A    1
 C1 
A    2
 C2 
A    3
 N1 
A    4
 C3 
A    5
 C4 
A    6
 C5 
A    7
 C6 
A    8
 C7 
A    9
 C8 
A   10
 C9 
A   11
 C10
A   12
 C11
A   13
 C12
A   14
 C13
A   15
 O1 
A   16
 O2 
A   17
 C14
A   18
 C15
A   19
 N2 
M  END
>  <ref_pdb>  (58) 
Ax0310a

>  <ref_mols>  (58) 
Ax0446a,Ax1080a,Ax0812a,Ax0719a,Ax1140a,Ax0528a,Ax0310a

>  <original SMILES>  (58) 
Cc1nc(-c2ccccc2)ccc1C(=O)OCC#N

>  <rationale>  (58) 
info info set:screening_pocket;hydroph_interaction:P107+E106; 

>  <experiment>  (58) 
screening_pocket

>  <cluster_label>  (58) 
4

>  <cluster_rank>  (58) 
4

>  <N_interactions>  (58) 
2

>  <∆∆G>  (58) 
-4.231343

>  <comRMSD>  (58) 
0.969708

>  <ROCS_TanimotoCombo>  (58) 
0.631

>  <ROCS_ShapeTanimoto>  (58) 
0.243

>  <ROCS_ColorTanimoto>  (58) 
0.388

$$$$
EN300_28298107
     RDKit          3D

 23 24  0  0  0  0  0  0  0  0999 V2000
   35.2177   11.7187    4.4192 C   0  0  0  0  0  0  0  0  0  0  0  0
   34.1016   11.3221    5.3842 C   0  0  0  0  0  0  0  0  0  0  0  0
   33.7166    9.6735    5.6003 S   0  0  0  0  0  0  0  0  0  0  0  0
   32.4951   10.0013    6.7393 C   0  0  0  0  0  0  0  0  0  0  0  0
   31.8167    8.9805    7.2980 N   0  0  0  0  0  0  0  0  0  0  0  0
   30.8958    9.4135    8.1458 C   0  0  0  0  0  0  0  0  0  0  0  0
   30.6207   10.6885    8.4640 N   0  0  0  0  0  0  0  0  0  0  0  0
   31.3161   11.7107    7.9099 C   0  0  0  0  0  0  0  0  0  0  0  0
   31.0148   13.0947    8.2690 N   0  0  0  0  0  0  0  0  0  0  0  0
   31.7745   14.0941    9.0359 C   0  0  0  0  0  0  0  0  0  0  0  0
   31.1508   15.0842    9.4220 O   0  0  0  0  0  0  0  0  0  0  0  0
   33.2489   14.0776    9.4315 C   0  0  0  0  0  0  0  0  0  0  0  0
   33.9629   12.9978    9.3164 F   0  0  0  0  0  0  0  0  0  0  0  0
   34.0456   14.9306    8.7676 F   0  0  0  0  0  0  0  0  0  0  0  0
   33.3134   14.5557   10.6805 F   0  0  0  0  0  0  0  0  0  0  0  0
   29.8038   13.5704    7.9336 C   0  0  2  0  0  0  0  0  0  0  0  0
   28.6055   13.4159    8.8392 C   0  0  0  0  0  0  0  0  0  0  0  0
   29.0930   12.9308    6.7604 C   0  0  0  0  0  0  0  0  0  0  0  0
   29.5230   12.9351    5.6241 O   0  0  0  0  0  0  0  0  0  0  0  0
   27.9184   12.3373    7.0204 O   0  0  0  0  0  0  0  0  0  0  0  0
   32.3243   11.3629    6.9828 C   0  0  0  0  0  0  0  0  0  0  0  0
   33.3171   12.1513    6.1513 C   0  0  0  0  0  0  0  0  0  0  0  0
   33.4484   13.6322    6.1498 C   0  0  0  0  0  0  0  0  0  0  0  0
  1  2  1  0
  2  3  1  0
  3  4  1  0
  4  5  2  0
  5  6  1  0
  6  7  2  0
  7  8  1  0
  8  9  1  0
  9 10  1  0
 10 11  2  0
 10 12  1  0
 12 13  1  0
 12 14  1  0
 12 15  1  0
  9 16  1  0
 16 17  1  1
 16 18  1  0
 18 19  2  0
 18 20  1  0
  8 21  2  0
 21 22  1  0
 22 23  1  0
 22  2  2  0
 21  4  1  0
A    1
 C1 
A    2
 C2 
A    3
 S1 
A    4
 C3 
A    5
 N1 
A    6
 C4 
A    7
 N2 
A    8
 C5 
A    9
 N3 
A   10
 C6 
A   11
 O1 
A   12
 C7 
A   13
 F1 
A   14
 F2 
A   15
 F3 
A   16
 C8 
A   17
 C9 
A   18
 C10
A   19
 O2 
A   20
 O3 
A   21
 C11
A   22
 C12
A   23
 C13
M  END
>  <ref_pdb>  (59) 
Ax0310a

>  <ref_mols>  (59) 
Ax0446a,Ax1080a,Ax0812a,Ax0719a,Ax1140a,Ax0528a,Ax0310a

>  <original SMILES>  (59) 
Cc1sc2ncnc(N(C(=O)C(F)(F)F)[C@H](C)C(=O)O)c2c1C

>  <rationale>  (59) 
info info set:bb_whole;halogenbond:E85+G127; hbond:S87; saltbridge:H21; 

>  <experiment>  (59) 
bb_whole

>  <cluster_label>  (59) 
1

>  <cluster_rank>  (59) 
4

>  <N_interactions>  (59) 
4

>  <∆∆G>  (59) 
-1.607427

>  <comRMSD>  (59) 
0.739467

>  <ROCS_TanimotoCombo>  (59) 
0.416

>  <ROCS_ShapeTanimoto>  (59) 
0.253

>  <ROCS_ColorTanimoto>  (59) 
0.162

$$$$
Z1344149943
     RDKit          3D

 23 25  0  0  0  0  0  0  0  0999 V2000
   31.9280   13.0519    6.8737 C   0  0  0  0  0  0  0  0  0  0  0  0
   32.2260   11.5863    6.6489 C   0  0  0  0  0  0  0  0  0  0  0  0
   31.3915   10.6346    7.4313 C   0  0  0  0  0  0  0  0  0  0  0  0
   30.3605   11.2922    8.3169 C   0  0  0  0  0  0  0  0  0  0  0  0
   30.6427   12.3778    8.7808 O   0  0  0  0  0  0  0  0  0  0  0  0
   29.1605   10.7444    8.5609 N   0  0  0  0  0  0  0  0  0  0  0  0
   28.2039   11.6719    8.6868 C   0  0  0  0  0  0  0  0  0  0  0  0
   27.6091   12.2801    7.4653 C   0  0  0  0  0  0  0  0  0  0  0  0
   28.0220   13.6313    7.4115 N   0  0  0  0  0  0  0  0  0  0  0  0
   28.4722   14.1709    6.2830 C   0  0  0  0  0  0  0  0  0  0  0  0
   28.7965   15.3849    6.5002 N   0  0  0  0  0  0  0  0  0  0  0  0
   28.5754   15.7153    7.7958 N   0  0  0  0  0  0  0  0  0  0  0  0
   28.1007   14.6517    8.3457 C   0  0  0  0  0  0  0  0  0  0  0  0
   27.6777   14.4720    9.8049 C   0  0  0  0  0  0  0  0  0  0  0  0
   31.6170    9.2974    7.2907 C   0  0  0  0  0  0  0  0  0  0  0  0
   30.9943    8.4350    7.8924 O   0  0  0  0  0  0  0  0  0  0  0  0
   32.5661    8.8412    6.4494 N   0  0  0  0  0  0  0  0  0  0  0  0
   33.3296    9.6878    5.7155 C   0  0  0  0  0  0  0  0  0  0  0  0
   34.3806    9.0515    4.7706 C   0  0  0  0  0  0  0  0  0  0  0  0
   35.2201   10.0306    3.9624 C   0  0  0  0  0  0  0  0  0  0  0  0
   34.9715   11.5051    4.1434 C   0  0  0  0  0  0  0  0  0  0  0  0
   34.0077   11.9725    5.0131 C   0  0  0  0  0  0  0  0  0  0  0  0
   33.2002   11.1017    5.7815 C   0  0  0  0  0  0  0  0  0  0  0  0
  1  2  1  0
  2  3  2  0
  3  4  1  0
  4  5  2  0
  4  6  1  0
  6  7  1  0
  7  8  1  0
  8  9  1  0
  9 10  1  0
 10 11  2  0
 11 12  1  0
 12 13  2  0
 13 14  1  0
  3 15  1  0
 15 16  1  0
 15 17  2  0
 17 18  1  0
 18 19  2  0
 19 20  1  0
 20 21  2  0
 21 22  1  0
 22 23  2  0
 23  2  1  0
 13  9  1  0
 23 18  1  0
A    1
 C1 
A    2
 C2 
A    3
 C3 
A    4
 C4 
A    5
 O1 
A    6
 N1 
A    7
 C5 
A    8
 C6 
A    9
 N2 
A   10
 C7 
A   11
 N3 
A   12
 N4 
A   13
 C8 
A   14
 C9 
A   15
 C10
A   16
 O2 
A   17
 N5 
A   18
 C11
A   19
 C12
A   20
 C13
A   21
 C14
A   22
 C15
A   23
 C16
M  END
>  <ref_pdb>  (60) 
Ax0310a

>  <ref_mols>  (60) 
Ax0446a,Ax1080a,Ax0812a,Ax0719a,Ax1140a,Ax0528a,Ax0310a

>  <original SMILES>  (60) 
Cc1c(C(=O)NCCn2cnnc2C)c(O)nc2ccccc12

>  <rationale>  (60) 
info info set:screening_pocket;hbond:S105+G127+P107; hydroph_interaction:Y90; 

>  <experiment>  (60) 
screening_pocket

>  <cluster_label>  (60) 
11

>  <cluster_rank>  (60) 
4

>  <N_interactions>  (60) 
4

>  <∆∆G>  (60) 
-3.041789

>  <comRMSD>  (60) 
0.634156

>  <ROCS_TanimotoCombo>  (60) 
0.643

>  <ROCS_ShapeTanimoto>  (60) 
0.288

>  <ROCS_ColorTanimoto>  (60) 
0.355

$$$$
Z108673192
     RDKit          3D

 16 17  0  0  0  0  0  0  0  0999 V2000
   29.8229   11.0652    8.8106 O   0  0  0  0  0  0  0  0  0  0  0  0
   30.3085   11.8351    8.0707 C   0  0  0  0  0  0  0  0  0  0  0  0
   31.3450   11.3150    7.3975 C   0  0  0  0  0  0  0  0  0  0  0  0
   32.3686   11.9682    6.7657 C   0  0  0  0  0  0  0  0  0  0  0  0
   33.3267   11.1897    6.1172 C   0  0  0  0  0  0  0  0  0  0  0  0
   34.6104   12.0283    5.3254 Cl  0  0  0  0  0  0  0  0  0  0  0  0
   33.2454    9.6527    6.1071 C   0  0  0  0  0  0  0  0  0  0  0  0
   32.2003    9.0422    6.7704 C   0  0  0  0  0  0  0  0  0  0  0  0
   31.2540    9.7866    7.4082 C   0  0  0  0  0  0  0  0  0  0  0  0
   30.2461    9.1767    8.0406 F   0  0  0  0  0  0  0  0  0  0  0  0
   29.8128   13.0890    7.8418 N   0  0  0  0  0  0  0  0  0  0  0  0
   28.9965   13.6363    8.9325 C   0  0  0  0  0  0  0  0  0  0  0  0
   28.6278   14.9485    8.7485 C   0  0  0  0  0  0  0  0  0  0  0  0
   28.8125   15.4681    7.4387 O   0  0  0  0  0  0  0  0  0  0  0  0
   28.6087   14.5224    6.3895 C   0  0  0  0  0  0  0  0  0  0  0  0
   29.2568   13.3236    6.5223 C   0  0  0  0  0  0  0  0  0  0  0  0
  1  2  2  0
  2  3  1  0
  3  4  2  0
  4  5  1  0
  5  6  1  0
  5  7  2  0
  7  8  1  0
  8  9  2  0
  9 10  1  0
  2 11  1  0
 11 12  1  0
 12 13  1  0
 13 14  1  0
 14 15  1  0
 15 16  1  0
  9  3  1  0
 16 11  1  0
A    1
 O1 
A    2
 C1 
A    3
 C2 
A    4
 C3 
A    5
 C4 
A    6
CL1 
A    7
 C5 
A    8
 C6 
A    9
 C7 
A   10
 F1 
A   11
 N1 
A   12
 C8 
A   13
 C9 
A   14
 O2 
A   15
 C10
A   16
 C11
M  END
>  <ref_pdb>  (61) 
Ax0310a

>  <ref_mols>  (61) 
Ax0446a,Ax1080a,Ax0812a,Ax0719a,Ax1140a,Ax0528a,Ax0310a

>  <original SMILES>  (61) 
O=C(c1cc(Cl)ccc1F)N1CCOCC1

>  <rationale>  (61) 
info info set:3d;halogenbond:C110; hbond:S87; 

>  <experiment>  (61) 
3d

>  <cluster_label>  (61) 
2

>  <cluster_rank>  (61) 
4

>  <N_interactions>  (61) 
2

>  <∆∆G>  (61) 
-4.200743

>  <comRMSD>  (61) 
0.841773

>  <ROCS_TanimotoCombo>  (61) 
0.303

>  <ROCS_ShapeTanimoto>  (61) 
0.199

>  <ROCS_ColorTanimoto>  (61) 
0.104

$$$$
EN300_1167129
     RDKit          3D

 15 15  0  0  0  0  0  0  0  0999 V2000
   33.1331   14.9466    9.4110 C   0  0  0  0  0  0  0  0  0  0  0  0
   33.8205   13.8131    8.2252 S   0  0  0  0  0  6  0  0  0  0  0  0
   33.1865   13.7984    6.9195 O   0  0  0  0  0  0  0  0  0  0  0  0
   33.8460   12.6482    8.9954 O   0  0  0  0  0  0  0  0  0  0  0  0
   35.3678   14.4782    8.0247 N   0  0  0  0  0  0  0  0  0  0  0  0
   36.5278   13.8000    8.6794 C   0  0  0  0  0  0  0  0  0  0  0  0
   36.2262   13.2258    9.8976 C   0  0  0  0  0  0  0  0  0  0  0  0
   37.2230   12.2550   10.3467 N   0  0  0  0  0  0  0  0  0  0  0  0
   36.7009   11.5836   11.5382 C   0  0  0  0  0  0  0  0  0  0  0  0
   37.6162   10.7174   12.0527 C   0  0  0  0  0  0  0  0  0  0  0  0
   38.8419   11.3535   12.5056 C   0  0  0  0  0  0  0  0  0  0  0  0
   38.5661   12.4845   13.4851 C   0  0  0  0  0  0  0  0  0  0  0  0
   39.7853   13.0797   13.9206 O   0  0  0  0  0  0  0  0  0  0  0  0
   39.4980   11.9079   11.2519 C   0  0  0  0  0  0  0  0  0  0  0  0
   38.5399   12.8809   10.5627 C   0  0  0  0  0  0  0  0  0  0  0  0
  1  2  1  0
  2  3  2  0
  2  4  2  0
  2  5  1  0
  5  6  1  0
  6  7  1  0
  7  8  1  0
  8  9  1  0
  9 10  1  0
 10 11  1  0
 11 12  1  0
 12 13  1  0
 11 14  1  0
 14 15  1  0
 15  8  1  0
A    1
 C1 
A    2
 S1 
A    3
 O1 
A    4
 O2 
A    5
 N1 
A    6
 C2 
A    7
 C3 
A    8
 N2 
A    9
 C4 
A   10
 C5 
A   11
 C6 
A   12
 C7 
A   13
 O3 
A   14
 C8 
A   15
 C9 
M  END
>  <ref_pdb>  (62) 
Ax0310a

>  <ref_mols>  (62) 
Ax0446a,Ax1080a,Ax0812a,Ax0719a,Ax1140a,Ax0528a,Ax0310a

>  <original SMILES>  (62) 
CS(=O)(=O)NCCN1CCC(CO)CC1

>  <rationale>  (62) 
info info set:sulfonimide_whole;hbond:G127+F83; hydroph_interaction:L100+L131; 

>  <experiment>  (62) 
sulfonimide_whole

>  <cluster_label>  (62) 
15

>  <cluster_rank>  (62) 
4

>  <N_interactions>  (62) 
5

>  <∆∆G>  (62) 
-4.095492

>  <comRMSD>  (62) 
0.748173

>  <ROCS_TanimotoCombo>  (62) 
0.324

>  <ROCS_ShapeTanimoto>  (62) 
0.179

>  <ROCS_ColorTanimoto>  (62) 
0.144

$$$$
Z52596195
     RDKit          3D

 27 30  0  0  0  0  0  0  0  0999 V2000
   35.7494   11.8886    3.8369 C   0  0  0  0  0  0  0  0  0  0  0  0
   34.8485   11.5634    4.5616 C   0  0  0  0  0  0  0  0  0  0  0  0
   34.4062    9.9354    4.8412 S   0  0  0  0  0  0  0  0  0  0  0  0
   33.1732   10.4427    5.9000 C   0  0  0  0  0  0  0  0  0  0  0  0
   32.3769    9.5692    6.5323 N   0  0  0  0  0  0  0  0  0  0  0  0
   31.4840   10.1944    7.3207 C   0  0  0  0  0  0  0  0  0  0  0  0
   30.5525    9.6608    8.1161 C   0  0  0  0  0  0  0  0  0  0  0  0
   30.9133    8.4624    8.7415 N   0  0  0  0  0  0  0  0  0  0  0  0
   30.3131    8.5908    9.8270 C   0  0  0  0  0  0  0  0  0  0  0  0
   30.5565    7.4937   10.4534 C   0  0  0  0  0  0  0  0  0  0  0  0
   29.6886    6.9598    9.6168 C   0  0  0  0  0  0  0  0  0  0  0  0
   30.0677    7.6020    8.3645 C   0  0  0  0  0  0  0  0  0  0  0  0
   31.4012   11.4891    7.4374 N   0  0  0  0  0  0  0  0  0  0  0  0
   32.0629   12.2146    6.9093 C   0  0  0  0  0  0  0  0  0  0  0  0
   31.7634   13.5046    7.2104 O   0  0  0  0  0  0  0  0  0  0  0  0
   30.4431   13.6860    7.6081 C   0  0  0  0  0  0  0  0  0  0  0  0
   29.4356   13.2984    6.6966 C   0  0  0  0  0  0  0  0  0  0  0  0
   28.0905   13.4809    7.0229 C   0  0  0  0  0  0  0  0  0  0  0  0
   27.7959   14.0460    8.2534 C   0  0  0  0  0  0  0  0  0  0  0  0
   28.7779   14.4181    9.1487 C   0  0  0  0  0  0  0  0  0  0  0  0
   30.1164   14.2516    8.8560 C   0  0  0  0  0  0  0  0  0  0  0  0
   31.1770   14.6704    9.8223 C   0  0  0  0  0  0  0  0  0  0  0  0
   30.7730   15.4391   10.8859 N   0  0  0  0  0  0  0  0  0  0  0  0
   32.3426   14.3484    9.6711 O   0  0  0  0  0  0  0  0  0  0  0  0
   33.0810   11.8120    6.0419 C   0  0  0  0  0  0  0  0  0  0  0  0
   34.0392   12.4474    5.2763 C   0  0  0  0  0  0  0  0  0  0  0  0
   34.1630   13.9413    5.2518 C   0  0  0  0  0  0  0  0  0  0  0  0
  1  2  1  0
  2  3  1  0
  3  4  1  0
  4  5  2  0
  5  6  1  0
  6  7  1  0
  7  8  1  0
  8  9  1  0
  9 10  1  0
 10 11  1  0
 11 12  1  0
  6 13  2  0
 13 14  1  0
 14 15  1  0
 15 16  1  0
 16 17  2  0
 17 18  1  0
 18 19  2  0
 19 20  1  0
 20 21  2  0
 21 22  1  0
 22 23  1  0
 22 24  2  0
 14 25  2  0
 25 26  1  0
 26 27  1  0
 26  2  2  0
 25  4  1  0
 12  8  1  0
 21 16  1  0
A    1
 C1 
A    2
 C2 
A    3
 S1 
A    4
 C3 
A    5
 N1 
A    6
 C4 
A    7
 C5 
A    8
 N2 
A    9
 C6 
A   10
 C7 
A   11
 C8 
A   12
 C9 
A   13
 N3 
A   14
 C10
A   15
 O1 
A   16
 C11
A   17
 C12
A   18
 C13
A   19
 C14
A   20
 C15
A   21
 C16
A   22
 C17
A   23
 N4 
A   24
 O2 
A   25
 C18
A   26
 C19
A   27
 C20
M  END
>  <ref_pdb>  (63) 
Ax0310a

>  <ref_mols>  (63) 
Ax0446a,Ax1080a,Ax0812a,Ax0719a,Ax1140a,Ax0528a,Ax0310a

>  <original SMILES>  (63) 
Cc1sc2nc(CN3CCCC3)nc(Oc3ccccc3C(N)=O)c2c1C

>  <rationale>  (63) 
info info set:screening_whole;hbond:S87+G127+Q95; hydroph_interaction:Y90+V124+D109+V132; pistack:H21; 

>  <experiment>  (63) 
screening_whole

>  <cluster_label>  (63) 
18

>  <cluster_rank>  (63) 
4

>  <N_interactions>  (63) 
8

>  <∆∆G>  (63) 
-0.008227

>  <comRMSD>  (63) 
0.993976

>  <ROCS_TanimotoCombo>  (63) 
0.461

>  <ROCS_ShapeTanimoto>  (63) 
0.272

>  <ROCS_ColorTanimoto>  (63) 
0.189

$$$$
Z55729775
     RDKit          3D

 21 24  0  0  0  0  0  0  0  0999 V2000
   32.3412    8.0816    7.0973 O   0  0  0  0  0  0  0  0  0  0  0  0
   32.0257    9.2172    7.1404 C   0  0  0  0  0  0  0  0  0  0  0  0
   30.9551    9.6228    7.8159 N   0  0  0  0  0  0  0  0  0  0  0  0
   30.7583   10.9115    8.2441 N   0  0  0  0  0  0  0  0  0  0  0  0
   31.5352   11.8415    7.7914 C   0  0  0  0  0  0  0  0  0  0  0  0
   31.1532   13.1909    8.3483 C   0  0  0  0  0  0  0  0  0  0  0  0
   31.8389   13.9772    9.2257 N   0  0  0  0  0  0  0  0  0  0  0  0
   31.0709   15.0913    9.4383 N   0  0  0  0  0  0  0  0  0  0  0  0
   29.9821   14.9581    8.6952 C   0  0  0  0  0  0  0  0  0  0  0  0
   30.0374   13.7817    8.0295 N   0  0  0  0  0  0  0  0  0  0  0  0
   29.0912   13.2957    7.1737 C   0  0  0  0  0  0  0  0  0  0  0  0
   27.7282   13.1634    7.8087 C   0  0  0  0  0  0  0  0  0  0  0  0
   27.2396   14.5970    7.6860 C   0  0  0  0  0  0  0  0  0  0  0  0
   27.7540   15.2611    8.9471 C   0  0  0  0  0  0  0  0  0  0  0  0
   28.9286   15.8463    8.5572 C   0  0  0  0  0  0  0  0  0  0  0  0
   32.6334   11.5990    6.8146 C   0  0  0  0  0  0  0  0  0  0  0  0
   33.4240   12.5974    6.2251 C   0  0  0  0  0  0  0  0  0  0  0  0
   34.4197   12.2348    5.3234 C   0  0  0  0  0  0  0  0  0  0  0  0
   34.6624   10.7807    4.9652 C   0  0  0  0  0  0  0  0  0  0  0  0
   33.8457    9.8388    5.5835 C   0  0  0  0  0  0  0  0  0  0  0  0
   32.8564   10.2389    6.4900 C   0  0  0  0  0  0  0  0  0  0  0  0
  1  2  2  0
  2  3  1  0
  3  4  1  0
  4  5  2  0
  5  6  1  0
  6  7  2  0
  7  8  1  0
  8  9  2  0
  9 10  1  0
 10 11  1  0
 11 12  1  0
 12 13  1  0
 13 14  1  0
 14 15  1  0
  5 16  1  0
 16 17  2  0
 17 18  1  0
 18 19  2  0
 19 20  1  0
 20 21  2  0
 21  2  1  0
 10  6  1  0
 21 16  1  0
 15  9  1  0
A    1
 O1 
A    2
 C1 
A    3
 N1 
A    4
 N2 
A    5
 C2 
A    6
 C3 
A    7
 N3 
A    8
 N4 
A    9
 C4 
A   10
 N5 
A   11
 C5 
A   12
 C6 
A   13
 C7 
A   14
 C8 
A   15
 C9 
A   16
 C10
A   17
 C11
A   18
 C12
A   19
 C13
A   20
 C14
A   21
 C15
M  END
>  <ref_pdb>  (64) 
Ax0310a

>  <ref_mols>  (64) 
Ax0446a,Ax1080a,Ax0812a,Ax0719a,Ax1140a,Ax0528a,Ax0310a

>  <original SMILES>  (64) 
O=c1[nH]nc(-c2nnc3n2CCCCC3)c2ccccc12

>  <rationale>  (64) 
info info set:screening_whole;hbond:S87+E106; hydroph_interaction:Y89+Y90; 

>  <experiment>  (64) 
screening_whole

>  <cluster_label>  (64) 
6

>  <cluster_rank>  (64) 
4

>  <N_interactions>  (64) 
4

>  <∆∆G>  (64) 
-4.380585

>  <comRMSD>  (64) 
0.438316

>  <ROCS_TanimotoCombo>  (64) 
0.459

>  <ROCS_ShapeTanimoto>  (64) 
0.253

>  <ROCS_ColorTanimoto>  (64) 
0.206

$$$$
Z1343739145
     RDKit          3D

 24 26  0  0  0  0  0  0  0  0999 V2000
   30.1743   14.8040    9.7560 C   0  0  0  0  0  0  0  0  0  0  0  0
   29.1880   14.8801    8.6135 C   0  0  0  0  0  0  0  0  0  0  0  0
   28.7401   15.9725    8.0859 N   0  0  0  0  0  0  0  0  0  0  0  0
   27.9078   15.5003    7.1035 O   0  0  0  0  0  0  0  0  0  0  0  0
   27.8389   14.1638    7.0263 C   0  0  0  0  0  0  0  0  0  0  0  0
   26.9460   13.3939    5.9601 C   0  0  0  0  0  0  0  0  0  0  0  0
   28.6101   13.7402    7.9437 C   0  0  0  0  0  0  0  0  0  0  0  0
   28.8470   12.4126    8.2271 C   0  0  0  0  0  0  0  0  0  0  0  0
   30.1644   12.1562    7.8778 N   0  0  0  0  0  0  0  0  0  0  0  0
   30.3015   12.4875    6.4881 C   0  0  0  0  0  0  0  0  0  0  0  0
   30.7531   10.9851    8.1716 C   0  0  0  0  0  0  0  0  0  0  0  0
   30.4452   10.2138    9.0556 O   0  0  0  0  0  0  0  0  0  0  0  0
   31.8414   10.5851    7.2890 C   0  0  0  0  0  0  0  0  0  0  0  0
   31.9422    9.1437    7.0676 C   0  0  0  0  0  0  0  0  0  0  0  0
   30.9869    8.3638    7.7882 O   0  0  0  0  0  0  0  0  0  0  0  0
   32.8291    8.6033    6.2788 N   0  0  0  0  0  0  0  0  0  0  0  0
   33.6943    9.3886    5.6361 C   0  0  0  0  0  0  0  0  0  0  0  0
   34.7318    8.7124    4.6725 C   0  0  0  0  0  0  0  0  0  0  0  0
   35.7264    9.6684    3.9517 C   0  0  0  0  0  0  0  0  0  0  0  0
   35.5327   11.1502    4.3094 C   0  0  0  0  0  0  0  0  0  0  0  0
   34.5997   11.6644    5.1585 C   0  0  0  0  0  0  0  0  0  0  0  0
   33.6898   10.8891    5.8179 C   0  0  0  0  0  0  0  0  0  0  0  0
   32.7292   11.4447    6.6753 C   0  0  0  0  0  0  0  0  0  0  0  0
   32.6868   12.9239    6.8921 C   0  0  0  0  0  0  0  0  0  0  0  0
  1  2  1  0
  2  3  2  0
  3  4  1  0
  4  5  1  0
  5  6  1  0
  5  7  2  0
  7  8  1  0
  8  9  1  0
  9 10  1  0
  9 11  1  0
 11 12  2  0
 11 13  1  0
 13 14  2  0
 14 15  1  0
 14 16  1  0
 16 17  2  0
 17 18  1  0
 18 19  2  0
 19 20  1  0
 20 21  2  0
 21 22  1  0
 22 23  2  0
 23 24  1  0
  7  2  1  0
 23 13  1  0
 22 17  1  0
A    1
 C1 
A    2
 C2 
A    3
 N1 
A    4
 O1 
A    5
 C3 
A    6
 C4 
A    7
 C5 
A    8
 C6 
A    9
 N2 
A   10
 C7 
A   11
 C8 
A   12
 O2 
A   13
 C9 
A   14
 C10
A   15
 O3 
A   16
 N3 
A   17
 C11
A   18
 C12
A   19
 C13
A   20
 C14
A   21
 C15
A   22
 C16
A   23
 C17
A   24
 C18
M  END
>  <ref_pdb>  (65) 
Ax0310a

>  <ref_mols>  (65) 
Ax0446a,Ax1080a,Ax0812a,Ax0719a,Ax1140a,Ax0528a,Ax0310a

>  <original SMILES>  (65) 
Cc1noc(C)c1CN(C)C(=O)c1c(O)nc2ccccc2c1C

>  <rationale>  (65) 
info info set:screening_pocket;hbond:S87+S105+Y90; hydroph_interaction:P107+Y89+Y90; pication:H21; 

>  <experiment>  (65) 
screening_pocket

>  <cluster_label>  (65) 
12

>  <cluster_rank>  (65) 
4

>  <N_interactions>  (65) 
7

>  <∆∆G>  (65) 
-2.951507

>  <comRMSD>  (65) 
0.793115

>  <ROCS_TanimotoCombo>  (65) 
0.656

>  <ROCS_ShapeTanimoto>  (65) 
0.299

>  <ROCS_ColorTanimoto>  (65) 
0.357

$$$$
Z963454974
     RDKit          3D

 18 20  0  0  0  0  0  0  0  0999 V2000
   27.9541   13.4568   10.3610 N   0  0  0  0  0  0  0  0  0  0  0  0
   28.6080   13.0286    9.1202 C   0  0  0  0  0  0  0  0  0  0  0  0
   29.4472   14.0993    8.5702 C   0  0  0  0  0  0  0  0  0  0  0  0
   30.8989   13.7370    8.6609 C   0  0  0  0  0  0  0  0  0  0  0  0
   31.6767   14.4243    9.3067 O   0  0  0  0  0  0  0  0  0  0  0  0
   31.3420   12.6640    8.0535 N   0  0  0  0  0  0  0  0  0  0  0  0
   32.2194   12.6515    7.0387 C   0  0  0  0  0  0  0  0  0  0  0  0
   32.3839   11.2032    6.8509 C   0  0  0  0  0  0  0  0  0  0  0  0
   33.5291   10.6120    6.0852 C   0  0  0  0  0  0  0  0  0  0  0  0
   33.3293    9.0960    6.1907 C   0  0  0  0  0  0  0  0  0  0  0  0
   32.1338    8.5135    6.9838 C   0  0  0  0  0  0  0  0  0  0  0  0
   31.1733    9.1936    7.6088 C   0  0  0  0  0  0  0  0  0  0  0  0
   31.3814   10.6056    7.4788 C   0  0  0  0  0  0  0  0  0  0  0  0
   30.5099   11.4504    8.0293 C   0  0  0  0  0  0  0  0  0  0  0  0
   29.2088   15.3387    9.3304 C   0  0  0  0  0  0  0  0  0  0  0  0
   28.1481   15.9004    8.5534 C   0  0  0  0  0  0  0  0  0  0  0  0
   27.6086   14.7302    7.6743 C   0  0  0  0  0  0  0  0  0  0  0  0
   28.7849   14.2133    7.2036 C   0  0  0  0  0  0  0  0  0  0  0  0
  1  2  3  0
  2  3  1  0
  3  4  1  0
  4  5  2  0
  4  6  1  0
  6  7  1  0
  7  8  1  0
  8  9  2  0
  9 10  1  0
 10 11  2  0
 11 12  1  0
 12 13  2  0
 13 14  1  0
  3 15  1  0
 15 16  1  0
 16 17  1  0
 17 18  1  0
 18  3  1  0
 14  6  1  0
 13  8  1  0
A    1
 N1 
A    2
 C1 
A    3
 C2 
A    4
 C3 
A    5
 O1 
A    6
 N2 
A    7
 C4 
A    8
 C5 
A    9
 C6 
A   10
 C7 
A   11
 C8 
A   12
 C9 
A   13
 C10
A   14
 C11
A   15
 C12
A   16
 C13
A   17
 C14
A   18
 C15
M  END
>  <ref_pdb>  (66) 
Ax0310a

>  <ref_mols>  (66) 
Ax0446a,Ax1080a,Ax0812a,Ax0719a,Ax1140a,Ax0528a,Ax0310a

>  <original SMILES>  (66) 
N#CC1(C(=O)N2Cc3ccccc3C2)CCCC1

>  <rationale>  (66) 
info info set:3d;hbond:S87+H21; hydroph_interaction:Y89+Y90; 

>  <experiment>  (66) 
3d

>  <cluster_label>  (66) 
7

>  <cluster_rank>  (66) 
4

>  <N_interactions>  (66) 
4

>  <∆∆G>  (66) 
-2.039936

>  <comRMSD>  (66) 
0.741072

>  <ROCS_TanimotoCombo>  (66) 
0.317

>  <ROCS_ShapeTanimoto>  (66) 
0.205

>  <ROCS_ColorTanimoto>  (66) 
0.111

$$$$
EN300_39484
     RDKit          3D

 20 21  0  0  0  0  0  0  0  0999 V2000
   41.3691   12.1660   12.7585 N   0  0  0  0  0  0  0  0  0  0  0  0
   40.9741   12.6306   11.1811 S   0  0  0  0  0  6  0  0  0  0  0  0
   41.7149   11.7245   10.3213 O   0  0  0  0  0  0  0  0  0  0  0  0
   41.0548   14.0625   11.0926 O   0  0  0  0  0  0  0  0  0  0  0  0
   39.2745   12.1978   11.1654 C   0  0  0  0  0  0  0  0  0  0  0  0
   38.8427   11.2414   12.1332 C   0  0  0  0  0  0  0  0  0  0  0  0
   37.4214   10.8675   12.1158 C   0  0  0  0  0  0  0  0  0  0  0  0
   36.3220   11.4293   11.1301 C   0  0  0  0  0  0  0  0  0  0  0  0
   36.8703   12.4006   10.2076 C   0  0  0  0  0  0  0  0  0  0  0  0
   35.9702   13.0722    9.1636 N   0  0  0  0  0  0  0  0  0  0  0  0
   34.5188   13.1804    8.8803 C   0  0  0  0  0  0  0  0  0  0  0  0
   33.6444   13.4285    9.6684 O   0  0  0  0  0  0  0  0  0  0  0  0
   34.1073   12.9502    7.5058 O   0  0  0  0  0  0  0  0  0  0  0  0
   33.1043   11.9303    7.3770 C   0  0  0  0  0  0  0  0  0  0  0  0
   33.3603   10.7403    6.6743 C   0  0  0  0  0  0  0  0  0  0  0  0
   32.3881    9.5772    6.5908 C   0  0  0  0  0  0  0  0  0  0  0  0
   31.1320    9.7807    7.2835 C   0  0  0  0  0  0  0  0  0  0  0  0
   30.8107   11.0745    7.9988 C   0  0  0  0  0  0  0  0  0  0  0  0
   31.8901   12.1529    8.0087 C   0  0  0  0  0  0  0  0  0  0  0  0
   38.3864   12.7671   10.2464 C   0  0  0  0  0  0  0  0  0  0  0  0
  1  2  1  0
  2  3  2  0
  2  4  2  0
  2  5  1  0
  5  6  2  0
  6  7  1  0
  7  8  2  0
  8  9  1  0
  9 10  1  0
 10 11  1  0
 11 12  2  0
 11 13  1  0
 13 14  1  0
 14 15  2  0
 15 16  1  0
 16 17  2  0
 17 18  1  0
 18 19  2  0
  9 20  2  0
 20  5  1  0
 19 14  1  0
A    1
 N1 
A    2
 S1 
A    3
 O1 
A    4
 O2 
A    5
 C1 
A    6
 C2 
A    7
 C3 
A    8
 C4 
A    9
 C5 
A   10
 N2 
A   11
 C6 
A   12
 O3 
A   13
 O4 
A   14
 C7 
A   15
 C8 
A   16
 C9 
A   17
 C10
A   18
 C11
A   19
 C12
A   20
 C13
M  END
>  <ref_pdb>  (67) 
Ax0310a

>  <ref_mols>  (67) 
Ax0446a,Ax1080a,Ax0812a,Ax0719a,Ax1140a,Ax0528a,Ax0310a

>  <original SMILES>  (67) 
NS(=O)(=O)c1cccc(NC(=O)Oc2ccccc2)c1

>  <rationale>  (67) 
info info set:sulfonimide_whole;hbond:G127+N129; hydroph_interaction:L100+L131; 

>  <experiment>  (67) 
sulfonimide_whole

>  <cluster_label>  (67) 
17

>  <cluster_rank>  (67) 
4

>  <N_interactions>  (67) 
4

>  <∆∆G>  (67) 
-1.022937

>  <comRMSD>  (67) 
0.930229

>  <ROCS_TanimotoCombo>  (67) 
0.413

>  <ROCS_ShapeTanimoto>  (67) 
0.251

>  <ROCS_ColorTanimoto>  (67) 
0.162

$$$$
EN300_317907
     RDKit          3D

 13 13  0  0  0  0  0  0  0  0999 V2000
   30.5331    8.9279    8.5753 C   0  0  0  0  0  0  0  0  0  0  0  0
   31.2100    9.8557    7.6476 C   0  0  0  0  0  0  0  0  0  0  0  0
   30.8935   11.0883    7.4525 N   0  0  0  0  0  0  0  0  0  0  0  0
   31.8082   11.4798    6.5333 N   0  0  0  0  0  0  0  0  0  0  0  0
   31.9909   12.8742    6.2886 C   0  0  0  0  0  0  0  0  0  0  0  0
   33.3650   13.3484    6.6616 C   0  0  0  0  0  0  0  0  0  0  0  0
   33.6023   13.7918    8.3721 S   0  0  0  0  0  6  0  0  0  0  0  0
   34.9410   14.7462    8.0902 N   0  0  0  0  0  0  0  0  0  0  0  0
   34.0785   12.7252    9.1493 O   0  0  0  0  0  0  0  0  0  0  0  0
   32.5025   14.5492    8.9337 O   0  0  0  0  0  0  0  0  0  0  0  0
   32.7591   10.5033    6.3488 C   0  0  0  0  0  0  0  0  0  0  0  0
   33.8352   10.5906    5.7791 O   0  0  0  0  0  0  0  0  0  0  0  0
   32.2583    9.3840    6.9373 O   0  0  0  0  0  0  0  0  0  0  0  0
  1  2  1  0
  2  3  2  0
  3  4  1  0
  4  5  1  0
  5  6  1  0
  6  7  1  0
  7  8  1  0
  7  9  2  0
  7 10  2  0
  4 11  1  0
 11 12  2  0
 11 13  1  0
 13  2  1  0
A    1
 C1 
A    2
 C2 
A    3
 N1 
A    4
 N2 
A    5
 C3 
A    6
 C4 
A    7
 S1 
A    8
 N3 
A    9
 O1 
A   10
 O2 
A   11
 C5 
A   12
 O3 
A   13
 O4 
M  END
>  <ref_pdb>  (68) 
Ax0310a

>  <ref_mols>  (68) 
Ax0446a,Ax1080a,Ax0812a,Ax0719a,Ax1140a,Ax0528a,Ax0310a

>  <original SMILES>  (68) 
Cc1nn(CCS(N)(=O)=O)c(=O)o1

>  <rationale>  (68) 
info info set:sulfonimide_whole;hbond:S87+G127+A86; hydroph_interaction:V124; 

>  <experiment>  (68) 
sulfonimide_whole

>  <cluster_label>  (68) 
5

>  <cluster_rank>  (68) 
4

>  <N_interactions>  (68) 
4

>  <∆∆G>  (68) 
-5.999694

>  <comRMSD>  (68) 
0.549096

>  <ROCS_TanimotoCombo>  (68) 
0.369

>  <ROCS_ShapeTanimoto>  (68) 
0.194

>  <ROCS_ColorTanimoto>  (68) 
0.175

$$$$
Z2164393927
     RDKit          3D

 16 16  0  0  0  0  0  0  0  0999 V2000
   28.5920   15.8879    7.5926 N   0  0  0  0  0  0  0  0  0  0  0  0
   28.8947   14.7128    8.1964 C   0  0  0  0  0  0  0  0  0  0  0  0
   29.3326   13.4336    8.8199 C   0  0  0  0  0  0  0  0  0  0  0  0
   30.2940   12.7887    7.9495 N   0  0  0  0  0  0  0  0  0  0  0  0
   30.6013   11.4617    8.0674 C   0  0  0  0  0  0  0  0  0  0  0  0
   30.1217   10.4791    8.9550 O   0  0  0  0  0  0  0  0  0  0  0  0
   31.5861   10.8530    7.1519 C   0  0  0  0  0  0  0  0  0  0  0  0
   31.9477    9.3363    7.2284 C   0  0  0  0  0  0  0  0  0  0  0  0
   32.8161    8.6719    6.4693 N   0  0  0  0  0  0  0  0  0  0  0  0
   33.4628    9.3447    5.5154 C   0  0  0  0  0  0  0  0  0  0  0  0
   33.2713   10.8209    5.2493 C   0  0  0  0  0  0  0  0  0  0  0  0
   34.0260   11.3189    4.2091 C   0  0  0  0  0  0  0  0  0  0  0  0
   35.3645   11.1225    4.3605 F   0  0  0  0  0  0  0  0  0  0  0  0
   33.8403   12.6581    4.0566 F   0  0  0  0  0  0  0  0  0  0  0  0
   33.7018   10.7703    3.0048 F   0  0  0  0  0  0  0  0  0  0  0  0
   32.3832   11.5500    6.0275 C   0  0  0  0  0  0  0  0  0  0  0  0
  1  2  3  0
  2  3  1  0
  3  4  1  0
  4  5  1  0
  5  6  2  0
  5  7  1  0
  7  8  2  0
  8  9  1  0
  9 10  2  0
 10 11  1  0
 11 12  1  0
 12 13  1  0
 12 14  1  0
 12 15  1  0
 11 16  2  0
 16  7  1  0
A    1
 N1 
A    2
 C1 
A    3
 C2 
A    4
 N2 
A    5
 C3 
A    6
 O1 
A    7
 C4 
A    8
 C5 
A    9
 N3 
A   10
 C6 
A   11
 C7 
A   12
 C8 
A   13
 F1 
A   14
 F2 
A   15
 F3 
A   16
 C9 
M  END
>  <ref_pdb>  (69) 
Ax0310a

>  <ref_mols>  (69) 
Ax0446a,Ax1080a,Ax0812a,Ax0719a,Ax1140a,Ax0528a,Ax0310a

>  <original SMILES>  (69) 
N#CCNC(=O)c1cncc(C(F)(F)F)c1

>  <rationale>  (69) 
info info set:screening_pocket;hbond:S87+Y90+E88; hydroph_interaction:P107; 

>  <experiment>  (69) 
screening_pocket

>  <cluster_label>  (69) 
8

>  <cluster_rank>  (69) 
4

>  <N_interactions>  (69) 
5

>  <∆∆G>  (69) 
-1.632535

>  <comRMSD>  (69) 
0.475227

>  <ROCS_TanimotoCombo>  (69) 
0.675

>  <ROCS_ShapeTanimoto>  (69) 
0.235

>  <ROCS_ColorTanimoto>  (69) 
0.44

$$$$
EN300_26665158
     RDKit          3D

 19 20  0  0  0  0  0  0  0  0999 V2000
   28.5777   15.1023    7.1948 C   0  0  0  0  0  0  0  0  0  0  0  0
   28.7276   14.6556    8.6161 C   0  0  0  0  0  0  0  0  0  0  0  0
   27.4736   15.0845    9.3399 C   0  0  0  0  0  0  0  0  0  0  0  0
   29.9789   15.2103    9.2765 C   0  0  0  0  0  0  0  0  0  0  0  0
   28.8516   13.2556    8.5362 O   0  0  0  0  0  0  0  0  0  0  0  0
   29.8545   12.8245    7.7601 C   0  0  0  0  0  0  0  0  0  0  0  0
   30.2394   13.3937    6.7596 O   0  0  0  0  0  0  0  0  0  0  0  0
   30.3489   11.6892    8.2644 N   0  0  0  0  0  0  0  0  0  0  0  0
   31.2767   10.9047    7.6631 C   0  0  0  0  0  0  0  0  0  0  0  0
   31.2458    9.4379    7.7489 C   0  0  0  0  0  0  0  0  0  0  0  0
   30.0526    8.6206    8.6819 Cl  0  0  0  0  0  0  0  0  0  0  0  0
   32.1147    8.6020    7.1142 N   0  0  0  0  0  0  0  0  0  0  0  0
   33.0323    9.1684    6.3736 C   0  0  0  0  0  0  0  0  0  0  0  0
   33.1636   10.5329    6.2890 N   0  0  0  0  0  0  0  0  0  0  0  0
   34.1019   11.2621    5.6284 C   0  0  0  0  0  0  0  0  0  0  0  0
   35.1008   10.7816    4.9109 O   0  0  0  0  0  0  0  0  0  0  0  0
   33.8860   12.5351    5.8020 N   0  0  0  0  0  0  0  0  0  0  0  0
   32.7686   12.6479    6.6036 N   0  0  0  0  0  0  0  0  0  0  0  0
   32.3373   11.4410    6.8950 C   0  0  0  0  0  0  0  0  0  0  0  0
  1  2  1  0
  2  3  1  0
  2  4  1  0
  2  5  1  0
  5  6  1  0
  6  7  2  0
  6  8  1  0
  8  9  1  0
  9 10  2  0
 10 11  1  0
 10 12  1  0
 12 13  2  0
 13 14  1  0
 14 15  1  0
 15 16  1  0
 15 17  2  0
 17 18  1  0
 18 19  2  0
 19  9  1  0
 19 14  1  0
A    1
 C1 
A    2
 C2 
A    3
 C3 
A    4
 C4 
A    5
 O1 
A    6
 C5 
A    7
 O2 
A    8
 N1 
A    9
 C6 
A   10
 C7 
A   11
CL1 
A   12
 N2 
A   13
 C8 
A   14
 N3 
A   15
 C9 
A   16
 O3 
A   17
 N4 
A   18
 N5 
A   19
 C10
M  END
>  <ref_pdb>  (70) 
Ax0310a

>  <ref_mols>  (70) 
Ax0446a,Ax1080a,Ax0812a,Ax0719a,Ax1140a,Ax0528a,Ax0310a

>  <original SMILES>  (70) 
CC(C)(C)OC(=O)Nc1c(Cl)ncn2c(O)nnc12

>  <rationale>  (70) 
info info set:bb_whole;hbond:S87+S125+G127; hydroph_interaction:Y90+H21; 

>  <experiment>  (70) 
bb_whole

>  <cluster_label>  (70) 
9

>  <cluster_rank>  (70) 
4

>  <N_interactions>  (70) 
6

>  <∆∆G>  (70) 
-4.391066

>  <comRMSD>  (70) 
0.472442

>  <ROCS_TanimotoCombo>  (70) 
0.425

>  <ROCS_ShapeTanimoto>  (70) 
0.258

>  <ROCS_ColorTanimoto>  (70) 
0.167

$$$$
EN300_6717071
     RDKit          3D

 34 39  0  0  0  0  0  0  0  0999 V2000
   30.3428    8.6671    9.8363 N   0  0  0  0  0  0  0  0  0  0  0  0
   30.2937    8.2994    8.4677 C   0  0  0  0  0  0  0  0  0  0  0  0
   31.6490    8.3887    7.9075 C   0  0  0  0  0  0  0  0  0  0  0  0
   31.9974    9.7060    7.4989 N   0  0  0  0  0  0  0  0  0  0  0  0
   31.3046   10.7543    7.9504 C   0  0  0  0  0  0  0  0  0  0  0  0
   30.4660   10.7232    8.8187 O   0  0  0  0  0  0  0  0  0  0  0  0
   31.6288   12.0468    7.2614 C   0  0  1  0  0  0  0  0  0  0  0  0
   30.4670   12.4726    6.5106 N   0  0  0  0  0  0  0  0  0  0  0  0
   29.6093   13.2904    7.2008 C   0  0  0  0  0  0  0  0  0  0  0  0
   28.1304   13.4028    6.7578 C   0  0  0  0  0  0  0  0  0  0  0  0
   27.2571   14.3227    7.5238 C   0  0  0  0  0  0  0  0  0  0  0  0
   27.7518   15.0418    8.6101 C   0  0  0  0  0  0  0  0  0  0  0  0
   29.1019   14.8724    8.9416 C   0  0  0  0  0  0  0  0  0  0  0  0
   29.9985   14.0531    8.2821 C   0  0  0  0  0  0  0  0  0  0  0  0
   31.4737   14.0033    8.7057 C   0  0  0  0  0  0  0  0  0  0  0  0
   31.8869   14.9134    9.5193 N   0  0  0  0  0  0  0  0  0  0  0  0
   33.2478   14.9511    9.6623 C   0  0  0  0  0  0  0  0  0  0  0  0
   33.7315   16.0072    9.9149 O   0  0  0  0  0  0  0  0  0  0  0  0
   34.1892   13.7836    9.3401 C   0  0  0  0  0  0  0  0  0  0  0  0
   35.6649   13.5858    9.8458 C   0  0  0  0  0  0  0  0  0  0  0  0
   36.6908   13.7280    8.9139 C   0  0  0  0  0  0  0  0  0  0  0  0
   38.0406   13.5556    9.2817 C   0  0  0  0  0  0  0  0  0  0  0  0
   38.3996   13.2395   10.5815 C   0  0  0  0  0  0  0  0  0  0  0  0
   39.6717   13.0745   10.9523 F   0  0  0  0  0  0  0  0  0  0  0  0
   37.4566   13.0925   11.5200 C   0  0  0  0  0  0  0  0  0  0  0  0
   36.1506   13.2616   11.1791 C   0  0  0  0  0  0  0  0  0  0  0  0
   33.6349   12.9002    8.5269 N   0  0  0  0  0  0  0  0  0  0  0  0
   32.2954   13.0790    8.1150 N   0  0  0  0  0  0  0  0  0  0  0  0
   32.5587   11.4892    6.2220 C   0  0  0  0  0  0  0  0  0  0  0  0
   33.1824   12.1588    5.1955 C   0  0  0  0  0  0  0  0  0  0  0  0
   34.0086   11.4288    4.3496 C   0  0  0  0  0  0  0  0  0  0  0  0
   34.1970   10.0547    4.5486 C   0  0  0  0  0  0  0  0  0  0  0  0
   33.5596    9.3974    5.5881 C   0  0  0  0  0  0  0  0  0  0  0  0
   32.7442   10.1194    6.4111 C   0  0  0  0  0  0  0  0  0  0  0  0
  1  2  3  0
  2  3  1  0
  3  4  1  0
  4  5  1  0
  5  6  2  0
  5  7  1  0
  7  8  1  6
  8  9  1  0
  9 10  2  0
 10 11  1  0
 11 12  2  0
 12 13  1  0
 13 14  2  0
 14 15  1  0
 15 16  2  0
 16 17  1  0
 17 18  2  0
 17 19  1  0
 19 20  1  0
 20 21  2  0
 21 22  1  0
 22 23  2  0
 23 24  1  0
 23 25  1  0
 25 26  2  0
 19 27  2  0
 27 28  1  0
  7 29  1  0
 29 30  2  0
 30 31  1  0
 31 32  2  0
 32 33  1  0
 33 34  2  0
 34  4  1  0
 28  7  1  0
 34 29  1  0
 14  9  1  0
 28 15  1  0
 26 20  1  0
A    1
 N1 
A    2
 C1 
A    3
 C2 
A    4
 N2 
A    5
 C3 
A    6
 O1 
A    7
 C4 
A    8
 N3 
A    9
 C5 
A   10
 C6 
A   11
 C7 
A   12
 C8 
A   13
 C9 
A   14
 C10
A   15
 C11
A   16
 N4 
A   17
 C12
A   18
 O2 
A   19
 C13
A   20
 C14
A   21
 C15
A   22
 C16
A   23
 C17
A   24
 F1 
A   25
 C18
A   26
 C19
A   27
 N5 
A   28
 N6 
A   29
 C20
A   30
 C21
A   31
 C22
A   32
 C23
A   33
 C24
A   34
 C25
M  END
>  <ref_pdb>  (71) 
Ax0310a

>  <ref_mols>  (71) 
Ax0446a,Ax1080a,Ax0812a,Ax0719a,Ax1140a,Ax0528a,Ax0310a

>  <original SMILES>  (71) 
N#CCN1C(=O)[C@]2(Nc3ccccc3-c3nc(=O)c(-c4ccc(F)cc4)nn32)c2ccccc21

>  <rationale>  (71) 
info info set:bb_whole;hbond:S87+S125+G127; hydroph_interaction:P107+Y89+Y90+V84+E85; 

>  <experiment>  (71) 
bb_whole

>  <cluster_label>  (71) 
3

>  <cluster_rank>  (71) 
4

>  <N_interactions>  (71) 
10

>  <∆∆G>  (71) 
-2.189792

>  <comRMSD>  (71) 
0.831449

>  <ROCS_TanimotoCombo>  (71) 
0.422

>  <ROCS_ShapeTanimoto>  (71) 
0.289

>  <ROCS_ColorTanimoto>  (71) 
0.133

$$$$
EN300_6722885
     RDKit          3D

 17 18  0  0  0  0  0  0  0  0999 V2000
   34.1837    8.8734    5.3732 O   0  0  0  0  0  0  0  0  0  0  0  0
   33.1339    9.5277    6.0782 C   0  0  0  0  0  0  0  0  0  0  0  0
   33.0796   10.8424    5.8514 N   0  0  0  0  0  0  0  0  0  0  0  0
   32.0827   11.4860    6.4961 C   0  0  0  0  0  0  0  0  0  0  0  0
   31.0778   10.7862    7.4183 C   0  0  0  0  0  0  0  0  0  0  0  0
   29.9993   11.3898    8.1089 N   0  0  0  0  0  0  0  0  0  0  0  0
   30.0113   12.8420    8.1625 C   0  0  0  0  0  0  0  0  0  0  0  0
   29.0658   13.6264    7.2892 C   0  0  0  0  0  0  0  0  0  0  0  0
   27.6480   13.1884    7.3720 C   0  0  0  0  0  0  0  0  0  0  0  0
   27.4311   12.2772    6.4954 C   0  0  0  0  0  0  0  0  0  0  0  0
   26.2106   11.6865    6.2690 C   0  0  0  0  0  0  0  0  0  0  0  0
   25.1699   12.0690    7.0457 C   0  0  0  0  0  0  0  0  0  0  0  0
   25.3655   13.0347    8.0136 C   0  0  0  0  0  0  0  0  0  0  0  0
   26.6289   13.6172    8.1803 C   0  0  0  0  0  0  0  0  0  0  0  0
   31.3579    9.4230    7.4924 C   0  0  0  0  0  0  0  0  0  0  0  0
   30.5928    8.5927    8.2618 O   0  0  0  0  0  0  0  0  0  0  0  0
   32.3400    8.7851    6.8631 N   0  0  0  0  0  0  0  0  0  0  0  0
  1  2  1  0
  2  3  2  0
  3  4  1  0
  4  5  2  0
  5  6  1  0
  6  7  1  0
  7  8  1  0
  8  9  1  0
  9 10  2  0
 10 11  1  0
 11 12  2  0
 12 13  1  0
 13 14  2  0
  5 15  1  0
 15 16  1  0
 15 17  2  0
 17  2  1  0
 14  9  1  0
A    1
 O1 
A    2
 C1 
A    3
 N1 
A    4
 C2 
A    5
 C3 
A    6
 N2 
A    7
 C4 
A    8
 C5 
A    9
 C6 
A   10
 C7 
A   11
 C8 
A   12
 C9 
A   13
 C10
A   14
 C11
A   15
 C12
A   16
 O2 
A   17
 N3 
M  END
>  <ref_pdb>  (72) 
Ax0310a

>  <ref_mols>  (72) 
Ax0446a,Ax1080a,Ax0812a,Ax0719a,Ax1140a,Ax0528a,Ax0310a

>  <original SMILES>  (72) 
Oc1ncc(NCCc2ccccc2)c(O)n1

>  <rationale>  (72) 
info info set:bb_densepocket2;hbond:S105+G127; hydroph_interaction:P107+Y89+Y90+H21+L22; 

>  <experiment>  (72) 
bb_densepocket2

>  <cluster_label>  (72) 
16

>  <cluster_rank>  (72) 
4

>  <N_interactions>  (72) 
7

>  <∆∆G>  (72) 
-3.535581

>  <comRMSD>  (72) 
0.582502

>  <ROCS_TanimotoCombo>  (72) 
0.619

>  <ROCS_ShapeTanimoto>  (72) 
0.234

>  <ROCS_ColorTanimoto>  (72) 
0.385

$$$$
Z56826073
     RDKit          3D

 18 20  0  0  0  0  0  0  0  0999 V2000
   35.5604   13.7639    9.7623 C   0  0  0  0  0  0  0  0  0  0  0  0
   35.4157   13.7980    8.3448 N   0  0  0  0  0  0  0  0  0  0  0  0
   34.0153   14.5022    7.8298 S   0  0  0  0  0  6  0  0  0  0  0  0
   33.5822   15.1962    9.0417 O   0  0  0  0  0  0  0  0  0  0  0  0
   34.2000   15.0515    6.5152 O   0  0  0  0  0  0  0  0  0  0  0  0
   32.9447   13.1589    7.6722 C   0  0  0  0  0  0  0  0  0  0  0  0
   31.6485   13.1405    8.4271 C   0  0  0  0  0  0  0  0  0  0  0  0
   30.6444   11.9325    8.4413 C   0  0  0  0  0  0  0  0  0  0  0  0
   31.3729   11.0219    7.6803 C   0  0  0  0  0  0  0  0  0  0  0  0
   32.5393   11.0814    6.9964 C   0  0  0  0  0  0  0  0  0  0  0  0
   32.8677    9.9066    6.3841 C   0  0  0  0  0  0  0  0  0  0  0  0
   33.9272    9.6811    5.5173 C   0  0  0  0  0  0  0  0  0  0  0  0
   34.7640   10.7323    5.2718 C   0  0  0  0  0  0  0  0  0  0  0  0
   34.5454   11.9579    5.9347 C   0  0  0  0  0  0  0  0  0  0  0  0
   33.3580   12.1358    6.8778 C   0  0  0  0  0  0  0  0  0  0  0  0
   31.9253    9.0528    6.9031 C   0  0  0  0  0  0  0  0  0  0  0  0
   32.0625    7.9203    6.9571 O   0  0  0  0  0  0  0  0  0  0  0  0
   30.9004    9.7513    7.4851 N   0  0  0  0  0  0  0  0  0  0  0  0
  1  2  1  0
  2  3  1  0
  3  4  2  0
  3  5  2  0
  3  6  1  0
  6  7  2  0
  7  8  1  0
  8  9  2  0
  9 10  1  0
 10 11  2  0
 11 12  1  0
 12 13  2  0
 13 14  1  0
 14 15  2  0
 11 16  1  0
 16 17  2  0
 16 18  1  0
 15  6  1  0
 18  9  1  0
 15 10  1  0
A    1
 C1 
A    2
 N1 
A    3
 S1 
A    4
 O1 
A    5
 O2 
A    6
 C2 
A    7
 C3 
A    8
 C4 
A    9
 C5 
A   10
 C6 
A   11
 C7 
A   12
 C8 
A   13
 C9 
A   14
 C10
A   15
 C11
A   16
 C12
A   17
 O3 
A   18
 N2 
M  END
>  <ref_pdb>  (73) 
Ax0310a

>  <ref_mols>  (73) 
Ax0446a,Ax1080a,Ax0812a,Ax0719a,Ax1140a,Ax0528a,Ax0310a

>  <original SMILES>  (73) 
CNS(=O)(=O)c1ccc2c3c(cccc13)C(=O)N2

>  <rationale>  (73) 
info info set:3d;hbond:G127+E106; 

>  <experiment>  (73) 
3d

>  <cluster_label>  (73) 
6

>  <cluster_rank>  (73) 
5

>  <N_interactions>  (73) 
2

>  <∆∆G>  (73) 
-1.918587

>  <comRMSD>  (73) 
0.963765

>  <ROCS_TanimotoCombo>  (73) 
0.366

>  <ROCS_ShapeTanimoto>  (73) 
0.211

>  <ROCS_ColorTanimoto>  (73) 
0.155

$$$$
Z45515797
     RDKit          3D

 17 18  0  0  0  0  0  0  0  0999 V2000
   31.5474   13.8840    7.4089 O   0  0  0  0  0  0  0  0  0  0  0  0
   30.6501   13.0994    8.1169 S   0  0  0  0  0  6  0  0  0  0  0  0
   30.5904   13.3091    9.5181 O   0  0  0  0  0  0  0  0  0  0  0  0
   31.3472   11.5794    7.5392 C   0  0  0  0  0  0  0  0  0  0  0  0
   32.3926   11.8167    6.5447 C   0  0  0  0  0  0  0  0  0  0  0  0
   33.1815   10.9204    5.8570 C   0  0  0  0  0  0  0  0  0  0  0  0
   32.9391    9.6241    6.1590 C   0  0  0  0  0  0  0  0  0  0  0  0
   33.7025    8.7735    5.4971 F   0  0  0  0  0  0  0  0  0  0  0  0
   31.8974    9.0738    7.1651 C   0  0  0  0  0  0  0  0  0  0  0  0
   31.0479   10.1239    7.9024 C   0  0  0  0  0  0  0  0  0  0  0  0
   30.1421    9.7251    8.7812 F   0  0  0  0  0  0  0  0  0  0  0  0
   29.0958   13.2767    7.5026 N   0  0  0  0  0  0  0  0  0  0  0  0
   28.8018   14.3805    6.8231 C   0  0  0  0  0  0  0  0  0  0  0  0
   28.7780   15.4725    7.6877 C   0  0  0  0  0  0  0  0  0  0  0  0
   27.8626   15.4274    8.6723 O   0  0  0  0  0  0  0  0  0  0  0  0
   28.0616   14.2125    9.3710 C   0  0  0  0  0  0  0  0  0  0  0  0
   28.1909   13.1350    8.4857 C   0  0  0  0  0  0  0  0  0  0  0  0
  1  2  2  0
  2  3  2  0
  2  4  1  0
  4  5  2  0
  5  6  1  0
  6  7  2  0
  7  8  1  0
  7  9  1  0
  9 10  2  0
 10 11  1  0
  2 12  1  0
 12 13  1  0
 13 14  1  0
 14 15  1  0
 15 16  1  0
 16 17  1  0
 10  4  1  0
 17 12  1  0
A    1
 O1 
A    2
 S1 
A    3
 O2 
A    4
 C1 
A    5
 C2 
A    6
 C3 
A    7
 C4 
A    8
 F1 
A    9
 C5 
A   10
 C6 
A   11
 F2 
A   12
 N1 
A   13
 C7 
A   14
 C8 
A   15
 O3 
A   16
 C9 
A   17
 C10
M  END
>  <ref_pdb>  (74) 
Ax0310a

>  <ref_mols>  (74) 
Ax0446a,Ax1080a,Ax0812a,Ax0719a,Ax1140a,Ax0528a,Ax0310a

>  <original SMILES>  (74) 
O=S(=O)(c1ccc(F)cc1F)N1CCOCC1

>  <rationale>  (74) 
info info set:3d;halogenbond:C110; hbond:S87; 

>  <experiment>  (74) 
3d

>  <cluster_label>  (74) 
2

>  <cluster_rank>  (74) 
5

>  <N_interactions>  (74) 
2

>  <∆∆G>  (74) 
-0.378576

>  <comRMSD>  (74) 
0.931613

>  <ROCS_TanimotoCombo>  (74) 
0.319

>  <ROCS_ShapeTanimoto>  (74) 
0.21

>  <ROCS_ColorTanimoto>  (74) 
0.109

$$$$
EN300_7530327
     RDKit          3D

 15 15  0  0  0  0  0  0  0  0999 V2000
   40.5232   12.5516   13.7681 C   0  0  0  0  0  0  0  0  0  0  0  0
   40.1816   12.8498   12.4433 C   0  0  0  0  0  0  0  0  0  0  0  0
   41.1015   13.7357   11.7672 O   0  0  0  0  0  0  0  0  0  0  0  0
   39.0373   12.2986   11.8927 N   0  0  0  0  0  0  0  0  0  0  0  0
   38.3771   11.2059   12.5817 C   0  0  0  0  0  0  0  0  0  0  0  0
   37.0442   11.2411   12.2551 C   0  0  0  0  0  0  0  0  0  0  0  0
   36.7495   11.4209   10.9126 C   0  0  0  0  0  0  0  0  0  0  0  0
   37.2307   12.5423   10.2015 C   0  0  1  0  0  0  0  0  0  0  0  0
   36.2930   13.5250    9.4511 C   0  0  0  0  0  0  0  0  0  0  0  0
   34.8960   13.0124    9.3039 N   0  0  0  0  0  0  0  0  0  0  0  0
   33.7926   13.4453    8.0612 S   0  0  0  0  0  6  0  0  0  0  0  0
   32.9808   12.0013    7.3474 C   0  0  0  0  0  0  0  0  0  0  0  0
   32.7510   14.0773    8.8205 O   0  0  0  0  0  0  0  0  0  0  0  0
   34.4958   14.0949    6.9893 O   0  0  0  0  0  0  0  0  0  0  0  0
   38.1206   13.2279   11.2272 C   0  0  0  0  0  0  0  0  0  0  0  0
  1  2  1  0
  2  3  2  0
  2  4  1  0
  4  5  1  0
  5  6  1  0
  6  7  1  0
  7  8  1  0
  8  9  1  1
  9 10  1  0
 10 11  1  0
 11 12  1  0
 11 13  2  0
 11 14  2  0
  8 15  1  0
 15  4  1  0
A    1
 C1 
A    2
 C2 
A    3
 O1 
A    4
 N1 
A    5
 C3 
A    6
 C4 
A    7
 C5 
A    8
 C6 
A    9
 C7 
A   10
 N2 
A   11
 S1 
A   12
 C8 
A   13
 O2 
A   14
 O3 
A   15
 C9 
M  END
>  <ref_pdb>  (75) 
Ax0310a

>  <ref_mols>  (75) 
Ax0446a,Ax1080a,Ax0812a,Ax0719a,Ax1140a,Ax0528a,Ax0310a

>  <original SMILES>  (75) 
CC(=O)N1CCC[C@@H](CNS(C)(=O)=O)C1

>  <rationale>  (75) 
info info set:sulfonimide_whole;hbond:S87+G127; hydroph_interaction:L100+I82; 

>  <experiment>  (75) 
sulfonimide_whole

>  <cluster_label>  (75) 
15

>  <cluster_rank>  (75) 
5

>  <N_interactions>  (75) 
5

>  <∆∆G>  (75) 
-3.718898

>  <comRMSD>  (75) 
0.905002

>  <ROCS_TanimotoCombo>  (75) 
0.309

>  <ROCS_ShapeTanimoto>  (75) 
0.186

>  <ROCS_ColorTanimoto>  (75) 
0.123

$$$$
Z2055842473
     RDKit          3D

 18 19  0  0  0  0  0  0  0  0999 V2000
   30.3735    8.0544    8.6419 C   0  0  0  0  0  0  0  0  0  0  0  0
   30.6520    8.5976    7.3810 O   0  0  0  0  0  0  0  0  0  0  0  0
   31.5556    9.6099    7.5403 C   0  0  1  0  0  0  0  0  0  0  0  0
   32.4864    9.9088    6.4385 C   0  0  0  0  0  0  0  0  0  0  0  0
   32.9372   11.3280    6.6494 C   0  0  1  0  0  0  0  0  0  0  0  0
   33.5145   12.1427    5.4549 C   0  0  0  0  0  0  0  0  0  0  0  0
   34.4160   12.8630    5.8715 O   0  0  0  0  0  0  0  0  0  0  0  0
   31.7871   11.9144    7.2602 N   0  0  0  0  0  0  0  0  0  0  0  0
   31.9096   13.1604    7.8930 C   0  0  0  0  0  0  0  0  0  0  0  0
   32.9191   13.7633    8.2251 O   0  0  0  0  0  0  0  0  0  0  0  0
   30.5251   13.6617    8.1629 C   0  0  0  0  0  0  0  0  0  0  0  0
   29.7807   13.6670    6.8405 C   0  0  0  0  0  0  0  0  0  0  0  0
   28.3582   14.1447    6.7453 C   0  0  0  0  0  0  0  0  0  0  0  0
   27.7559   14.5933    8.0735 C   0  0  0  0  0  0  0  0  0  0  0  0
   28.5420   14.5148    9.2389 C   0  0  0  0  0  0  0  0  0  0  0  0
   27.9922   14.9304   10.7456 Cl  0  0  0  0  0  0  0  0  0  0  0  0
   29.9462   14.0536    9.2953 C   0  0  0  0  0  0  0  0  0  0  0  0
   30.8792   10.9353    7.8017 C   0  0  0  0  0  0  0  0  0  0  0  0
  1  2  1  0
  3  2  1  6
  3  4  1  0
  4  5  1  0
  5  6  1  6
  6  7  1  0
  5  8  1  0
  8  9  1  0
  9 10  2  0
  9 11  1  0
 11 12  2  0
 12 13  1  0
 13 14  2  0
 14 15  1  0
 15 16  1  0
 15 17  2  0
  8 18  1  0
 18  3  1  0
 17 11  1  0
A    1
 C1 
A    2
 O1 
A    3
 C2 
A    4
 C3 
A    5
 C4 
A    6
 C5 
A    7
 O2 
A    8
 N1 
A    9
 C6 
A   10
 O3 
A   11
 C7 
A   12
 C8 
A   13
 C9 
A   14
 C10
A   15
 C11
A   16
CL1 
A   17
 C12
A   18
 C13
M  END
>  <ref_pdb>  (76) 
Ax0310a

>  <ref_mols>  (76) 
Ax0446a,Ax1080a,Ax0812a,Ax0719a,Ax1140a,Ax0528a,Ax0310a

>  <original SMILES>  (76) 
CO[C@H]1C[C@@H](CO)N(C(=O)c2cccc(Cl)c2)C1

>  <rationale>  (76) 
info info set:3d;halogenbond:D39; hbond:S87+G127; hydroph_interaction:Y89; 

>  <experiment>  (76) 
3d

>  <cluster_label>  (76) 
18

>  <cluster_rank>  (76) 
5

>  <N_interactions>  (76) 
4

>  <∆∆G>  (76) 
-3.357122

>  <comRMSD>  (76) 
0.604477

>  <ROCS_TanimotoCombo>  (76) 
0.326

>  <ROCS_ShapeTanimoto>  (76) 
0.217

>  <ROCS_ColorTanimoto>  (76) 
0.109

$$$$
EN300_82953
     RDKit          3D

 11 11  0  0  0  0  0  0  0  0999 V2000
   30.4477    8.4492    9.1326 C   0  0  0  0  0  0  0  0  0  0  0  0
   30.3827    9.2437    7.9758 N   0  0  0  0  0  0  0  0  0  0  0  0
   31.4836    9.7076    7.2881 C   0  0  0  0  0  0  0  0  0  0  0  0
   32.3242    8.8604    6.6262 N   0  0  0  0  0  0  0  0  0  0  0  0
   33.3632    9.3841    5.9402 C   0  0  0  0  0  0  0  0  0  0  0  0
   33.6174   10.8855    5.9056 C   0  0  0  0  0  0  0  0  0  0  0  0
   32.7343   11.6667    6.6072 C   0  0  0  0  0  0  0  0  0  0  0  0
   31.6839   11.0757    7.2860 C   0  0  0  0  0  0  0  0  0  0  0  0
   30.8229   12.1083    7.9890 C   0  0  0  0  0  0  0  0  0  0  0  0
   29.4862   12.0442    7.7482 N   0  0  0  0  0  0  0  0  0  0  0  0
   31.2673   12.9647    8.7224 O   0  0  0  0  0  0  0  0  0  0  0  0
  1  2  1  0
  2  3  1  0
  3  4  2  0
  4  5  1  0
  5  6  2  0
  6  7  1  0
  7  8  2  0
  8  9  1  0
  9 10  1  0
  9 11  2  0
  8  3  1  0
A    1
 C1 
A    2
 N1 
A    3
 C2 
A    4
 N2 
A    5
 C3 
A    6
 C4 
A    7
 C5 
A    8
 C6 
A    9
 C7 
A   10
 N3 
A   11
 O1 
M  END
>  <ref_pdb>  (77) 
Ax0310a

>  <ref_mols>  (77) 
Ax0446a,Ax1080a,Ax0812a,Ax0719a,Ax1140a,Ax0528a,Ax0310a

>  <original SMILES>  (77) 
CNc1ncccc1C(N)=O

>  <rationale>  (77) 
info info set:bb_densepocket2;hbond:G127+P107; 

>  <experiment>  (77) 
bb_densepocket2

>  <cluster_label>  (77) 
11

>  <cluster_rank>  (77) 
5

>  <N_interactions>  (77) 
2

>  <∆∆G>  (77) 
-4.527532

>  <comRMSD>  (77) 
0.819452

>  <ROCS_TanimotoCombo>  (77) 
0.613

>  <ROCS_ShapeTanimoto>  (77) 
0.214

>  <ROCS_ColorTanimoto>  (77) 
0.399

$$$$
Z1375235618
     RDKit          3D

 19 20  0  0  0  0  0  0  0  0999 V2000
   32.0536   12.9871    6.0083 C   0  0  0  0  0  0  0  0  0  0  0  0
   32.1143   11.5222    6.3543 C   0  0  0  0  0  0  0  0  0  0  0  0
   33.1936   10.8555    5.6435 N   0  0  0  0  0  0  0  0  0  0  0  0
   33.3028    9.4823    5.9202 C   0  0  0  0  0  0  0  0  0  0  0  0
   34.3597    8.7791    5.2218 O   0  0  0  0  0  0  0  0  0  0  0  0
   32.4029    8.8082    6.8572 N   0  0  0  0  0  0  0  0  0  0  0  0
   31.4365    9.4933    7.4701 C   0  0  0  0  0  0  0  0  0  0  0  0
   30.7224    8.6900    8.2879 O   0  0  0  0  0  0  0  0  0  0  0  0
   31.0983   10.9626    7.3386 C   0  0  0  0  0  0  0  0  0  0  0  0
   30.0642   11.6856    7.9709 N   0  0  0  0  0  0  0  0  0  0  0  0
   28.9596   11.0212    8.4534 C   0  0  0  0  0  0  0  0  0  0  0  0
   28.8792    9.5725    8.5961 O   0  0  0  0  0  0  0  0  0  0  0  0
   27.7143   11.7060    8.9250 C   0  0  0  0  0  0  0  0  0  0  0  0
   28.0919   12.9522    8.2072 C   0  0  0  0  0  0  0  0  0  0  0  0
   27.6198   13.0398    6.8347 C   0  0  0  0  0  0  0  0  0  0  0  0
   27.9577   14.2357    6.0821 C   0  0  0  0  0  0  0  0  0  0  0  0
   28.7036   15.1555    6.8097 C   0  0  0  0  0  0  0  0  0  0  0  0
   29.1249   15.0695    8.0772 N   0  0  0  0  0  0  0  0  0  0  0  0
   28.8159   13.9754    8.7566 C   0  0  0  0  0  0  0  0  0  0  0  0
  1  2  1  0
  2  3  2  0
  3  4  1  0
  4  5  1  0
  4  6  2  0
  6  7  1  0
  7  8  1  0
  7  9  2  0
  9 10  1  0
 10 11  1  0
 11 12  2  0
 11 13  1  0
 13 14  1  0
 14 15  2  0
 15 16  1  0
 16 17  2  0
 17 18  1  0
 18 19  2  0
  9  2  1  0
 19 14  1  0
A    1
 C1 
A    2
 C2 
A    3
 N1 
A    4
 C3 
A    5
 O1 
A    6
 N2 
A    7
 C4 
A    8
 O2 
A    9
 C5 
A   10
 N3 
A   11
 C6 
A   12
 O3 
A   13
 C7 
A   14
 C8 
A   15
 C9 
A   16
 C10
A   17
 C11
A   18
 N4 
A   19
 C12
M  END
>  <ref_pdb>  (78) 
Ax0310a

>  <ref_mols>  (78) 
Ax0446a,Ax1080a,Ax0812a,Ax0719a,Ax1140a,Ax0528a,Ax0310a

>  <original SMILES>  (78) 
Cc1nc(O)nc(O)c1NC(=O)Cc1cccnc1

>  <rationale>  (78) 
info info set:screening_pocket;hbond:S87+S105+C110; hydroph_interaction:Y89; 

>  <experiment>  (78) 
screening_pocket

>  <cluster_label>  (78) 
16

>  <cluster_rank>  (78) 
5

>  <N_interactions>  (78) 
4

>  <∆∆G>  (78) 
-3.495724

>  <comRMSD>  (78) 
0.621095

>  <ROCS_TanimotoCombo>  (78) 
0.673

>  <ROCS_ShapeTanimoto>  (78) 
0.255

>  <ROCS_ColorTanimoto>  (78) 
0.418

$$$$
EN300_6760189
     RDKit          3D

 15 16  0  0  0  0  0  0  0  0999 V2000
   34.8307   14.8950    7.9188 N   0  0  0  0  0  0  0  0  0  0  0  0
   33.9804   13.4661    8.1082 S   0  0  0  0  0  6  0  0  0  0  0  0
   34.0293   12.9335    6.7645 O   0  0  0  0  0  0  0  0  0  0  0  0
   34.5777   12.8377    9.2226 O   0  0  0  0  0  0  0  0  0  0  0  0
   32.3011   13.8531    8.6293 C   0  0  0  0  0  0  0  0  0  0  0  0
   31.9145   14.9737    9.3076 N   0  0  0  0  0  0  0  0  0  0  0  0
   30.5974   15.0053    9.5044 N   0  0  0  0  0  0  0  0  0  0  0  0
   29.7187   13.6854    8.9163 S   0  0  0  0  0  0  0  0  0  0  0  0
   31.1434   12.9481    8.3614 C   0  0  0  0  0  0  0  0  0  0  0  0
   31.4545   11.5973    7.7277 C   0  0  0  0  0  0  0  0  0  0  0  0
   32.4594   11.6196    6.6382 C   0  0  0  0  0  0  0  0  0  0  0  0
   32.8635   10.2680    6.0276 C   0  0  0  0  0  0  0  0  0  0  0  0
   32.1432    9.0597    6.6571 C   0  0  0  0  0  0  0  0  0  0  0  0
   31.2087    9.2640    7.6620 C   0  0  0  0  0  0  0  0  0  0  0  0
   30.8499   10.4525    8.1984 C   0  0  0  0  0  0  0  0  0  0  0  0
  1  2  1  0
  2  3  2  0
  2  4  2  0
  2  5  1  0
  5  6  1  0
  6  7  2  0
  7  8  1  0
  8  9  1  0
  9 10  1  0
 10 11  2  0
 11 12  1  0
 12 13  2  0
 13 14  1  0
 14 15  2  0
  9  5  2  0
 15 10  1  0
A    1
 N1 
A    2
 S1 
A    3
 O1 
A    4
 O2 
A    5
 C1 
A    6
 N2 
A    7
 N3 
A    8
 S2 
A    9
 C2 
A   10
 C3 
A   11
 C4 
A   12
 C5 
A   13
 C6 
A   14
 C7 
A   15
 C8 
M  END
>  <ref_pdb>  (79) 
Ax0310a

>  <ref_mols>  (79) 
Ax0446a,Ax1080a,Ax0812a,Ax0719a,Ax1140a,Ax0528a,Ax0310a

>  <original SMILES>  (79) 
NS(=O)(=O)c1nnsc1-c1ccccc1

>  <rationale>  (79) 
info info set:sulfonimide_whole;hbond:S87+G127+A86; hydroph_interaction:P107; 

>  <experiment>  (79) 
sulfonimide_whole

>  <cluster_label>  (79) 
5

>  <cluster_rank>  (79) 
5

>  <N_interactions>  (79) 
4

>  <∆∆G>  (79) 
-4.500111

>  <comRMSD>  (79) 
0.590884

>  <ROCS_TanimotoCombo>  (79) 
0.356

>  <ROCS_ShapeTanimoto>  (79) 
0.196

>  <ROCS_ColorTanimoto>  (79) 
0.16

$$$$
EN300_23819
     RDKit          3D

 18 19  0  0  0  0  0  0  0  0999 V2000
   39.1578   10.6787   10.7269 C   0  0  0  0  0  0  0  0  0  0  0  0
   39.0484   11.0384   12.2018 C   0  0  2  0  0  0  0  0  0  0  0  0
   37.5517   10.9760   12.4322 C   0  0  0  0  0  0  0  0  0  0  0  0
   37.3131   11.9878   11.4098 C   0  0  0  0  0  0  0  0  0  0  0  0
   36.0235   11.9801   10.7439 C   0  0  0  0  0  0  0  0  0  0  0  0
   36.0057   13.1757    9.7322 C   0  0  0  0  0  0  0  0  0  0  0  0
   34.5628   13.6177    8.7268 S   0  0  0  0  0  6  0  0  0  0  0  0
   35.1525   14.6955    7.5763 N   0  0  0  0  0  0  0  0  0  0  0  0
   33.5823   14.3110    9.5185 O   0  0  0  0  0  0  0  0  0  0  0  0
   33.8697   12.5272    8.0845 O   0  0  0  0  0  0  0  0  0  0  0  0
   37.1898   14.0100    9.5521 C   0  0  0  0  0  0  0  0  0  0  0  0
   38.4320   13.9490   10.2074 C   0  0  0  0  0  0  0  0  0  0  0  0
   38.4560   12.8721   11.2171 C   0  0  0  0  0  0  0  0  0  0  0  0
   39.3437   12.4544   12.0828 N   0  0  0  0  0  0  0  0  0  0  0  0
   40.4376   12.9975   12.6657 C   0  0  0  0  0  0  0  0  0  0  0  0
   41.2526   13.8019   11.9552 O   0  0  0  0  0  0  0  0  0  0  0  0
   40.7583   12.7132   14.1245 C   0  0  0  0  0  0  0  0  0  0  0  0
   42.1941   11.6874   14.2766 Cl  0  0  0  0  0  0  0  0  0  0  0  0
  2  1  1  6
  2  3  1  0
  3  4  1  0
  4  5  2  0
  5  6  1  0
  6  7  1  0
  7  8  1  0
  7  9  2  0
  7 10  2  0
  6 11  2  0
 11 12  1  0
 12 13  2  0
 13 14  1  0
 14 15  1  0
 15 16  2  0
 15 17  1  0
 17 18  1  0
 14  2  1  0
 13  4  1  0
A    1
 C1 
A    2
 C2 
A    3
 C3 
A    4
 C4 
A    5
 C5 
A    6
 C6 
A    7
 S1 
A    8
 N1 
A    9
 O1 
A   10
 O2 
A   11
 C7 
A   12
 C8 
A   13
 C9 
A   14
 N2 
A   15
 C10
A   16
 O3 
A   17
 C11
A   18
CL1 
M  END
>  <ref_pdb>  (80) 
Ax0310a

>  <ref_mols>  (80) 
Ax0446a,Ax1080a,Ax0812a,Ax0719a,Ax1140a,Ax0528a,Ax0310a

>  <original SMILES>  (80) 
C[C@@H]1Cc2cc(S(N)(=O)=O)ccc2N1C(=O)CCl

>  <rationale>  (80) 
info info set:sulfonimide_whole;hbond:G127+E85; hydroph_interaction:V84+E85+L100+L131; 

>  <experiment>  (80) 
sulfonimide_whole

>  <cluster_label>  (80) 
17

>  <cluster_rank>  (80) 
5

>  <N_interactions>  (80) 
7

>  <∆∆G>  (80) 
-2.674577

>  <comRMSD>  (80) 
0.870788

>  <ROCS_TanimotoCombo>  (80) 
0.31

>  <ROCS_ShapeTanimoto>  (80) 
0.189

>  <ROCS_ColorTanimoto>  (80) 
0.121

$$$$
Z2057686868
     RDKit          3D

 18 19  0  0  0  0  0  0  0  0999 V2000
   34.9993   10.8461    4.8365 N   0  0  0  0  0  0  0  0  0  0  0  0
   34.0417   10.8321    5.4951 C   0  0  0  0  0  0  0  0  0  0  0  0
   32.8500   10.7517    6.3942 C   0  0  0  0  0  0  0  0  0  0  0  0
   32.1997   11.8146    6.8813 C   0  0  0  0  0  0  0  0  0  0  0  0
   31.0729   11.6153    7.7434 C   0  0  0  0  0  0  0  0  0  0  0  0
   30.4051   12.6413    8.2521 C   0  0  0  0  0  0  0  0  0  0  0  0
   29.9181   13.5965    7.3572 N   0  0  0  0  0  0  0  0  0  0  0  0
   29.1960   13.3143    6.2411 C   0  0  0  0  0  0  0  0  0  0  0  0
   27.8107   13.4134    6.6747 C   0  0  1  0  0  0  0  0  0  0  0  0
   27.2454   12.1965    6.7660 F   0  0  0  0  0  0  0  0  0  0  0  0
   27.8987   14.0223    7.9864 C   0  0  0  0  0  0  0  0  0  0  0  0
   29.1870   14.5447    8.1322 C   0  0  1  0  0  0  0  0  0  0  0  0
   29.5799   14.7097    9.5920 C   0  0  0  0  0  0  0  0  0  0  0  0
   30.8033   15.4307    9.7347 O   0  0  0  0  0  0  0  0  0  0  0  0
   30.6882   10.3132    8.0513 C   0  0  0  0  0  0  0  0  0  0  0  0
   31.3473    9.2170    7.5524 C   0  0  0  0  0  0  0  0  0  0  0  0
   32.4257    9.4901    6.7250 C   0  0  0  0  0  0  0  0  0  0  0  0
   33.1061    8.5123    6.2149 F   0  0  0  0  0  0  0  0  0  0  0  0
  1  2  3  0
  2  3  1  0
  3  4  2  0
  4  5  1  0
  5  6  1  0
  6  7  1  0
  7  8  1  0
  8  9  1  0
  9 10  1  1
  9 11  1  0
 11 12  1  0
 12 13  1  1
 13 14  1  0
  5 15  2  0
 15 16  1  0
 16 17  2  0
 17 18  1  0
 17  3  1  0
 12  7  1  0
A    1
 N1 
A    2
 C1 
A    3
 C2 
A    4
 C3 
A    5
 C4 
A    6
 C5 
A    7
 N2 
A    8
 C6 
A    9
 C7 
A   10
 F1 
A   11
 C8 
A   12
 C9 
A   13
 C10
A   14
 O1 
A   15
 C11
A   16
 C12
A   17
 C13
A   18
 F2 
M  END
>  <ref_pdb>  (81) 
Ax0310a

>  <ref_mols>  (81) 
Ax0446a,Ax1080a,Ax0812a,Ax0719a,Ax1140a,Ax0528a,Ax0310a

>  <original SMILES>  (81) 
N#Cc1cc(CN2C[C@@H](F)C[C@H]2CO)ccc1F

>  <rationale>  (81) 
info info set:3d;halogenbond:S105+P107; hbond:S87; pication:H21; 

>  <experiment>  (81) 
3d

>  <cluster_label>  (81) 
12

>  <cluster_rank>  (81) 
5

>  <N_interactions>  (81) 
4

>  <∆∆G>  (81) 
-3.987594

>  <comRMSD>  (81) 
0.568536

>  <ROCS_TanimotoCombo>  (81) 
0.328

>  <ROCS_ShapeTanimoto>  (81) 
0.22

>  <ROCS_ColorTanimoto>  (81) 
0.107

$$$$
EN300_279345
     RDKit          3D

 13 14  0  0  0  0  0  0  0  0999 V2000
   28.7640   13.4196    9.1771 N   0  0  0  0  0  0  0  0  0  0  0  0
   30.0031   13.9535    8.2069 S   0  0  0  0  0  6  0  0  0  0  0  0
   30.8780   14.7118    9.0757 O   0  0  0  0  0  0  0  0  0  0  0  0
   29.2667   14.5267    7.1131 O   0  0  0  0  0  0  0  0  0  0  0  0
   30.8764   12.5167    7.6231 C   0  0  0  0  0  0  0  0  0  0  0  0
   31.9033   12.7374    6.5667 C   0  0  0  0  0  0  0  0  0  0  0  0
   32.5872   11.6630    6.0899 C   0  0  0  0  0  0  0  0  0  0  0  0
   32.2669   10.3312    6.6581 C   0  0  0  0  0  0  0  0  0  0  0  0
   32.6921    9.1185    6.4615 N   0  0  0  0  0  0  0  0  0  0  0  0
   31.9614    8.3590    7.3432 N   0  0  0  0  0  0  0  0  0  0  0  0
   31.1226    9.0909    8.0410 N   0  0  0  0  0  0  0  0  0  0  0  0
   31.3172   10.3310    7.6055 N   0  0  0  0  0  0  0  0  0  0  0  0
   30.5895   11.3603    8.1302 N   0  0  0  0  0  0  0  0  0  0  0  0
  1  2  1  0
  2  3  2  0
  2  4  2  0
  2  5  1  0
  5  6  1  0
  6  7  2  0
  7  8  1  0
  8  9  2  0
  9 10  1  0
 10 11  2  0
 11 12  1  0
 12 13  1  0
 13  5  2  0
 12  8  1  0
A    1
 N1 
A    2
 S1 
A    3
 O1 
A    4
 O2 
A    5
 C1 
A    6
 C2 
A    7
 C3 
A    8
 C4 
A    9
 N2 
A   10
 N3 
A   11
 N4 
A   12
 N5 
A   13
 N6 
M  END
>  <ref_pdb>  (82) 
Ax0310a

>  <ref_mols>  (82) 
Ax0446a,Ax1080a,Ax0812a,Ax0719a,Ax1140a,Ax0528a,Ax0310a

>  <original SMILES>  (82) 
NS(=O)(=O)c1ccc2nnnn2n1

>  <rationale>  (82) 
info info set:sulfonimide_whole;hbond:S87+S125+G127+E88; hydroph_interaction:P107; 

>  <experiment>  (82) 
sulfonimide_whole

>  <cluster_label>  (82) 
8

>  <cluster_rank>  (82) 
5

>  <N_interactions>  (82) 
5

>  <∆∆G>  (82) 
-1.668027

>  <comRMSD>  (82) 
0.452461

>  <ROCS_TanimotoCombo>  (82) 
0.355

>  <ROCS_ShapeTanimoto>  (82) 
0.199

>  <ROCS_ColorTanimoto>  (82) 
0.156

$$$$
Z425224490
     RDKit          3D

 23 26  0  0  0  0  0  0  0  0999 V2000
   30.6061   12.7300    6.1912 O   0  0  0  0  0  0  0  0  0  0  0  0
   30.2458   12.6341    7.3625 C   0  0  0  0  0  0  0  0  0  0  0  0
   30.6965   11.6696    8.2084 N   0  0  0  0  0  0  0  0  0  0  0  0
   31.3767   10.6809    7.6638 N   0  0  0  0  0  0  0  0  0  0  0  0
   31.1587    9.3566    7.8020 C   0  0  0  0  0  0  0  0  0  0  0  0
   32.0418    8.6879    7.1017 N   0  0  0  0  0  0  0  0  0  0  0  0
   32.8334    9.6555    6.4958 C   0  0  0  0  0  0  0  0  0  0  0  0
   33.9218    9.5367    5.6323 C   0  0  0  0  0  0  0  0  0  0  0  0
   34.5126   10.7201    5.2102 C   0  0  0  0  0  0  0  0  0  0  0  0
   34.1185   12.0007    5.5655 C   0  0  0  0  0  0  0  0  0  0  0  0
   33.0277   12.1344    6.4210 C   0  0  0  0  0  0  0  0  0  0  0  0
   32.4243   10.9353    6.8545 C   0  0  0  0  0  0  0  0  0  0  0  0
   29.3080   13.5570    7.9346 C   0  0  0  0  0  0  0  0  0  0  0  0
   28.1529   13.5607    7.2637 C   0  0  0  0  0  0  0  0  0  0  0  0
   27.0484   14.5180    7.7728 C   0  0  0  0  0  0  0  0  0  0  0  0
   27.2137   15.3147    8.8607 C   0  0  0  0  0  0  0  0  0  0  0  0
   28.4251   15.1982    9.4301 C   0  0  0  0  0  0  0  0  0  0  0  0
   29.4598   14.3951    9.0338 C   0  0  0  0  0  0  0  0  0  0  0  0
   30.5852   14.5751    9.8347 N   0  0  0  0  0  0  0  0  0  0  0  0
   30.6373   14.6617   11.2168 C   0  0  0  0  0  0  0  0  0  0  0  0
   32.0709   14.9199   11.4668 C   0  0  0  0  0  0  0  0  0  0  0  0
   32.7211   14.9417   10.1284 C   0  0  0  0  0  0  0  0  0  0  0  0
   31.7935   14.7200    9.2246 N   0  0  0  0  0  0  0  0  0  0  0  0
  1  2  2  0
  2  3  1  0
  3  4  1  0
  4  5  1  0
  5  6  2  0
  6  7  1  0
  7  8  2  0
  8  9  1  0
  9 10  2  0
 10 11  1  0
 11 12  2  0
  2 13  1  0
 13 14  2  0
 14 15  1  0
 15 16  2  0
 16 17  1  0
 17 18  2  0
 18 19  1  0
 19 20  1  0
 20 21  2  0
 21 22  1  0
 22 23  2  0
 12  4  1  0
 18 13  1  0
 23 19  1  0
 12  7  1  0
A    1
 O1 
A    2
 C1 
A    3
 N1 
A    4
 N2 
A    5
 C2 
A    6
 N3 
A    7
 C3 
A    8
 C4 
A    9
 C5 
A   10
 C6 
A   11
 C7 
A   12
 C8 
A   13
 C9 
A   14
 C10
A   15
 C11
A   16
 C12
A   17
 C13
A   18
 C14
A   19
 N4 
A   20
 C15
A   21
 C16
A   22
 C17
A   23
 N5 
M  END
>  <ref_pdb>  (83) 
Ax0310a

>  <ref_mols>  (83) 
Ax0446a,Ax1080a,Ax0812a,Ax0719a,Ax1140a,Ax0528a,Ax0310a

>  <original SMILES>  (83) 
O=C(Nn1cnc2ccccc21)c1ccccc1-n1cccn1

>  <rationale>  (83) 
info info set:screening_whole;hbond:S87+S125+G127; hydroph_interaction:Y89+Y90+H21+V84; 

>  <experiment>  (83) 
screening_whole

>  <cluster_label>  (83) 
9

>  <cluster_rank>  (83) 
5

>  <N_interactions>  (83) 
8

>  <∆∆G>  (83) 
-7.184718

>  <comRMSD>  (83) 
0.532872

>  <ROCS_TanimotoCombo>  (83) 
0.459

>  <ROCS_ShapeTanimoto>  (83) 
0.255

>  <ROCS_ColorTanimoto>  (83) 
0.204

$$$$
EN300_1873712
     RDKit          3D

 18 18  0  0  0  0  0  0  0  0999 V2000
   27.3932   14.2520    9.5153 C   0  0  0  0  0  0  0  0  0  0  0  0
   28.0635   14.2014    8.3204 C   0  0  0  0  0  0  0  0  0  0  0  0
   28.9017   15.2383    8.1164 C   0  0  0  0  0  0  0  0  0  0  0  0
   27.2342   14.0734    7.0562 C   0  0  0  0  0  0  0  0  0  0  0  0
   28.7528   12.9809    8.4440 O   0  0  0  0  0  0  0  0  0  0  0  0
   29.6554   12.7272    7.5295 C   0  0  0  0  0  0  0  0  0  0  0  0
   29.5374   12.8496    6.3217 O   0  0  0  0  0  0  0  0  0  0  0  0
   30.7259   12.3201    8.2077 N   0  0  0  0  0  0  0  0  0  0  0  0
   31.8176   11.6367    7.5389 C   0  0  0  0  0  0  0  0  0  0  0  0
   33.0607   12.4989    7.3928 C   0  0  0  0  0  0  0  0  0  0  0  0
   33.5975   13.6716    8.5843 S   0  0  0  0  0  6  0  0  0  0  0  0
   34.6304   14.6842    7.7278 N   0  0  0  0  0  0  0  0  0  0  0  0
   34.4351   12.9487    9.4440 O   0  0  0  0  0  0  0  0  0  0  0  0
   32.4652   14.4393    9.0676 O   0  0  0  0  0  0  0  0  0  0  0  0
   31.5481   11.6799    6.1079 C   0  0  0  0  0  0  0  0  0  0  0  0
   32.6906   10.8073    5.6115 C   0  0  0  0  0  0  0  0  0  0  0  0
   32.5637    9.5812    6.4516 C   0  0  0  0  0  0  0  0  0  0  0  0
   31.6766   10.0823    7.5640 C   0  0  0  0  0  0  0  0  0  0  0  0
  1  2  1  0
  2  3  1  0
  2  4  1  0
  2  5  1  0
  5  6  1  0
  6  7  2  0
  6  8  1  0
  8  9  1  0
  9 10  1  0
 10 11  1  0
 11 12  1  0
 11 13  2  0
 11 14  2  0
  9 15  1  0
 15 16  1  0
 16 17  1  0
 17 18  1  0
 18  9  1  0
A    1
 C1 
A    2
 C2 
A    3
 C3 
A    4
 C4 
A    5
 O1 
A    6
 C5 
A    7
 O2 
A    8
 N1 
A    9
 C6 
A   10
 C7 
A   11
 S1 
A   12
 N2 
A   13
 O3 
A   14
 O4 
A   15
 C8 
A   16
 C9 
A   17
 C10
A   18
 C11
M  END
>  <ref_pdb>  (84) 
Ax0310a

>  <ref_mols>  (84) 
Ax0446a,Ax1080a,Ax0812a,Ax0719a,Ax1140a,Ax0528a,Ax0310a

>  <original SMILES>  (84) 
CC(C)(C)OC(=O)NC1(CS(N)(=O)=O)CCCC1

>  <rationale>  (84) 
info info set:sulfonimide_whole;hbond:S87+S125+G127+E85; hydroph_interaction:P107+Y89+Y90; 

>  <experiment>  (84) 
sulfonimide_whole

>  <cluster_label>  (84) 
3

>  <cluster_rank>  (84) 
5

>  <N_interactions>  (84) 
8

>  <∆∆G>  (84) 
-5.42522

>  <comRMSD>  (84) 
0.899133

>  <ROCS_TanimotoCombo>  (84) 
0.377

>  <ROCS_ShapeTanimoto>  (84) 
0.208

>  <ROCS_ColorTanimoto>  (84) 
0.169

$$$$
EN300_228917
     RDKit          3D

 25 27  0  0  0  0  0  0  0  0999 V2000
   28.3511   17.0988    9.0627 C   0  0  0  0  0  0  0  0  0  0  0  0
   27.3675   16.0870    9.3409 C   0  0  0  0  0  0  0  0  0  0  0  0
   27.1535   15.5364   10.7212 C   0  0  0  0  0  0  0  0  0  0  0  0
   28.1007   15.0671    8.7563 C   0  0  0  0  0  0  0  0  0  0  0  0
   27.4545   14.1747    7.7252 C   0  0  0  0  0  0  0  0  0  0  0  0
   28.3979   13.1136    7.3016 C   0  0  0  0  0  0  0  0  0  0  0  0
   29.7123   13.2265    7.9884 C   0  0  0  0  0  0  0  0  0  0  0  0
   30.4932   12.1259    7.5876 C   0  0  0  0  0  0  0  0  0  0  0  0
   29.9104   10.9271    8.1871 C   0  0  0  0  0  0  0  0  0  0  0  0
   30.5128    9.6063    8.0027 C   0  0  0  0  0  0  0  0  0  0  0  0
   29.7439    8.6463    8.8435 C   0  0  0  0  0  0  0  0  0  0  0  0
   29.1573    7.6043    8.3063 F   0  0  0  0  0  0  0  0  0  0  0  0
   30.6214    8.1993    9.7496 F   0  0  0  0  0  0  0  0  0  0  0  0
   28.7736    9.2817    9.5242 F   0  0  0  0  0  0  0  0  0  0  0  0
   31.6875    9.6359    7.1687 N   0  0  0  0  0  0  0  0  0  0  0  0
   32.4051    8.6730    6.8033 N   0  0  0  0  0  0  0  0  0  0  0  0
   33.3998    9.1845    6.0731 C   0  0  0  0  0  0  0  0  0  0  0  0
   33.2382   10.6693    6.0060 C   0  0  0  0  0  0  0  0  0  0  0  0
   34.2247   11.5684    5.2801 C   0  0  0  0  0  0  0  0  0  0  0  0
   33.9894   12.6470    4.7735 O   0  0  0  0  0  0  0  0  0  0  0  0
   35.4856   11.0952    5.2642 O   0  0  0  0  0  0  0  0  0  0  0  0
   32.1325   10.9066    6.6862 C   0  0  0  0  0  0  0  0  0  0  0  0
   31.5444   12.0975    6.8971 N   0  0  0  0  0  0  0  0  0  0  0  0
   30.2012   14.1040    8.8785 C   0  0  0  0  0  0  0  0  0  0  0  0
   29.3724   15.0398    9.2671 C   0  0  0  0  0  0  0  0  0  0  0  0
  1  2  1  0
  2  3  1  0
  2  4  1  0
  4  5  2  0
  5  6  1  0
  6  7  2  0
  7  8  1  0
  8  9  1  0
  9 10  2  0
 10 11  1  0
 11 12  1  0
 11 13  1  0
 11 14  1  0
 10 15  1  0
 15 16  1  0
 16 17  2  0
 17 18  1  0
 18 19  1  0
 19 20  2  0
 19 21  1  0
 18 22  2  0
 22 23  1  0
  7 24  1  0
 24 25  2  0
 25  4  1  0
 23  8  2  0
 22 15  1  0
A    1
 C1 
A    2
 C2 
A    3
 C3 
A    4
 C4 
A    5
 C5 
A    6
 C6 
A    7
 C7 
A    8
 C8 
A    9
 C9 
A   10
 C10
A   11
 C11
A   12
 F1 
A   13
 F2 
A   14
 F3 
A   15
 N1 
A   16
 N2 
A   17
 C12
A   18
 C13
A   19
 C14
A   20
 O1 
A   21
 O2 
A   22
 C15
A   23
 N3 
A   24
 C16
A   25
 C17
M  END
>  <ref_pdb>  (85) 
Ax0310a

>  <ref_mols>  (85) 
Ax0446a,Ax1080a,Ax0812a,Ax0719a,Ax1140a,Ax0528a,Ax0310a

>  <original SMILES>  (85) 
CC(C)c1ccc(-c2cc(C(F)(F)F)n3ncc(C(=O)O)c3n2)cc1

>  <rationale>  (85) 
info info set:bb_whole;halogenbond:T126; hbond:S87+G127; hydroph_interaction:Y89+Y90+H21+D39; 

>  <experiment>  (85) 
bb_whole

>  <cluster_label>  (85) 
7

>  <cluster_rank>  (85) 
5

>  <N_interactions>  (85) 
8

>  <∆∆G>  (85) 
-0.347927

>  <comRMSD>  (85) 
0.971669

>  <ROCS_TanimotoCombo>  (85) 
0.415

>  <ROCS_ShapeTanimoto>  (85) 
0.263

>  <ROCS_ColorTanimoto>  (85) 
0.153

$$$$
Z324800370
     RDKit          3D

 21 23  0  0  0  0  0  0  0  0999 V2000
   37.2074   10.3462    0.4836 C   0  0  0  0  0  0  0  0  0  0  0  0
   36.3802    9.9862    1.7295 C   0  0  0  0  0  0  0  0  0  0  0  0
   36.8769    8.7638    2.4863 C   0  0  0  0  0  0  0  0  0  0  0  0
   36.1070    8.3563    3.7239 C   0  0  0  0  0  0  0  0  0  0  0  0
   34.8910    9.2102    4.1274 C   0  0  0  0  0  0  0  0  0  0  0  0
   34.2264    8.8304    5.2561 N   0  0  0  0  0  0  0  0  0  0  0  0
   33.3282    9.6344    5.9207 C   0  0  0  0  0  0  0  0  0  0  0  0
   33.4105   10.9721    5.8355 N   0  0  0  0  0  0  0  0  0  0  0  0
   32.5197   11.7293    6.4919 C   0  0  0  0  0  0  0  0  0  0  0  0
   31.4058   11.1376    7.3363 C   0  0  0  0  0  0  0  0  0  0  0  0
   30.4410   11.9266    8.0368 N   0  0  0  0  0  4  0  0  0  0  0  0
   30.8866   12.8161    8.7678 O   0  0  0  0  0  0  0  0  0  0  0  0
   29.3174   11.9815    7.5229 O   0  0  0  0  0  1  0  0  0  0  0  0
   31.4529    9.6354    7.3299 C   0  0  0  0  0  0  0  0  0  0  0  0
   30.4829    8.9460    8.0522 N   0  0  0  0  0  0  0  0  0  0  0  0
   30.8118    8.1020    8.9800 C   0  0  0  0  0  0  0  0  0  0  0  0
   30.1679    8.0307   10.2650 C   0  0  0  0  0  0  0  0  0  0  0  0
   29.7039    7.0101    9.4142 C   0  0  0  0  0  0  0  0  0  0  0  0
   32.4003    8.9720    6.6375 N   0  0  0  0  0  0  0  0  0  0  0  0
   34.5539   10.3048    3.3257 C   0  0  0  0  0  0  0  0  0  0  0  0
   35.2569   10.6930    2.1696 C   0  0  0  0  0  0  0  0  0  0  0  0
  1  2  1  0
  2  3  2  0
  3  4  1  0
  4  5  2  0
  5  6  1  0
  6  7  1  0
  7  8  2  0
  8  9  1  0
  9 10  2  0
 10 11  1  0
 11 12  2  0
 11 13  1  0
 10 14  1  0
 14 15  1  0
 15 16  1  0
 16 17  1  0
 17 18  1  0
 14 19  2  0
  5 20  1  0
 20 21  2  0
 21  2  1  0
 19  7  1  0
 18 16  1  0
M  CHG  2  11   1  13  -1
A    1
 C1 
A    2
 C2 
A    3
 C3 
A    4
 C4 
A    5
 C5 
A    6
 N1 
A    7
 C6 
A    8
 N2 
A    9
 C7 
A   10
 C8 
A   11
 N3 
A   12
 O1 
A   13
 O2 
A   14
 C9 
A   15
 N4 
A   16
 C10
A   17
 C11
A   18
 C12
A   19
 N5 
A   20
 C13
A   21
 C14
M  END
>  <ref_pdb>  (86) 
Ax0310a

>  <ref_mols>  (86) 
Ax0446a,Ax1080a,Ax0812a,Ax0719a,Ax1140a,Ax0528a,Ax0310a

>  <original SMILES>  (86) 
Cc1ccc(Nc2ncc([N+](=O)[O-])c(NC3CC3)n2)cc1

>  <rationale>  (86) 
info info set:screening_pocket;hbond:S105+G127+P107; hydroph_interaction:V124+D109; 

>  <experiment>  (86) 
screening_pocket

>  <cluster_label>  (86) 
11

>  <cluster_rank>  (86) 
6

>  <N_interactions>  (86) 
5

>  <∆∆G>  (86) 
-0.93309

>  <comRMSD>  (86) 
0.652126

>  <ROCS_TanimotoCombo>  (86) 
0.627

>  <ROCS_ShapeTanimoto>  (86) 
0.255

>  <ROCS_ColorTanimoto>  (86) 
0.372

$$$$
Z94598474
     RDKit          3D

 17 18  0  0  0  0  0  0  0  0999 V2000
   30.7161   13.2590    9.3643 O   0  0  0  0  0  0  0  0  0  0  0  0
   30.7965   13.0988    7.9441 S   0  0  0  0  0  6  0  0  0  0  0  0
   31.7527   13.8504    7.2505 O   0  0  0  0  0  0  0  0  0  0  0  0
   31.4372   11.5419    7.4065 C   0  0  0  0  0  0  0  0  0  0  0  0
   32.3986   11.7255    6.4240 C   0  0  0  0  0  0  0  0  0  0  0  0
   33.0660   10.4922    5.8521 C   0  0  0  0  0  0  0  0  0  0  0  0
   33.9992   10.6169    4.9017 F   0  0  0  0  0  0  0  0  0  0  0  0
   32.7067    9.2370    6.3148 C   0  0  0  0  0  0  0  0  0  0  0  0
   31.7390    9.0734    7.2995 C   0  0  0  0  0  0  0  0  0  0  0  0
   31.0548   10.2873    7.8895 C   0  0  0  0  0  0  0  0  0  0  0  0
   30.1481   10.0898    8.8215 F   0  0  0  0  0  0  0  0  0  0  0  0
   29.2045   13.3106    7.3272 N   0  0  0  0  0  0  0  0  0  0  0  0
   28.8180   14.4412    6.8080 C   0  0  0  0  0  0  0  0  0  0  0  0
   28.8360   15.5372    7.8663 C   0  0  0  0  0  0  0  0  0  0  0  0
   27.8045   15.3189    8.7530 N   0  0  0  0  0  0  0  0  0  0  0  0
   28.1648   14.1097    9.4223 C   0  0  0  0  0  0  0  0  0  0  0  0
   28.2491   12.9672    8.4053 C   0  0  0  0  0  0  0  0  0  0  0  0
  1  2  2  0
  2  3  2  0
  2  4  1  0
  4  5  2  0
  5  6  1  0
  6  7  1  0
  6  8  2  0
  8  9  1  0
  9 10  2  0
 10 11  1  0
  2 12  1  0
 12 13  1  0
 13 14  1  0
 14 15  1  0
 15 16  1  0
 16 17  1  0
 10  4  1  0
 17 12  1  0
A    1
 O1 
A    2
 S1 
A    3
 O2 
A    4
 C1 
A    5
 C2 
A    6
 C3 
A    7
 F1 
A    8
 C4 
A    9
 C5 
A   10
 C6 
A   11
 F2 
A   12
 N1 
A   13
 C7 
A   14
 C8 
A   15
 N2 
A   16
 C9 
A   17
 C10
M  END
>  <ref_pdb>  (87) 
Ax0310a

>  <ref_mols>  (87) 
Ax0446a,Ax1080a,Ax0812a,Ax0719a,Ax1140a,Ax0528a,Ax0310a

>  <original SMILES>  (87) 
O=S(=O)(c1cc(F)ccc1F)N1CCNCC1

>  <rationale>  (87) 
info info set:3d;halogenbond:C110; hbond:S87; 

>  <experiment>  (87) 
3d

>  <cluster_label>  (87) 
2

>  <cluster_rank>  (87) 
6

>  <N_interactions>  (87) 
2

>  <∆∆G>  (87) 
-0.308329

>  <comRMSD>  (87) 
0.713969

>  <ROCS_TanimotoCombo>  (87) 
0.312

>  <ROCS_ShapeTanimoto>  (87) 
0.214

>  <ROCS_ColorTanimoto>  (87) 
0.098

$$$$
EN300_244391
     RDKit          3D

 15 15  0  0  0  0  0  0  0  0999 V2000
   40.6094   11.5640   14.3778 C   0  0  0  0  0  0  0  0  0  0  0  0
   40.1732   12.8546   14.0404 O   0  0  0  0  0  0  0  0  0  0  0  0
   39.1392   12.8675   13.0604 C   0  0  0  0  0  0  0  0  0  0  0  0
   37.8500   12.4952   13.5211 C   0  0  0  0  0  0  0  0  0  0  0  0
   36.9769   12.5836   12.4673 C   0  0  0  0  0  0  0  0  0  0  0  0
   37.1682   12.9732   11.0628 C   0  0  0  0  0  0  0  0  0  0  0  0
   35.9773   12.9959   10.1397 C   0  0  0  0  0  0  0  0  0  0  0  0
   36.0908   13.5157    8.9107 N   0  0  0  0  0  0  0  0  0  0  0  0
   34.5889   13.7801    8.1994 S   0  0  0  0  0  6  0  0  0  0  0  0
   34.2355   15.1228    9.2507 C   0  0  0  0  0  0  0  0  0  0  0  0
   34.7460   14.1695    6.8185 O   0  0  0  0  0  0  0  0  0  0  0  0
   33.6484   12.7512    8.5908 O   0  0  0  0  0  0  0  0  0  0  0  0
   38.4337   13.3027   10.6912 C   0  0  0  0  0  0  0  0  0  0  0  0
   39.4932   13.2523   11.7498 C   0  0  0  0  0  0  0  0  0  0  0  0
   40.8120   13.5943   11.4305 N   0  0  0  0  0  0  0  0  0  0  0  0
  1  2  1  0
  2  3  1  0
  3  4  2  0
  4  5  1  0
  5  6  2  0
  6  7  1  0
  7  8  1  0
  8  9  1  0
  9 10  1  0
  9 11  2  0
  9 12  2  0
  6 13  1  0
 13 14  2  0
 14 15  1  0
 14  3  1  0
A    1
 C1 
A    2
 O1 
A    3
 C2 
A    4
 C3 
A    5
 C4 
A    6
 C5 
A    7
 C6 
A    8
 N1 
A    9
 S1 
A   10
 C7 
A   11
 O2 
A   12
 O3 
A   13
 C8 
A   14
 C9 
A   15
 N2 
M  END
>  <ref_pdb>  (88) 
Ax0310a

>  <ref_mols>  (88) 
Ax0446a,Ax1080a,Ax0812a,Ax0719a,Ax1140a,Ax0528a,Ax0310a

>  <original SMILES>  (88) 
COc1ccc(CNS(C)(=O)=O)cc1N

>  <rationale>  (88) 
info info set:sulfonimide_whole;hbond:G127+E85; hydroph_interaction:V84+L100+I82; 

>  <experiment>  (88) 
sulfonimide_whole

>  <cluster_label>  (88) 
15

>  <cluster_rank>  (88) 
6

>  <N_interactions>  (88) 
7

>  <∆∆G>  (88) 
-5.476799

>  <comRMSD>  (88) 
0.747754

>  <ROCS_TanimotoCombo>  (88) 
0.298

>  <ROCS_ShapeTanimoto>  (88) 
0.17

>  <ROCS_ColorTanimoto>  (88) 
0.127

$$$$
Z8525314575
     RDKit          3D

 16 17  0  0  0  0  0  0  0  0999 V2000
   27.5850   14.2502    7.8687 C   0  0  0  0  0  0  0  0  0  0  0  0
   29.0536   14.3503    8.2700 C   0  0  2  0  0  0  0  0  0  0  0  0
   28.9955   12.9642    8.8599 C   0  0  1  0  0  0  0  0  0  0  0  0
   29.9476   11.8570    8.2914 C   0  0  0  0  0  0  0  0  0  0  0  0
   30.0064   10.5810    8.9233 O   0  0  0  0  0  0  0  0  0  0  0  0
   30.6781   12.1527    7.2248 N   0  0  0  0  0  0  0  0  0  0  0  0
   31.6061   11.2452    6.7445 C   0  0  0  0  0  0  0  0  0  0  0  0
   32.5686   11.7638    5.7491 C   0  0  0  0  0  0  0  0  0  0  0  0
   33.7215   11.0249    5.0113 C   0  0  0  0  0  0  0  0  0  0  0  0
   33.5528    9.5746    5.6481 C   0  0  0  0  0  0  0  0  0  0  0  0
   34.4528    8.6374    5.1982 N   0  0  0  0  0  0  0  0  0  0  0  0
   32.6660    9.1221    6.5628 N   0  0  0  0  0  0  0  0  0  0  0  0
   31.7270    9.9240    7.0904 C   0  0  0  0  0  0  0  0  0  0  0  0
   29.4777   14.1254    9.6615 C   0  0  0  0  0  0  0  0  0  0  0  0
   28.7312   14.5801   10.7243 F   0  0  0  0  0  0  0  0  0  0  0  0
   30.8030   14.2702   10.0150 F   0  0  0  0  0  0  0  0  0  0  0  0
  2  1  1  1
  2  3  1  0
  3  4  1  6
  4  5  2  0
  4  6  1  0
  6  7  1  0
  7  8  2  0
  8  9  1  0
  9 10  2  0
 10 11  1  0
 10 12  1  0
 12 13  2  0
  3 14  1  0
 14 15  1  0
 14 16  1  0
 14  2  1  0
 13  7  1  0
A    1
 C1 
A    2
 C2 
A    3
 C3 
A    4
 C4 
A    5
 O1 
A    6
 N1 
A    7
 C5 
A    8
 C6 
A    9
 C7 
A   10
 C8 
A   11
 N2 
A   12
 N3 
A   13
 C9 
A   14
 C10
A   15
 F1 
A   16
 F2 
M  END
>  <ref_pdb>  (89) 
Ax0310a

>  <ref_mols>  (89) 
Ax0446a,Ax1080a,Ax0812a,Ax0719a,Ax1140a,Ax0528a,Ax0310a

>  <original SMILES>  (89) 
C[C@@H]1[C@@H](C(=O)Nc2ccc(N)nc2)C1(F)F

>  <rationale>  (89) 
info info set:screening_pocket;halogenbond:D39; hbond:S105; hydroph_interaction:P107+Y89; 

>  <experiment>  (89) 
screening_pocket

>  <cluster_label>  (89) 
18

>  <cluster_rank>  (89) 
6

>  <N_interactions>  (89) 
4

>  <∆∆G>  (89) 
-1.878116

>  <comRMSD>  (89) 
0.755596

>  <ROCS_TanimotoCombo>  (89) 
0.637

>  <ROCS_ShapeTanimoto>  (89) 
0.211

>  <ROCS_ColorTanimoto>  (89) 
0.425

$$$$
Z2061495052
     RDKit          3D

 22 24  0  0  0  0  0  0  0  0999 V2000
   33.4509   13.4229    4.7713 C   0  0  0  0  0  0  0  0  0  0  0  0
   32.8498   12.0481    4.9396 C   0  0  2  0  0  0  0  0  0  0  0  0
   31.6421   11.9965    5.8790 C   0  0  0  0  0  0  0  0  0  0  0  0
   31.9371   12.0142    7.1267 N   0  0  0  0  0  0  0  0  0  0  0  0
   30.8954   11.6683    7.8500 C   0  0  0  0  0  0  0  0  0  0  0  0
   30.8350   10.5354    8.5960 O   0  0  0  0  0  0  0  0  0  0  0  0
   29.7098   12.6387    7.7321 C   0  0  0  0  0  0  0  0  0  0  0  0
   28.5579   11.6883    7.7167 C   0  0  0  0  0  0  0  0  0  0  0  0
   27.3148   12.4242    7.5831 C   0  0  0  0  0  0  0  0  0  0  0  0
   26.1721   11.5835    7.5155 C   0  0  0  0  0  0  0  0  0  0  0  0
   24.8515   12.1445    7.4533 C   0  0  0  0  0  0  0  0  0  0  0  0
   24.7395   13.6497    7.4319 C   0  0  0  0  0  0  0  0  0  0  0  0
   25.9910   14.3103    7.4753 C   0  0  0  0  0  0  0  0  0  0  0  0
   27.2495   13.7488    7.5338 C   0  0  0  0  0  0  0  0  0  0  0  0
   28.4166   14.5101    7.5241 C   0  0  0  0  0  0  0  0  0  0  0  0
   28.3915   15.6945    7.3606 O   0  0  0  0  0  0  0  0  0  0  0  0
   29.6681   13.9241    7.6435 O   0  0  0  0  0  0  0  0  0  0  0  0
   33.1736   11.3638    7.1182 C   0  0  0  0  0  0  0  0  0  0  0  0
   33.7059   11.0804    5.7150 C   0  0  1  0  0  0  0  0  0  0  0  0
   33.4681    9.7191    5.5997 C   0  0  0  0  0  0  0  0  0  0  0  0
   34.3363    8.9946    4.8411 N   0  0  0  0  0  0  0  0  0  0  0  0
   32.5494    9.1383    6.1576 O   0  0  0  0  0  0  0  0  0  0  0  0
  2  1  1  1
  2  3  1  0
  3  4  1  0
  4  5  1  0
  5  6  2  0
  5  7  1  0
  7  8  2  0
  8  9  1  0
  9 10  2  0
 10 11  1  0
 11 12  2  0
 12 13  1  0
 13 14  2  0
 14 15  1  0
 15 16  2  0
 15 17  1  0
  4 18  1  0
 18 19  1  0
 19 20  1  6
 20 21  1  0
 20 22  2  0
 19  2  1  0
 17  7  1  0
 14  9  1  0
A    1
 C1 
A    2
 C2 
A    3
 C3 
A    4
 N1 
A    5
 C4 
A    6
 O1 
A    7
 C5 
A    8
 C6 
A    9
 C7 
A   10
 C8 
A   11
 C9 
A   12
 C10
A   13
 C11
A   14
 C12
A   15
 C13
A   16
 O2 
A   17
 O3 
A   18
 C14
A   19
 C15
A   20
 C16
A   21
 N2 
A   22
 O4 
M  END
>  <ref_pdb>  (90) 
Ax0310a

>  <ref_mols>  (90) 
Ax0446a,Ax1080a,Ax0812a,Ax0719a,Ax1140a,Ax0528a,Ax0310a

>  <original SMILES>  (90) 
C[C@@H]1CN(C(=O)c2cc3ccccc3c(=O)o2)C[C@H]1C(N)=O

>  <rationale>  (90) 
info info set:screening_pocket;hbond:S87+S105; hydroph_interaction:P107+Y89+H21+L22; 

>  <experiment>  (90) 
screening_pocket

>  <cluster_label>  (90) 
16

>  <cluster_rank>  (90) 
6

>  <N_interactions>  (90) 
6

>  <∆∆G>  (90) 
-0.179432

>  <comRMSD>  (90) 
0.852833

>  <ROCS_TanimotoCombo>  (90) 
0.633

>  <ROCS_ShapeTanimoto>  (90) 
0.218

>  <ROCS_ColorTanimoto>  (90) 
0.414

$$$$
EN300_52071
     RDKit          3D

 15 16  0  0  0  0  0  0  0  0999 V2000
   34.5441   15.0333    8.9774 C   0  0  0  0  0  0  0  0  0  0  0  0
   33.3628   13.8988    8.4307 S   0  0  0  0  0  6  0  0  0  0  0  0
   32.0231   14.3147    8.7987 O   0  0  0  0  0  0  0  0  0  0  0  0
   33.9511   12.6744    8.9561 O   0  0  0  0  0  0  0  0  0  0  0  0
   33.7210   13.9892    6.7652 N   0  0  0  0  0  0  0  0  0  0  0  0
   33.9089   12.7557    6.2741 C   0  0  0  0  0  0  0  0  0  0  0  0
   35.0705   12.4958    5.2984 C   0  0  0  0  0  0  0  0  0  0  0  0
   35.2975   11.0666    4.7580 C   0  0  0  0  0  0  0  0  0  0  0  0
   34.3325    9.9727    5.2602 C   0  0  0  0  0  0  0  0  0  0  0  0
   33.1843   10.2431    6.2348 C   0  0  0  0  0  0  0  0  0  0  0  0
   32.9944   11.6696    6.7063 C   0  0  0  0  0  0  0  0  0  0  0  0
   31.8531   11.9344    7.6330 C   0  0  0  0  0  0  0  0  0  0  0  0
   30.9333   10.7994    7.3858 C   0  0  0  0  0  0  0  0  0  0  0  0
   31.4172    9.5023    7.7507 N   0  0  0  0  0  0  0  0  0  0  0  0
   32.3205    9.1492    6.6784 C   0  0  0  0  0  0  0  0  0  0  0  0
  1  2  1  0
  2  3  2  0
  2  4  2  0
  2  5  1  0
  5  6  1  0
  6  7  2  0
  7  8  1  0
  8  9  2  0
  9 10  1  0
 10 11  2  0
 11 12  1  0
 12 13  1  0
 13 14  1  0
 14 15  1  0
 11  6  1  0
 15 10  1  0
A    1
 C1 
A    2
 S1 
A    3
 O1 
A    4
 O2 
A    5
 N1 
A    6
 C2 
A    7
 C3 
A    8
 C4 
A    9
 C5 
A   10
 C6 
A   11
 C7 
A   12
 C8 
A   13
 C9 
A   14
 N2 
A   15
 C10
M  END
>  <ref_pdb>  (91) 
Ax0310a

>  <ref_mols>  (91) 
Ax0446a,Ax1080a,Ax0812a,Ax0719a,Ax1140a,Ax0528a,Ax0310a

>  <original SMILES>  (91) 
CS(=O)(=O)Nc1cccc2c1CCNC2

>  <rationale>  (91) 
info info set:sulfonimide_whole;hbond:S87+G127+E106; 

>  <experiment>  (91) 
sulfonimide_whole

>  <cluster_label>  (91) 
6

>  <cluster_rank>  (91) 
6

>  <N_interactions>  (91) 
3

>  <∆∆G>  (91) 
-0.344887

>  <comRMSD>  (91) 
0.462288

>  <ROCS_TanimotoCombo>  (91) 
0.364

>  <ROCS_ShapeTanimoto>  (91) 
0.2

>  <ROCS_ColorTanimoto>  (91) 
0.164

$$$$
Z184883800
     RDKit          3D

 18 19  0  0  0  0  0  0  0  0999 V2000
   30.1204   10.4441    8.9894 O   0  0  0  0  0  0  0  0  0  0  0  0
   30.4013   11.2479    8.1410 C   0  0  0  0  0  0  0  0  0  0  0  0
   29.8069   12.5697    7.9124 N   0  0  0  0  0  0  0  0  0  0  0  0
   29.1090   13.2598    8.9418 C   0  0  0  0  0  0  0  0  0  0  0  0
   28.4115   14.4044    8.5509 C   0  0  0  0  0  0  0  0  0  0  0  0
   28.1656   14.2412    7.1583 C   0  0  0  0  0  0  0  0  0  0  0  0
   27.0537   13.6497    6.6940 C   0  0  0  0  0  0  0  0  0  0  0  0
   26.8485   13.5101    5.3670 C   0  0  0  0  0  0  0  0  0  0  0  0
   27.7472   13.9323    4.4765 C   0  0  0  0  0  0  0  0  0  0  0  0
   29.0035   14.5675    5.0752 C   0  0  0  0  0  0  0  0  0  0  0  0
   29.1142   14.6936    6.3941 N   0  0  0  0  0  0  0  0  0  0  0  0
   31.4556   10.7897    7.2517 C   0  0  0  0  0  0  0  0  0  0  0  0
   32.2377   11.6726    6.4005 C   0  0  0  0  0  0  0  0  0  0  0  0
   33.2212   11.0917    5.5948 C   0  0  0  0  0  0  0  0  0  0  0  0
   33.4038    9.7136    5.6428 C   0  0  0  0  0  0  0  0  0  0  0  0
   32.6793    8.8996    6.4302 N   0  0  0  0  0  0  0  0  0  0  0  0
   31.7321    9.4340    7.2133 C   0  0  0  0  0  0  0  0  0  0  0  0
   31.0638    8.5102    7.9711 O   0  0  0  0  0  0  0  0  0  0  0  0
  1  2  2  0
  2  3  1  0
  3  4  1  0
  4  5  1  0
  5  6  1  0
  6  7  2  0
  7  8  1  0
  8  9  2  0
  9 10  1  0
 10 11  2  0
  2 12  1  0
 12 13  2  0
 13 14  1  0
 14 15  2  0
 15 16  1  0
 16 17  2  0
 17 18  1  0
 11  6  1  0
 17 12  1  0
A    1
 O1 
A    2
 C1 
A    3
 N1 
A    4
 C2 
A    5
 C3 
A    6
 C4 
A    7
 C5 
A    8
 C6 
A    9
 C7 
A   10
 C8 
A   11
 N2 
A   12
 C9 
A   13
 C10
A   14
 C11
A   15
 C12
A   16
 N3 
A   17
 C13
A   18
 O2 
M  END
>  <ref_pdb>  (92) 
Ax0310a

>  <ref_mols>  (92) 
Ax0446a,Ax1080a,Ax0812a,Ax0719a,Ax1140a,Ax0528a,Ax0310a

>  <original SMILES>  (92) 
O=C(NCCc1ccccn1)c1cccnc1O

>  <rationale>  (92) 
info info set:screening_pocket;hbond:E88; hydroph_interaction:P107+Y89+E88; 

>  <experiment>  (92) 
screening_pocket

>  <cluster_label>  (92) 
12

>  <cluster_rank>  (92) 
6

>  <N_interactions>  (92) 
5

>  <∆∆G>  (92) 
-1.877417

>  <comRMSD>  (92) 
0.873357

>  <ROCS_TanimotoCombo>  (92) 
0.652

>  <ROCS_ShapeTanimoto>  (92) 
0.222

>  <ROCS_ColorTanimoto>  (92) 
0.43

$$$$
EN300_12622197
     RDKit          3D

 20 21  0  0  0  0  0  0  0  0999 V2000
   36.8149    9.5025   13.0324 C   0  0  0  0  0  0  0  0  0  0  0  0
   37.4335   10.5998   12.2398 C   0  0  0  0  0  0  0  0  0  0  0  0
   36.3832   11.1994   11.4237 C   0  0  0  0  0  0  0  0  0  0  0  0
   36.7182   12.3620   10.5013 C   0  0  0  0  0  0  0  0  0  0  0  0
   35.6723   13.1054    9.5621 B   0  0  0  0  0  0  0  0  0  0  0  0
   35.9556   13.3834    8.1516 O   0  0  0  0  0  0  0  0  0  0  0  0
   34.7827   13.7931    7.6384 C   0  0  0  0  0  0  0  0  0  0  0  0
   34.7728   13.8097    6.0738 C   0  0  0  0  0  0  0  0  0  0  0  0
   34.6566   15.0835    8.2382 C   0  0  0  0  0  0  0  0  0  0  0  0
   33.7336   13.0147    8.2981 C   0  0  0  0  0  0  0  0  0  0  0  0
   32.7703   12.1101    7.4880 C   0  0  0  0  0  0  0  0  0  0  0  0
   32.3054   13.4814    8.3222 C   0  0  0  0  0  0  0  0  0  0  0  0
   34.2736   12.6045    9.4585 O   0  0  0  0  0  0  0  0  0  0  0  0
   38.0614   12.7619   10.4967 C   0  0  0  0  0  0  0  0  0  0  0  0
   39.0914   12.1781   11.2751 C   0  0  0  0  0  0  0  0  0  0  0  0
   40.7545   12.6246   11.2811 S   0  0  0  0  0  6  0  0  0  0  0  0
   41.4994   12.0584   12.7332 N   0  0  0  0  0  0  0  0  0  0  0  0
   41.4720   11.9686   10.1175 O   0  0  0  0  0  0  0  0  0  0  0  0
   40.9338   14.0992   11.1788 O   0  0  0  0  0  0  0  0  0  0  0  0
   38.6816   11.0491   12.1780 C   0  0  0  0  0  0  0  0  0  0  0  0
  1  2  1  0
  2  3  2  0
  3  4  1  0
  4  5  1  0
  5  6  1  0
  6  7  1  0
  7  8  1  0
  7  9  1  0
  7 10  1  0
 10 11  1  0
 10 12  1  0
 10 13  1  0
  4 14  2  0
 14 15  1  0
 15 16  1  0
 16 17  1  0
 16 18  2  0
 16 19  2  0
 15 20  2  0
 20  2  1  0
 13  5  1  0
A    1
 C1 
A    2
 C2 
A    3
 C3 
A    4
 C4 
A    5
 B1 
A    6
 O1 
A    7
 C5 
A    8
 C6 
A    9
 C7 
A   10
 C8 
A   11
 C9 
A   12
 C10
A   13
 O2 
A   14
 C11
A   15
 C12
A   16
 S1 
A   17
 N1 
A   18
 O3 
A   19
 O4 
A   20
 C13
M  END
>  <ref_pdb>  (93) 
Ax0310a

>  <ref_mols>  (93) 
Ax0446a,Ax1080a,Ax0812a,Ax0719a,Ax1140a,Ax0528a,Ax0310a

>  <original SMILES>  (93) 
Cc1cc(B2OC(C)(C)C(C)(C)O2)cc(S(N)(=O)=O)c1

>  <rationale>  (93) 
info info set:sulfonimide_joint;hbond:G127+N129; hydroph_interaction:L100+L131; 

>  <experiment>  (93) 
sulfonimide_joint

>  <cluster_label>  (93) 
17

>  <cluster_rank>  (93) 
6

>  <N_interactions>  (93) 
6

>  <∆∆G>  (93) 
-4.741869

>  <comRMSD>  (93) 
0.735751

>  <ROCS_TanimotoCombo>  (93) 
0.333

>  <ROCS_ShapeTanimoto>  (93) 
0.217

>  <ROCS_ColorTanimoto>  (93) 
0.116

$$$$
EN300_7456597
     RDKit          3D

 13 13  0  0  0  0  0  0  0  0999 V2000
   34.6880   14.9434    8.0761 N   0  0  0  0  0  0  0  0  0  0  0  0
   33.5189   13.7745    8.2220 S   0  0  0  0  0  6  0  0  0  0  0  0
   34.1723   12.7608    8.9645 O   0  0  0  0  0  0  0  0  0  0  0  0
   32.2945   14.3459    8.7484 O   0  0  0  0  0  0  0  0  0  0  0  0
   33.4735   13.4879    6.4522 C   0  0  0  0  0  0  0  0  0  0  0  0
   32.3105   12.7257    5.9820 C   0  0  0  0  0  0  0  0  0  0  0  0
   32.0046   11.4865    6.5259 C   0  0  0  0  0  0  0  0  0  0  0  0
   32.9020   10.5646    6.1067 C   0  0  0  0  0  0  0  0  0  0  0  0
   32.7203    9.1873    6.6089 C   0  0  0  0  0  0  0  0  0  0  0  0
   31.6897    8.8000    7.4972 N   0  0  0  0  0  0  0  0  0  0  0  0
   30.8549    9.8151    7.8366 C   0  0  0  0  0  0  0  0  0  0  0  0
   30.9637   11.1459    7.3797 C   0  0  0  0  0  0  0  0  0  0  0  0
   29.7014   12.4467    7.9208 Br  0  0  0  0  0  0  0  0  0  0  0  0
  1  2  1  0
  2  3  2  0
  2  4  2  0
  2  5  1  0
  5  6  1  0
  6  7  1  0
  7  8  2  0
  8  9  1  0
  9 10  2  0
 10 11  1  0
 11 12  2  0
 12 13  1  0
 12  7  1  0
A    1
 N1 
A    2
 S1 
A    3
 O1 
A    4
 O2 
A    5
 C1 
A    6
 C2 
A    7
 C3 
A    8
 C4 
A    9
 C5 
A   10
 N2 
A   11
 C6 
A   12
 C7 
A   13
BR1 
M  END
>  <ref_pdb>  (94) 
Ax0310a

>  <ref_mols>  (94) 
Ax0446a,Ax1080a,Ax0812a,Ax0719a,Ax1140a,Ax0528a,Ax0310a

>  <original SMILES>  (94) 
NS(=O)(=O)CCc1ccncc1Br

>  <rationale>  (94) 
info info set:sulfonimide_whole;hbond:S87+G127+A86; hydroph_interaction:P107; 

>  <experiment>  (94) 
sulfonimide_whole

>  <cluster_label>  (94) 
5

>  <cluster_rank>  (94) 
6

>  <N_interactions>  (94) 
4

>  <∆∆G>  (94) 
-5.463312

>  <comRMSD>  (94) 
0.553948

>  <ROCS_TanimotoCombo>  (94) 
0.355

>  <ROCS_ShapeTanimoto>  (94) 
0.188

>  <ROCS_ColorTanimoto>  (94) 
0.167

$$$$
Z1556902364
     RDKit          3D

 20 22  0  0  0  0  0  0  0  0999 V2000
   29.4000   15.1274   11.7529 C   0  0  0  0  0  0  0  0  0  0  0  0
   28.7296   14.6617   10.5065 C   0  0  0  0  0  0  0  0  0  0  0  0
   27.7325   13.7619   10.5905 C   0  0  0  0  0  0  0  0  0  0  0  0
   29.7845   14.2743    9.5421 C   0  0  0  0  0  0  0  0  0  0  0  0
   29.6301   13.6563    8.2345 C   0  0  0  0  0  0  0  0  0  0  0  0
   30.8978   13.5105    7.7383 C   0  0  0  0  0  0  0  0  0  0  0  0
   31.1802   12.9335    6.4246 C   0  0  0  0  0  0  0  0  0  0  0  0
   31.3668   13.6377    5.4464 O   0  0  0  0  0  0  0  0  0  0  0  0
   31.2469   11.6128    6.4110 N   0  0  0  0  0  0  0  0  0  0  0  0
   31.0527   10.9386    7.6850 C   0  0  0  0  0  0  0  0  0  0  0  0
   31.5170    9.5285    7.4047 C   0  0  0  0  0  0  0  0  0  0  0  0
   32.6806    9.5422    6.3272 C   0  0  0  0  0  0  0  0  0  0  0  0
   32.3982   10.9756    5.7490 C   0  0  0  0  0  0  0  0  0  0  0  0
   33.0949   11.3160    4.4006 C   0  0  0  0  0  0  0  0  0  0  0  0
   34.3998   10.5333    4.3129 C   0  0  0  0  0  0  0  0  0  0  0  0
   35.3112   11.0864    5.2290 O   0  0  0  0  0  0  0  0  0  0  0  0
   34.5963   12.0923    5.9376 C   0  0  0  0  0  0  0  0  0  0  0  0
   33.4307   11.4478    6.7172 C   0  0  0  0  0  0  0  0  0  0  0  0
   31.7964   13.9856    8.6495 N   0  0  0  0  0  0  0  0  0  0  0  0
   31.1058   14.4663    9.7619 O   0  0  0  0  0  0  0  0  0  0  0  0
  1  2  1  0
  2  3  1  0
  2  4  1  0
  4  5  2  0
  5  6  1  0
  6  7  1  0
  7  8  2  0
  7  9  1  0
  9 10  1  0
 10 11  1  0
 11 12  1  0
 12 13  1  0
 13 14  1  0
 14 15  1  0
 15 16  1  0
 16 17  1  0
 17 18  1  0
  6 19  2  0
 19 20  1  0
 20  4  1  0
 13  9  1  0
 18 13  1  0
A    1
 C1 
A    2
 C2 
A    3
 C3 
A    4
 C4 
A    5
 C5 
A    6
 C6 
A    7
 C7 
A    8
 O1 
A    9
 N1 
A   10
 C8 
A   11
 C9 
A   12
 C10
A   13
 C11
A   14
 C12
A   15
 C13
A   16
 O2 
A   17
 C14
A   18
 C15
A   19
 N2 
A   20
 O3 
M  END
>  <ref_pdb>  (95) 
Ax0310a

>  <ref_mols>  (95) 
Ax0446a,Ax1080a,Ax0812a,Ax0719a,Ax1140a,Ax0528a,Ax0310a

>  <original SMILES>  (95) 
CC(C)c1cc(C(=O)N2CCCC23CCOCC3)no1

>  <rationale>  (95) 
info info set:3d;hbond:S87+E88; hydroph_interaction:P107+Y90+D39; 

>  <experiment>  (95) 
3d

>  <cluster_label>  (95) 
8

>  <cluster_rank>  (95) 
6

>  <N_interactions>  (95) 
6

>  <∆∆G>  (95) 
-0.87522

>  <comRMSD>  (95) 
0.843795

>  <ROCS_TanimotoCombo>  (95) 
0.354

>  <ROCS_ShapeTanimoto>  (95) 
0.213

>  <ROCS_ColorTanimoto>  (95) 
0.142

$$$$
Z86280727
     RDKit          3D

 25 27  0  0  0  0  0  0  0  0999 V2000
   26.9496   15.3247    8.9976 C   0  0  0  0  0  0  0  0  0  0  0  0
   28.1226   14.6578    8.4688 C   0  0  0  0  0  0  0  0  0  0  0  0
   27.8272   13.8493    7.2085 C   0  0  0  0  0  0  0  0  0  0  0  0
   29.1177   13.2223    6.6866 C   0  0  0  0  0  0  0  0  0  0  0  0
   30.3530   13.5683    7.5532 C   0  0  0  0  0  0  0  0  0  0  0  0
   31.5274   13.0859    7.1227 O   0  0  0  0  0  0  0  0  0  0  0  0
   31.6772   11.7428    7.1141 C   0  0  0  0  0  0  0  0  0  0  0  0
   30.7827   10.9811    7.8094 N   0  0  0  0  0  0  0  0  0  0  0  0
   31.0510    9.6710    7.7315 C   0  0  0  0  0  0  0  0  0  0  0  0
   30.2281    8.8108    8.4164 C   0  0  0  0  0  0  0  0  0  0  0  0
   30.0086    9.1311    9.6865 F   0  0  0  0  0  0  0  0  0  0  0  0
   30.6988    7.6026    8.5050 F   0  0  0  0  0  0  0  0  0  0  0  0
   29.0190    8.6047    7.9022 F   0  0  0  0  0  0  0  0  0  0  0  0
   32.0876    9.1504    7.0248 N   0  0  0  0  0  0  0  0  0  0  0  0
   32.9089    9.9674    6.3689 C   0  0  0  0  0  0  0  0  0  0  0  0
   34.0811    9.4564    5.5648 C   0  0  0  0  0  0  0  0  0  0  0  0
   34.9518   10.2797    4.8931 C   0  0  0  0  0  0  0  0  0  0  0  0
   34.7286   11.6496    4.9672 C   0  0  0  0  0  0  0  0  0  0  0  0
   33.6388   12.1655    5.7026 C   0  0  0  0  0  0  0  0  0  0  0  0
   32.7524   11.3194    6.3850 C   0  0  0  0  0  0  0  0  0  0  0  0
   30.2864   14.3488    8.6974 C   0  0  0  0  0  0  0  0  0  0  0  0
   31.4834   14.6542    9.4754 N   0  0  0  0  0  4  0  0  0  0  0  0
   32.5442   14.2115    9.0285 O   0  0  0  0  0  0  0  0  0  0  0  0
   31.4108   15.7351   10.0775 O   0  0  0  0  0  1  0  0  0  0  0  0
   29.1926   14.8752    9.1383 N   0  0  0  0  0  0  0  0  0  0  0  0
  1  2  1  0
  2  3  2  0
  3  4  1  0
  4  5  2  0
  5  6  1  0
  6  7  1  0
  7  8  2  0
  8  9  1  0
  9 10  1  0
 10 11  1  0
 10 12  1  0
 10 13  1  0
  9 14  2  0
 14 15  1  0
 15 16  2  0
 16 17  1  0
 17 18  2  0
 18 19  1  0
 19 20  2  0
  5 21  1  0
 21 22  1  0
 22 23  2  0
 22 24  1  0
 21 25  2  0
 25  2  1  0
 20  7  1  0
 20 15  1  0
M  CHG  2  22   1  24  -1
A    1
 C1 
A    2
 C2 
A    3
 C3 
A    4
 C4 
A    5
 C5 
A    6
 O1 
A    7
 C6 
A    8
 N1 
A    9
 C7 
A   10
 C8 
A   11
 F1 
A   12
 F2 
A   13
 F3 
A   14
 N2 
A   15
 C9 
A   16
 C10
A   17
 C11
A   18
 C12
A   19
 C13
A   20
 C14
A   21
 C15
A   22
 N3 
A   23
 O2 
A   24
 O3 
A   25
 N4 
M  END
>  <ref_pdb>  (96) 
Ax0310a

>  <ref_mols>  (96) 
Ax0446a,Ax1080a,Ax0812a,Ax0719a,Ax1140a,Ax0528a,Ax0310a

>  <original SMILES>  (96) 
Cc1ccc(Oc2nc(C(F)(F)F)nc3ccccc23)c([N+](=O)[O-])n1

>  <rationale>  (96) 
info info set:screening_whole;halogenbond:P107; hbond:S87; hydroph_interaction:P107+Y89+Y90+H21; pistack:H21; 

>  <experiment>  (96) 
screening_whole

>  <cluster_label>  (96) 
9

>  <cluster_rank>  (96) 
6

>  <N_interactions>  (96) 
7

>  <∆∆G>  (96) 
-1.397278

>  <comRMSD>  (96) 
0.634819

>  <ROCS_TanimotoCombo>  (96) 
0.48

>  <ROCS_ShapeTanimoto>  (96) 
0.28

>  <ROCS_ColorTanimoto>  (96) 
0.2

$$$$
Z98405516
     RDKit          3D

 24 27  0  0  0  0  0  0  0  0999 V2000
   33.8771   14.6325    9.0564 C   0  0  0  0  0  0  0  0  0  0  0  0
   32.5212   14.1298    9.5104 C   0  0  0  0  0  0  0  0  0  0  0  0
   31.4341   15.0287    9.3327 O   0  0  0  0  0  0  0  0  0  0  0  0
   30.3091   14.5361    8.7308 C   0  0  0  0  0  0  0  0  0  0  0  0
   28.9921   14.7683    9.3927 C   0  0  0  0  0  0  0  0  0  0  0  0
   27.7131   14.3076    8.7690 C   0  0  0  0  0  0  0  0  0  0  0  0
   27.7172   13.5592    7.4343 C   0  0  0  0  0  0  0  0  0  0  0  0
   29.0426   13.2800    6.7225 C   0  0  0  0  0  0  0  0  0  0  0  0
   30.3519   13.7783    7.3764 C   0  0  0  0  0  0  0  0  0  0  0  0
   31.4506   13.6032    6.8093 O   0  0  0  0  0  0  0  0  0  0  0  0
   31.7143   12.3414    6.8932 C   0  0  0  0  0  0  0  0  0  0  0  0
   30.9418   11.7476    7.6089 N   0  0  0  0  0  0  0  0  0  0  0  0
   31.1566   10.5140    7.6508 C   0  0  0  0  0  0  0  0  0  0  0  0
   30.4111    9.6162    8.4385 C   0  0  0  0  0  0  0  0  0  0  0  0
   31.0850    8.4641    8.0412 C   0  0  0  0  0  0  0  0  0  0  0  0
   30.3408    7.5441    8.7995 C   0  0  0  0  0  0  0  0  0  0  0  0
   32.1390    8.4442    7.1614 N   0  0  0  0  0  0  0  0  0  0  0  0
   32.1497    9.7890    6.9539 N   0  0  0  0  0  0  0  0  0  0  0  0
   33.0328   10.4228    6.1717 C   0  0  0  0  0  0  0  0  0  0  0  0
   34.1383    9.6738    5.4362 C   0  0  0  0  0  0  0  0  0  0  0  0
   34.9581   10.5279    4.7199 C   0  0  0  0  0  0  0  0  0  0  0  0
   34.7631   12.0321    4.6787 C   0  0  0  0  0  0  0  0  0  0  0  0
   33.7194   12.6323    5.3739 C   0  0  0  0  0  0  0  0  0  0  0  0
   32.8580   11.8204    6.1157 C   0  0  0  0  0  0  0  0  0  0  0  0
  1  2  1  0
  2  3  1  0
  3  4  1  0
  4  5  2  0
  5  6  1  0
  6  7  2  0
  7  8  1  0
  8  9  2  0
  9 10  1  0
 10 11  1  0
 11 12  2  0
 12 13  1  0
 13 14  2  0
 14 15  1  0
 15 16  1  0
 15 17  2  0
 17 18  1  0
 18 19  1  0
 19 20  2  0
 20 21  1  0
 21 22  2  0
 22 23  1  0
 23 24  2  0
  9  4  1  0
 24 11  1  0
 18 13  1  0
 24 19  1  0
A    1
 C1 
A    2
 C2 
A    3
 O1 
A    4
 C3 
A    5
 C4 
A    6
 C5 
A    7
 C6 
A    8
 C7 
A    9
 C8 
A   10
 O2 
A   11
 C9 
A   12
 N1 
A   13
 C10
A   14
 C11
A   15
 C12
A   16
 C13
A   17
 N2 
A   18
 N3 
A   19
 C14
A   20
 C15
A   21
 C16
A   22
 C17
A   23
 C18
A   24
 C19
M  END
>  <ref_pdb>  (97) 
Ax0310a

>  <ref_mols>  (97) 
Ax0446a,Ax1080a,Ax0812a,Ax0719a,Ax1140a,Ax0528a,Ax0310a

>  <original SMILES>  (97) 
CCOc1ccccc1Oc1nc2cc(C)nn2c2ccccc12

>  <rationale>  (97) 
info info set:screening_whole;hbond:S87+G127; hydroph_interaction:Y90+V124+V84+D109; pistack:H21; 

>  <experiment>  (97) 
screening_whole

>  <cluster_label>  (97) 
3

>  <cluster_rank>  (97) 
6

>  <N_interactions>  (97) 
7

>  <∆∆G>  (97) 
-7.463033

>  <comRMSD>  (97) 
0.594977

>  <ROCS_TanimotoCombo>  (97) 
0.484

>  <ROCS_ShapeTanimoto>  (97) 
0.285

>  <ROCS_ColorTanimoto>  (97) 
0.199

$$$$
EN300_23326
     RDKit          3D

 16 16  0  0  0  0  0  0  0  0999 V2000
   29.4061   14.7781   10.9899 C   0  0  0  0  0  0  0  0  0  0  0  0
   29.1739   14.1358    9.6426 C   0  0  1  0  0  0  0  0  0  0  0  0
   28.3566   15.2406    8.5089 Cl  0  0  0  0  0  0  0  0  0  0  0  0
   30.3566   13.5592    8.9319 C   0  0  0  0  0  0  0  0  0  0  0  0
   31.4732   14.0608    8.9665 O   0  0  0  0  0  0  0  0  0  0  0  0
   30.0131   12.4538    8.2786 N   0  0  0  0  0  0  0  0  0  0  0  0
   30.9780   11.5328    7.6592 C   0  0  0  0  0  0  0  0  0  0  0  0
   30.7028   10.0807    8.0491 C   0  0  0  0  0  0  0  0  0  0  0  0
   31.6684    9.0925    7.4041 C   0  0  0  0  0  0  0  0  0  0  0  0
   32.8238    9.4965    6.4528 C   0  0  0  0  0  0  0  0  0  0  0  0
   32.9550   10.9866    6.1926 C   0  0  0  0  0  0  0  0  0  0  0  0
   34.2360   11.5963    5.1492 S   0  0  0  0  0  6  0  0  0  0  0  0
   33.4517   11.6774    3.6654 N   0  0  0  0  0  0  0  0  0  0  0  0
   34.5136   12.9671    5.5121 O   0  0  0  0  0  0  0  0  0  0  0  0
   35.2658   10.5915    5.0535 O   0  0  0  0  0  0  0  0  0  0  0  0
   31.9841   11.9677    6.8319 C   0  0  0  0  0  0  0  0  0  0  0  0
  2  1  1  1
  2  3  1  0
  2  4  1  0
  4  5  2  0
  4  6  1  0
  6  7  1  0
  7  8  2  0
  8  9  1  0
  9 10  2  0
 10 11  1  0
 11 12  1  0
 12 13  1  0
 12 14  2  0
 12 15  2  0
 11 16  2  0
 16  7  1  0
A    1
 C1 
A    2
 C2 
A    3
CL1 
A    4
 C3 
A    5
 O1 
A    6
 N1 
A    7
 C4 
A    8
 C5 
A    9
 C6 
A   10
 C7 
A   11
 C8 
A   12
 S1 
A   13
 N2 
A   14
 O2 
A   15
 O3 
A   16
 C9 
M  END
>  <ref_pdb>  (98) 
Ax0310a

>  <ref_mols>  (98) 
Ax0446a,Ax1080a,Ax0812a,Ax0719a,Ax1140a,Ax0528a,Ax0310a

>  <original SMILES>  (98) 
C[C@@H](Cl)C(=O)Nc1cccc(S(N)(=O)=O)c1

>  <rationale>  (98) 
info info set:sulfonimide_whole;halogenbond:E88; hbond:S87; hydroph_interaction:Y90; 

>  <experiment>  (98) 
sulfonimide_whole

>  <cluster_label>  (98) 
7

>  <cluster_rank>  (98) 
6

>  <N_interactions>  (98) 
3

>  <∆∆G>  (98) 
-7.725132

>  <comRMSD>  (98) 
0.382562

>  <ROCS_TanimotoCombo>  (98) 
0.347

>  <ROCS_ShapeTanimoto>  (98) 
0.207

>  <ROCS_ColorTanimoto>  (98) 
0.14

$$$$
Z960169668
     RDKit          3D

 15 15  0  0  0  0  0  0  0  0999 V2000
   28.8357   14.9430    8.3083 C   0  0  0  0  0  0  0  0  0  0  0  0
   29.3107   13.6049    8.8465 C   0  0  0  0  0  0  0  0  0  0  0  0
   29.8261   12.7051    7.8061 N   0  0  0  0  0  0  0  0  0  0  0  0
   29.1227   12.8243    6.5620 C   0  0  0  0  0  0  0  0  0  0  0  0
   27.6367   12.4997    6.7156 C   0  0  0  0  0  0  0  0  0  0  0  0
   30.3174   11.3597    8.1133 C   0  0  0  0  0  0  0  0  0  0  0  0
   29.9770   10.5699    8.9338 O   0  0  0  0  0  0  0  0  0  0  0  0
   31.4773   10.8905    7.2032 C   0  0  0  0  0  0  0  0  0  0  0  0
   32.3697   11.7520    6.3516 C   0  0  0  0  0  0  0  0  0  0  0  0
   33.3795   11.2058    5.5767 C   0  0  0  0  0  0  0  0  0  0  0  0
   33.5650    9.7712    5.6022 C   0  0  0  0  0  0  0  0  0  0  0  0
   32.8236    8.9262    6.3275 N   0  0  0  0  0  0  0  0  0  0  0  0
   31.8265    9.3794    7.1033 C   0  0  0  0  0  0  0  0  0  0  0  0
   31.1407    8.3816    7.7932 N   0  0  0  0  0  0  0  0  0  0  0  0
   30.5217    8.6408    9.0731 C   0  0  0  0  0  0  0  0  0  0  0  0
  1  2  1  0
  2  3  1  0
  3  4  1  0
  4  5  1  0
  3  6  1  0
  6  7  2  0
  6  8  1  0
  8  9  2  0
  9 10  1  0
 10 11  2  0
 11 12  1  0
 12 13  2  0
 13 14  1  0
 14 15  1  0
 13  8  1  0
A    1
 C1 
A    2
 C2 
A    3
 N1 
A    4
 C3 
A    5
 C4 
A    6
 C5 
A    7
 O1 
A    8
 C6 
A    9
 C7 
A   10
 C8 
A   11
 C9 
A   12
 N2 
A   13
 C10
A   14
 N3 
A   15
 C11
M  END
>  <ref_pdb>  (99) 
Ax0310a

>  <ref_mols>  (99) 
Ax0446a,Ax1080a,Ax0812a,Ax0719a,Ax1140a,Ax0528a,Ax0310a

>  <original SMILES>  (99) 
CCN(CC)C(=O)c1cccnc1NC

>  <rationale>  (99) 
info info set:screening_pocket;hbond:E106; hydroph_interaction:P107; 

>  <experiment>  (99) 
screening_pocket

>  <cluster_label>  (99) 
6

>  <cluster_rank>  (99) 
7

>  <N_interactions>  (99) 
2

>  <∆∆G>  (99) 
-6.291928

>  <comRMSD>  (99) 
0.776431

>  <ROCS_TanimotoCombo>  (99) 
0.676

>  <ROCS_ShapeTanimoto>  (99) 
0.244

>  <ROCS_ColorTanimoto>  (99) 
0.432

$$$$
EN300_306974
     RDKit          3D

 14 14  0  0  0  0  0  0  0  0999 V2000
   30.6656    8.1356    9.0872 C   0  0  0  0  0  0  0  0  0  0  0  0
   30.4824    9.0461    8.1253 N   0  0  0  0  0  0  0  0  0  0  0  0
   31.4323    9.6742    7.3469 C   0  0  0  0  0  0  0  0  0  0  0  0
   32.3615    8.9800    6.6554 N   0  0  0  0  0  0  0  0  0  0  0  0
   33.2294    9.6949    5.9144 C   0  0  0  0  0  0  0  0  0  0  0  0
   33.2584   11.0811    5.8016 C   0  0  0  0  0  0  0  0  0  0  0  0
   34.1916   11.7431    5.0115 C   0  0  0  0  0  0  0  0  0  0  0  0
   33.6515   12.1803    3.8376 F   0  0  0  0  0  0  0  0  0  0  0  0
   35.2584   10.9729    4.6635 F   0  0  0  0  0  0  0  0  0  0  0  0
   32.2960   11.7734    6.5292 C   0  0  0  0  0  0  0  0  0  0  0  0
   31.3859   11.0554    7.2986 C   0  0  0  0  0  0  0  0  0  0  0  0
   30.3998   11.8119    8.0321 N   0  0  0  0  0  4  0  0  0  0  0  0
   30.8545   12.7027    8.7556 O   0  0  0  0  0  0  0  0  0  0  0  0
   29.2779   11.8848    7.5268 O   0  0  0  0  0  1  0  0  0  0  0  0
  1  2  1  0
  2  3  1  0
  3  4  2  0
  4  5  1  0
  5  6  2  0
  6  7  1  0
  7  8  1  0
  7  9  1  0
  6 10  1  0
 10 11  2  0
 11 12  1  0
 12 13  2  0
 12 14  1  0
 11  3  1  0
M  CHG  2  12   1  14  -1
A    1
 C1 
A    2
 N1 
A    3
 C2 
A    4
 N2 
A    5
 C3 
A    6
 C4 
A    7
 C5 
A    8
 F1 
A    9
 F2 
A   10
 C6 
A   11
 C7 
A   12
 N3 
A   13
 O1 
A   14
 O2 
M  END
>  <ref_pdb>  (100) 
Ax0310a

>  <ref_mols>  (100) 
Ax0446a,Ax1080a,Ax0812a,Ax0719a,Ax1140a,Ax0528a,Ax0310a

>  <original SMILES>  (100) 
CNc1ncc(C(F)F)cc1[N+](=O)[O-]

>  <rationale>  (100) 
info info set:bb_densepocket2;hbond:P107; 

>  <experiment>  (100) 
bb_densepocket2

>  <cluster_label>  (100) 
11

>  <cluster_rank>  (100) 
7

>  <N_interactions>  (100) 
1

>  <∆∆G>  (100) 
-3.199528

>  <comRMSD>  (100) 
0.6471

>  <ROCS_TanimotoCombo>  (100) 
0.611

>  <ROCS_ShapeTanimoto>  (100) 
0.25

>  <ROCS_ColorTanimoto>  (100) 
0.362

$$$$
EN300_249159
     RDKit          3D

 16 16  0  0  0  0  0  0  0  0999 V2000
   34.8367   14.2030    9.3207 C   0  0  0  0  0  0  0  0  0  0  0  0
   34.9093   13.6387    8.0738 N   0  0  0  0  0  0  0  0  0  0  0  0
   33.6134   13.4053    7.4625 C   0  0  0  0  0  0  0  0  0  0  0  0
   33.6466   13.5490    6.1316 C   0  0  0  0  0  0  0  0  0  0  0  0
   32.6496   12.7257    5.5523 O   0  0  0  0  0  0  0  0  0  0  0  0
   32.2523   11.6241    6.2449 C   0  0  0  0  0  0  0  0  0  0  0  0
   32.8497   10.2793    6.0775 C   0  0  0  0  0  0  0  0  0  0  0  0
   32.2930    9.1784    6.9042 C   0  0  0  0  0  0  0  0  0  0  0  0
   31.2649    9.4437    7.7874 C   0  0  0  0  0  0  0  0  0  0  0  0
   30.5907    8.1776    8.7950 S   0  0  0  0  0  6  0  0  0  0  0  0
   29.8121    9.1522    9.7628 N   0  0  0  0  0  0  0  0  0  0  0  0
   31.5287    7.5994    9.6523 O   0  0  0  0  0  0  0  0  0  0  0  0
   29.4817    7.4719    8.3155 O   0  0  0  0  0  0  0  0  0  0  0  0
   30.7256   10.7343    7.9235 C   0  0  0  0  0  0  0  0  0  0  0  0
   31.2182   11.7811    7.1617 C   0  0  0  0  0  0  0  0  0  0  0  0
   30.6649   12.9891    7.3263 F   0  0  0  0  0  0  0  0  0  0  0  0
  1  2  1  0
  2  3  1  0
  3  4  1  0
  4  5  1  0
  5  6  1  0
  6  7  2  0
  7  8  1  0
  8  9  2  0
  9 10  1  0
 10 11  1  0
 10 12  2  0
 10 13  2  0
  9 14  1  0
 14 15  2  0
 15 16  1  0
 15  6  1  0
A    1
 C1 
A    2
 N1 
A    3
 C2 
A    4
 C3 
A    5
 O1 
A    6
 C4 
A    7
 C5 
A    8
 C6 
A    9
 C7 
A   10
 S1 
A   11
 N2 
A   12
 O2 
A   13
 O3 
A   14
 C8 
A   15
 C9 
A   16
 F1 
M  END
>  <ref_pdb>  (101) 
Ax0310a

>  <ref_mols>  (101) 
Ax0446a,Ax1080a,Ax0812a,Ax0719a,Ax1140a,Ax0528a,Ax0310a

>  <original SMILES>  (101) 
CNCCOc1ccc(S(N)(=O)=O)cc1F

>  <rationale>  (101) 
info info set:sulfonimide_joint;hbond:S105+G127+D109; 

>  <experiment>  (101) 
sulfonimide_joint

>  <cluster_label>  (101) 
15

>  <cluster_rank>  (101) 
7

>  <N_interactions>  (101) 
4

>  <∆∆G>  (101) 
-3.436755

>  <comRMSD>  (101) 
0.653774

>  <ROCS_TanimotoCombo>  (101) 
0.306

>  <ROCS_ShapeTanimoto>  (101) 
0.194

>  <ROCS_ColorTanimoto>  (101) 
0.112

$$$$
