ver_1.2
     RDKit          3D

 14 15  0  0  0  0  0  0  0  0999 V2000
    2.8742    1.7939   -0.0225 C   0  0  0  0  0  0  0  0  0  0  0  0
    2.1431    0.5249   -0.0060 N   0  0  0  0  0  0  0  0  0  0  0  0
    2.6718   -0.7109    0.0108 C   0  0  0  0  0  0  0  0  0  0  0  0
    1.6896   -1.6292    0.0225 N   0  0  0  0  0  0  0  0  0  0  0  0
    0.4985   -1.0050    0.0136 C   0  0  0  0  0  0  0  0  0  0  0  0
    0.8120    0.3390   -0.0041 C   0  0  0  0  0  0  0  0  0  0  0  0
   -0.2141    1.2838   -0.0172 C   0  0  0  0  0  0  0  0  0  0  0  0
    0.0677    2.5110   -0.0334 O   0  0  0  0  0  0  0  0  0  0  0  0
   -1.4703    0.8087   -0.0115 N   0  0  0  0  0  0  0  0  0  0  0  0
   -1.7399   -0.5063    0.0059 C   0  0  0  0  0  0  0  0  0  0  0  0
   -2.9485   -0.8949    0.0105 O   0  0  0  0  0  0  0  0  0  0  0  0
   -0.7764   -1.4420    0.0188 N   0  0  0  0  0  0  0  0  0  0  0  0
   -1.0645   -2.8724    0.0378 C   0  0  0  0  0  0  0  0  0  0  0  0
   -2.5432    1.7995   -0.0252 C   0  0  0  0  0  0  0  0  0  0  0  0
  1  2  1  0
  2  3  1  0
  3  4  2  0
  4  5  1  0
  5  6  2  0
  6  7  1  0
  7  8  2  0
  7  9  1  0
  9 10  1  0
 10 11  2  0
 10 12  1  0
 12 13  1  0
  9 14  1  0
  6  2  1  0
 12  5  1  0
M  END
>  <ref_url>  (1) 
https://github.com/matteoferla/EV-A71-2A-elaborations

>  <submitter_name>  (1) 
Matteo Ferla

>  <submitter_email>  (1) 
matteo.ferla@stats.ox.ac.uk

>  <submitter_institution>  (1) 
University of Oxford

>  <generation_date>  (1) 
2024-02-14

>  <method>  (1) 
A71-ROCS-iter2

>  <rationale>  (1) 
rationale

>  <experiment>  (1) 
experiment

>  <cluster_label>  (1) 
cluster_label

>  <cluster_rank>  (1) 
cluster_rank

>  <N_interactions>  (1) 
N_interactions

>  <∆∆G>  (1) 
∆∆G

>  <comRMSD>  (1) 
comRMSD

>  <ROCS_TanimotoCombo>  (1) 
ROCS_TanimotoCombo

>  <ROCS_ShapeTanimoto>  (1) 
ROCS_ShapeTanimoto

>  <ROCS_ColorTanimoto>  (1) 
ROCS_ColorTanimoto

$$$$
EN300_26666438
     RDKit          3D

 26 28  0  0  0  0  0  0  0  0999 V2000
   35.0033   14.5217    7.5205 C   0  0  0  0  0  0  0  0  0  0  0  0
   34.5304   14.0055    8.8881 C   0  0  0  0  0  0  0  0  0  0  0  0
   35.8359   13.5365    9.5754 C   0  0  0  0  0  0  0  0  0  0  0  0
   33.7283   15.0416    9.6717 C   0  0  0  0  0  0  0  0  0  0  0  0
   33.4798   13.0526    8.7596 O   0  0  0  0  0  0  0  0  0  0  0  0
   32.2632   13.6449    8.8080 C   0  0  0  0  0  0  0  0  0  0  0  0
   31.9310   14.5557    9.5446 O   0  0  0  0  0  0  0  0  0  0  0  0
   31.4514   13.0824    7.9146 N   0  0  0  0  0  0  0  0  0  0  0  0
   30.1135   13.5533    7.8784 C   0  0  0  0  0  0  0  0  0  0  0  0
   29.4192   13.8603    9.2054 C   0  0  0  0  0  0  0  0  0  0  0  0
   27.9775   14.3677    9.1646 C   0  0  0  0  0  0  0  0  0  0  0  0
   27.3718   14.5217    7.7786 C   0  0  0  0  0  0  0  0  0  0  0  0
   28.0477   14.2402    6.6189 C   0  0  0  0  0  0  0  0  0  0  0  0
   29.3256   13.7969    6.6184 C   0  0  0  0  0  0  0  0  0  0  0  0
   29.9663   13.5694    5.0477 Cl  0  0  0  0  0  0  0  0  0  0  0  0
   31.6754   11.7196    7.5813 C   0  0  0  0  0  0  0  0  0  0  0  0
   30.9232   10.7919    8.2006 N   0  0  0  0  0  0  0  0  0  0  0  0
   31.1676    9.5264    7.8991 C   0  0  0  0  0  0  0  0  0  0  0  0
   30.2311    8.3011    8.7235 S   0  0  0  0  0  0  0  0  0  0  0  0
   32.0798    9.1003    7.0276 N   0  0  0  0  0  0  0  0  0  0  0  0
   32.8138   10.0254    6.4180 C   0  0  0  0  0  0  0  0  0  0  0  0
   33.7765    9.6092    5.5128 C   0  0  0  0  0  0  0  0  0  0  0  0
   34.5990   10.5108    4.8361 C   0  0  0  0  0  0  0  0  0  0  0  0
   34.4591   11.8684    5.0650 C   0  0  0  0  0  0  0  0  0  0  0  0
   33.4982   12.3061    5.9661 C   0  0  0  0  0  0  0  0  0  0  0  0
   32.6642   11.3898    6.6538 C   0  0  0  0  0  0  0  0  0  0  0  0
  1  2  1  0
  2  3  1  0
  2  4  1  0
  2  5  1  0
  5  6  1  0
  6  7  2  0
  6  8  1  0
  8  9  1  0
  9 10  2  0
 10 11  1  0
 11 12  2  0
 12 13  1  0
 13 14  2  0
 14 15  1  0
  8 16  1  0
 16 17  2  0
 17 18  1  0
 18 19  1  0
 18 20  2  0
 20 21  1  0
 21 22  2  0
 22 23  1  0
 23 24  2  0
 24 25  1  0
 25 26  2  0
 14  9  1  0
 26 16  1  0
 26 21  1  0
A    1
 C1 
A    2
 C2 
A    3
 C3 
A    4
 C4 
A    5
 O1 
A    6
 C5 
A    7
 O2 
A    8
 N1 
A    9
 C6 
A   10
 C7 
A   11
 C8 
A   12
 C9 
A   13
 C10
A   14
 C11
A   15
CL1 
A   16
 C12
A   17
 N2 
A   18
 C13
A   19
 S1 
A   20
 N3 
A   21
 C14
A   22
 C15
A   23
 C16
A   24
 C17
A   25
 C18
A   26
 C19
M  END
>  <ref_pdb>  (2) 
Ax0310a

>  <ref_mols>  (2) 
Ax0446a,Ax1080a,Ax0812a,Ax0719a,Ax1140a,Ax0528a,Ax0310a

>  <original SMILES>  (2) 
CC(C)(C)OC(=O)N(c1ccccc1Cl)c1nc(S)nc2ccccc12

>  <rationale>  (2) 
info info set:bb_whole;hbond:S87+S105+G127; hydroph_interaction:Y89+Y90+V84; 

>  <experiment>  (2) 
bb_whole

>  <cluster_label>  (2) 
3

>  <cluster_rank>  (2) 
1

>  <N_interactions>  (2) 
6

>  <∆∆G>  (2) 
-11.29999

>  <comRMSD>  (2) 
0.535039

>  <ROCS_TanimotoCombo>  (2) 
0.435

>  <ROCS_ShapeTanimoto>  (2) 
0.282

>  <ROCS_ColorTanimoto>  (2) 
0.152

$$$$
Z45507458
     RDKit          3D

 18 19  0  0  0  0  0  0  0  0999 V2000
   27.0285   15.7970    9.5199 C   0  0  0  0  0  0  0  0  0  0  0  0
   28.1951   15.0280    9.3006 N   0  0  0  0  0  0  0  0  0  0  0  0
   29.0594   15.6300    8.3688 C   0  0  0  0  0  0  0  0  0  0  0  0
   28.8508   14.9614    7.1927 C   0  0  0  0  0  0  0  0  0  0  0  0
   29.5127   13.6715    7.3108 N   0  0  0  0  0  0  0  0  0  0  0  0
   30.8227   13.4368    8.3810 S   0  0  0  0  0  6  0  0  0  0  0  0
   32.0154   14.1123    8.0803 O   0  0  0  0  0  0  0  0  0  0  0  0
   30.3558   13.5034    9.7155 O   0  0  0  0  0  0  0  0  0  0  0  0
   31.3376   11.9397    7.7975 C   0  0  0  0  0  0  0  0  0  0  0  0
   30.8634   10.6847    8.1527 C   0  0  0  0  0  0  0  0  0  0  0  0
   31.4030    9.5428    7.5808 C   0  0  0  0  0  0  0  0  0  0  0  0
   32.4187    9.6525    6.6472 C   0  0  0  0  0  0  0  0  0  0  0  0
   32.9431    8.5911    6.1085 F   0  0  0  0  0  0  0  0  0  0  0  0
   32.9288   10.8453    6.2419 C   0  0  0  0  0  0  0  0  0  0  0  0
   34.1859   10.8934    5.0666 Cl  0  0  0  0  0  0  0  0  0  0  0  0
   32.4588   12.0274    6.7567 C   0  0  0  0  0  0  0  0  0  0  0  0
   28.5002   12.9063    7.9248 C   0  0  0  0  0  0  0  0  0  0  0  0
   27.7633   13.6783    8.8558 C   0  0  0  0  0  0  0  0  0  0  0  0
  1  2  1  0
  2  3  1  0
  3  4  1  0
  4  5  1  0
  5  6  1  0
  6  7  2  0
  6  8  2  0
  6  9  1  0
  9 10  2  0
 10 11  1  0
 11 12  2  0
 12 13  1  0
 12 14  1  0
 14 15  1  0
 14 16  2  0
  5 17  1  0
 17 18  1  0
 18  2  1  0
 16  9  1  0
A    1
 C1 
A    2
 N1 
A    3
 C2 
A    4
 C3 
A    5
 N2 
A    6
 S1 
A    7
 O1 
A    8
 O2 
A    9
 C4 
A   10
 C5 
A   11
 C6 
A   12
 C7 
A   13
 F1 
A   14
 C8 
A   15
CL1 
A   16
 C9 
A   17
 C10
A   18
 C11
M  END
>  <ref_pdb>  (3) 
Ax0310a

>  <ref_mols>  (3) 
Ax0446a,Ax1080a,Ax0812a,Ax0719a,Ax1140a,Ax0528a,Ax0310a

>  <original SMILES>  (3) 
CN1CCN(S(=O)(=O)c2ccc(F)c(Cl)c2)CC1

>  <rationale>  (3) 
info info set:3d;halogenbond:S105; hbond:S87; saltbridge:D39; 

>  <experiment>  (3) 
3d

>  <cluster_label>  (3) 
19

>  <cluster_rank>  (3) 
1

>  <N_interactions>  (3) 
3

>  <∆∆G>  (3) 
-0.002186

>  <comRMSD>  (3) 
0.47978

>  <ROCS_TanimotoCombo>  (3) 
0.31

>  <ROCS_ShapeTanimoto>  (3) 
0.21

>  <ROCS_ColorTanimoto>  (3) 
0.1

$$$$
EN300_27782356
     RDKit          3D

 14 14  0  0  0  0  0  0  0  0999 V2000
   35.6301    6.1668    3.7350 C   0  0  0  0  0  0  0  0  0  0  0  0
   35.1294    7.5961    3.5979 C   0  0  0  0  0  0  0  0  0  0  0  0
   34.2990    8.0318    4.7046 O   0  0  0  0  0  0  0  0  0  0  0  0
   34.3540    9.3547    4.9434 C   0  0  0  0  0  0  0  0  0  0  0  0
   35.2643   10.0125    4.4590 O   0  0  0  0  0  0  0  0  0  0  0  0
   33.2562   10.0175    5.8121 C   0  0  0  0  0  0  0  0  0  0  0  0
   33.2489   11.5711    5.4086 C   0  0  0  0  0  0  0  0  0  0  0  0
   32.1451   12.2387    6.3110 C   0  0  0  0  0  0  0  0  0  0  0  0
   31.3400   11.5039    7.2942 C   0  0  0  0  0  0  0  0  0  0  0  0
   30.3531   12.2682    8.0618 N   0  0  0  0  0  0  0  0  0  0  0  0
   31.5544   10.0725    7.4657 C   0  0  0  0  0  0  0  0  0  0  0  0
   30.6767    9.6293    8.4713 N   0  0  0  0  0  0  0  0  0  0  0  0
   30.2984    8.2903    8.4379 C   0  0  0  0  0  0  0  0  0  0  0  0
   32.4796    9.3774    6.7377 N   0  0  0  0  0  0  0  0  0  0  0  0
  1  2  1  0
  2  3  1  0
  3  4  1  0
  4  5  2  0
  4  6  1  0
  6  7  2  0
  7  8  1  0
  8  9  2  0
  9 10  1  0
  9 11  1  0
 11 12  1  0
 12 13  1  0
 11 14  2  0
 14  6  1  0
A    1
 C1 
A    2
 C2 
A    3
 O1 
A    4
 C3 
A    5
 O2 
A    6
 C4 
A    7
 C5 
A    8
 C6 
A    9
 C7 
A   10
 N1 
A   11
 C8 
A   12
 N2 
A   13
 C9 
A   14
 N3 
M  END
>  <ref_pdb>  (4) 
Ax0310a

>  <ref_mols>  (4) 
Ax0446a,Ax1080a,Ax0812a,Ax0719a,Ax1140a,Ax0528a,Ax0310a

>  <original SMILES>  (4) 
CCOC(=O)c1ccc(N)c(NC)n1

>  <rationale>  (4) 
info info set:bb_densepocket2;hbond:S105+S125; hydroph_interaction:P107+E106; 

>  <experiment>  (4) 
bb_densepocket2

>  <cluster_label>  (4) 
4

>  <cluster_rank>  (4) 
1

>  <N_interactions>  (4) 
5

>  <∆∆G>  (4) 
-3.582513

>  <comRMSD>  (4) 
0.939464

>  <ROCS_TanimotoCombo>  (4) 
0.621

>  <ROCS_ShapeTanimoto>  (4) 
0.227

>  <ROCS_ColorTanimoto>  (4) 
0.394

$$$$
EN300_2908013
     RDKit          3D

 10 10  0  0  0  0  0  0  0  0999 V2000
   30.6681    8.0850    8.9708 C   0  0  0  0  0  0  0  0  0  0  0  0
   30.2469    9.1805    8.1998 N   0  0  0  0  0  0  0  0  0  0  0  0
   31.2851    9.7343    7.4489 C   0  0  0  0  0  0  0  0  0  0  0  0
   32.1872    8.9574    6.7932 N   0  0  0  0  0  0  0  0  0  0  0  0
   33.1407    9.5769    6.0756 C   0  0  0  0  0  0  0  0  0  0  0  0
   33.2798   11.0722    5.9622 C   0  0  0  0  0  0  0  0  0  0  0  0
   32.3019   11.7238    6.6877 C   0  0  0  0  0  0  0  0  0  0  0  0
   32.7693   13.1809    6.3428 C   0  0  0  0  0  0  0  0  0  0  0  0
   31.2967   11.1422    7.4328 C   0  0  0  0  0  0  0  0  0  0  0  0
   30.3208   11.9017    8.1422 N   0  0  0  0  0  0  0  0  0  0  0  0
  1  2  1  0
  2  3  1  0
  3  4  2  0
  4  5  1  0
  5  6  2  0
  6  7  1  0
  7  8  1  0
  7  9  2  0
  9 10  1  0
  9  3  1  0
A    1
 C1 
A    2
 N1 
A    3
 C2 
A    4
 N2 
A    5
 C3 
A    6
 C4 
A    7
 C5 
A    8
 C6 
A    9
 C7 
A   10
 N3 
M  END
>  <ref_pdb>  (5) 
Ax0310a

>  <ref_mols>  (5) 
Ax0446a,Ax1080a,Ax0812a,Ax0719a,Ax1140a,Ax0528a,Ax0310a

>  <original SMILES>  (5) 
CNc1nccc(C)c1N

>  <rationale>  (5) 
info info set:bb_densepocket2;hbond:S125+P107; 

>  <experiment>  (5) 
bb_densepocket2

>  <cluster_label>  (5) 
11

>  <cluster_rank>  (5) 
1

>  <N_interactions>  (5) 
2

>  <∆∆G>  (5) 
-5.89769

>  <comRMSD>  (5) 
0.57136

>  <ROCS_TanimotoCombo>  (5) 
0.638

>  <ROCS_ShapeTanimoto>  (5) 
0.201

>  <ROCS_ColorTanimoto>  (5) 
0.437

$$$$
Z1078498278
     RDKit          3D

 18 19  0  0  0  0  0  0  0  0999 V2000
   34.2673   10.6216    5.0269 C   0  0  0  0  0  0  0  0  0  0  0  0
   33.1402   10.6191    6.0541 C   0  0  0  0  0  0  0  0  0  0  0  0
   32.6362    9.2551    6.3472 C   0  0  0  0  0  0  0  0  0  0  0  0
   31.5021    8.7751    7.3308 C   0  0  0  0  0  0  0  0  0  0  0  0
   31.0359   10.1260    7.9265 C   0  0  0  0  0  0  0  0  0  0  0  0
   30.0665   10.0178    8.8085 F   0  0  0  0  0  0  0  0  0  0  0  0
   31.6146   11.5055    7.5758 C   0  0  0  0  0  0  0  0  0  0  0  0
   31.0116   12.7035    8.3327 C   0  0  0  0  0  0  0  0  0  0  0  0
   31.8163   13.3356    8.9933 O   0  0  0  0  0  0  0  0  0  0  0  0
   29.6918   13.0372    8.2867 N   0  0  0  0  0  0  0  0  0  0  0  0
   28.8299   12.9546    7.1228 C   0  0  0  0  0  0  0  0  0  0  0  0
   27.9779   14.1760    7.2638 C   0  0  0  0  0  0  0  0  0  0  0  0
   28.4833   14.9109    8.3184 C   0  0  0  0  0  0  0  0  0  0  0  0
   29.3511   14.1904    9.1551 C   0  0  2  0  0  0  0  0  0  0  0  0
   30.6896   14.9202    9.4107 C   0  0  0  0  0  0  0  0  0  0  0  0
   31.8294   14.5189    9.1885 O   0  0  0  0  0  0  0  0  0  0  0  0
   30.5947   16.2111    9.9409 O   0  0  0  0  0  0  0  0  0  0  0  0
   32.6219   11.7159    6.6704 C   0  0  0  0  0  0  0  0  0  0  0  0
  1  2  1  0
  2  3  2  0
  3  4  1  0
  4  5  2  0
  5  6  1  0
  5  7  1  0
  7  8  1  0
  8  9  2  0
  8 10  1  0
 10 11  1  0
 11 12  1  0
 12 13  1  0
 13 14  1  0
 14 15  1  6
 15 16  2  0
 15 17  1  0
  7 18  2  0
 18  2  1  0
 14 10  1  0
A    1
 C1 
A    2
 C2 
A    3
 C3 
A    4
 C4 
A    5
 C5 
A    6
 F1 
A    7
 C6 
A    8
 C7 
A    9
 O1 
A   10
 N1 
A   11
 C8 
A   12
 C9 
A   13
 C10
A   14
 C11
A   15
 C12
A   16
 O2 
A   17
 O3 
A   18
 C13
M  END
>  <ref_pdb>  (6) 
Ax0310a

>  <ref_mols>  (6) 
Ax0446a,Ax1080a,Ax0812a,Ax0719a,Ax1140a,Ax0528a,Ax0310a

>  <original SMILES>  (6) 
Cc1ccc(F)c(C(=O)N2CCC[C@@H]2C(=O)O)c1

>  <rationale>  (6) 
info info set:3d;halogenbond:C110; hbond:S87+G127; hydroph_interaction:Y90; 

>  <experiment>  (6) 
3d

>  <cluster_label>  (6) 
2

>  <cluster_rank>  (6) 
1

>  <N_interactions>  (6) 
4

>  <∆∆G>  (6) 
-2.228437

>  <comRMSD>  (6) 
0.700812

>  <ROCS_TanimotoCombo>  (6) 
0.338

>  <ROCS_ShapeTanimoto>  (6) 
0.223

>  <ROCS_ColorTanimoto>  (6) 
0.115

$$$$
EN300_7489981
     RDKit          3D

 17 17  0  0  0  0  0  0  0  0999 V2000
   35.2606   15.1205    6.7920 C   0  0  0  0  0  0  0  0  0  0  0  0
   34.8250   15.1417    8.1607 N   0  0  0  0  0  0  0  0  0  0  0  0
   34.7733   13.6492    8.6615 S   0  0  0  0  0  6  0  0  0  0  0  0
   34.7323   13.0686    7.3368 O   0  0  0  0  0  0  0  0  0  0  0  0
   33.6219   13.3739    9.4489 O   0  0  0  0  0  0  0  0  0  0  0  0
   36.3012   13.2004    9.5496 C   0  0  0  0  0  0  0  0  0  0  0  0
   37.5011   12.9443    8.9266 C   0  0  0  0  0  0  0  0  0  0  0  0
   38.6673   12.4710    9.6541 C   0  0  0  0  0  0  0  0  0  0  0  0
   38.6443   12.2523   11.0201 C   0  0  0  0  0  0  0  0  0  0  0  0
   39.7452   11.7655   11.6517 O   0  0  0  0  0  0  0  0  0  0  0  0
   40.5248   12.7247   12.6894 S   0  0  0  0  0  6  0  0  0  0  0  0
   40.7705   13.9796   12.0123 O   0  0  0  0  0  0  0  0  0  0  0  0
   39.8786   12.6440   13.9783 O   0  0  0  0  0  0  0  0  0  0  0  0
   41.9545   12.0627   12.8912 F   0  0  0  0  0  0  0  0  0  0  0  0
   37.4439   12.5524   11.6752 C   0  0  0  0  0  0  0  0  0  0  0  0
   37.2063   12.4034   13.0398 N   0  0  0  0  0  0  0  0  0  0  0  0
   36.3705   13.0162   10.9369 C   0  0  0  0  0  0  0  0  0  0  0  0
  1  2  1  0
  2  3  1  0
  3  4  2  0
  3  5  2  0
  3  6  1  0
  6  7  2  0
  7  8  1  0
  8  9  2  0
  9 10  1  0
 10 11  1  0
 11 12  2  0
 11 13  2  0
 11 14  1  0
  9 15  1  0
 15 16  1  0
 15 17  2  0
 17  6  1  0
A    1
 C1 
A    2
 N1 
A    3
 S1 
A    4
 O1 
A    5
 O2 
A    6
 C2 
A    7
 C3 
A    8
 C4 
A    9
 C5 
A   10
 O3 
A   11
 S2 
A   12
 O4 
A   13
 O5 
A   14
 F1 
A   15
 C6 
A   16
 N2 
A   17
 C7 
M  END
>  <ref_pdb>  (7) 
Ax0310a

>  <ref_mols>  (7) 
Ax0446a,Ax1080a,Ax0812a,Ax0719a,Ax1140a,Ax0528a,Ax0310a

>  <original SMILES>  (7) 
CNS(=O)(=O)c1ccc(OS(=O)(=O)F)c(N)c1

>  <rationale>  (7) 
info info set:sulfonimide_joint;hbond:G127+T126+E85+F83; hydroph_interaction:V84; 

>  <experiment>  (7) 
sulfonimide_joint

>  <cluster_label>  (7) 
15

>  <cluster_rank>  (7) 
1

>  <N_interactions>  (7) 
7

>  <∆∆G>  (7) 
-2.436369

>  <comRMSD>  (7) 
0.705624

>  <ROCS_TanimotoCombo>  (7) 
0.337

>  <ROCS_ShapeTanimoto>  (7) 
0.178

>  <ROCS_ColorTanimoto>  (7) 
0.159

$$$$
Z52591645
     RDKit          3D

 28 31  0  0  0  0  0  0  0  0999 V2000
   25.2690   12.4743    7.2733 C   0  0  0  0  0  0  0  0  0  0  0  0
   26.4820   12.7720    6.5800 O   0  0  0  0  0  0  0  0  0  0  0  0
   27.5128   13.2681    7.3376 C   0  0  0  0  0  0  0  0  0  0  0  0
   27.3635   14.0284    8.4933 C   0  0  0  0  0  0  0  0  0  0  0  0
   28.4820   14.4849    9.1951 C   0  0  0  0  0  0  0  0  0  0  0  0
   29.7745   14.1974    8.7664 C   0  0  0  0  0  0  0  0  0  0  0  0
   30.8851   14.7161    9.5548 C   0  0  0  0  0  0  0  0  0  0  0  0
   30.6090   15.5895   10.5625 N   0  0  0  0  0  0  0  0  0  0  0  0
   32.0416   14.3903    9.3208 O   0  0  0  0  0  0  0  0  0  0  0  0
   29.9376   13.4300    7.6079 C   0  0  0  0  0  0  0  0  0  0  0  0
   31.2022   13.1169    7.1579 O   0  0  0  0  0  0  0  0  0  0  0  0
   31.4845   11.7567    7.1805 C   0  0  0  0  0  0  0  0  0  0  0  0
   30.6864   10.9243    7.9332 N   0  0  0  0  0  0  0  0  0  0  0  0
   30.9534    9.6135    7.9553 C   0  0  0  0  0  0  0  0  0  0  0  0
   30.1698    8.8250    8.7573 C   0  0  0  0  0  0  0  0  0  0  0  0
   31.9100    8.9874    7.2932 N   0  0  0  0  0  0  0  0  0  0  0  0
   32.6661    9.8216    6.5730 C   0  0  0  0  0  0  0  0  0  0  0  0
   33.9436    9.1722    5.6601 S   0  0  0  0  0  0  0  0  0  0  0  0
   34.3842   10.7069    5.1502 C   0  0  0  0  0  0  0  0  0  0  0  0
   33.5894   11.7048    5.6273 C   0  0  0  0  0  0  0  0  0  0  0  0
   33.9970   13.0486    5.1572 C   0  0  0  0  0  0  0  0  0  0  0  0
   35.1030   13.6526    5.7872 C   0  0  0  0  0  0  0  0  0  0  0  0
   35.4202   14.9751    5.1199 C   0  0  0  0  0  0  0  0  0  0  0  0
   34.6673   15.4549    4.0456 C   0  0  0  0  0  0  0  0  0  0  0  0
   33.5943   14.7756    3.5515 C   0  0  0  0  0  0  0  0  0  0  0  0
   33.2639   13.5777    4.1037 C   0  0  0  0  0  0  0  0  0  0  0  0
   32.5470   11.2058    6.4694 C   0  0  0  0  0  0  0  0  0  0  0  0
   28.8121   12.9742    6.9030 C   0  0  0  0  0  0  0  0  0  0  0  0
  1  2  1  0
  2  3  1  0
  3  4  2  0
  4  5  1  0
  5  6  2  0
  6  7  1  0
  7  8  1  0
  7  9  2  0
  6 10  1  0
 10 11  1  0
 11 12  1  0
 12 13  2  0
 13 14  1  0
 14 15  1  0
 14 16  2  0
 16 17  1  0
 17 18  1  0
 18 19  1  0
 19 20  2  0
 20 21  1  0
 21 22  2  0
 22 23  1  0
 23 24  2  0
 24 25  1  0
 25 26  2  0
 20 27  1  0
 10 28  2  0
 28  3  1  0
 27 12  1  0
 27 17  2  0
 26 21  1  0
A    1
 C1 
A    2
 O1 
A    3
 C2 
A    4
 C3 
A    5
 C4 
A    6
 C5 
A    7
 C6 
A    8
 N1 
A    9
 O2 
A   10
 C7 
A   11
 O3 
A   12
 C8 
A   13
 N2 
A   14
 C9 
A   15
 C10
A   16
 N3 
A   17
 C11
A   18
 S1 
A   19
 C12
A   20
 C13
A   21
 C14
A   22
 C15
A   23
 C16
A   24
 C17
A   25
 C18
A   26
 C19
A   27
 C20
A   28
 C21
M  END
>  <ref_pdb>  (8) 
Ax0310a

>  <ref_mols>  (8) 
Ax0446a,Ax1080a,Ax0812a,Ax0719a,Ax1140a,Ax0528a,Ax0310a

>  <original SMILES>  (8) 
COc1ccc(C(N)=O)c(Oc2nc(C)nc3scc(-c4ccccc4)c23)c1

>  <rationale>  (8) 
info info set:screening_whole;hbond:S87+Q95; hydroph_interaction:P107+Y89+V124; 

>  <experiment>  (8) 
screening_whole

>  <cluster_label>  (8) 
18

>  <cluster_rank>  (8) 
1

>  <N_interactions>  (8) 
5

>  <∆∆G>  (8) 
-12.891471

>  <comRMSD>  (8) 
0.730983

>  <ROCS_TanimotoCombo>  (8) 
0.462

>  <ROCS_ShapeTanimoto>  (8) 
0.272

>  <ROCS_ColorTanimoto>  (8) 
0.189

$$$$
Z86302940
     RDKit          3D

 26 28  0  0  0  0  0  0  0  0999 V2000
   25.0654   12.9883    9.9290 C   0  0  0  0  0  0  0  0  0  0  0  0
   26.3801   13.0612    9.4028 C   0  0  0  0  0  0  0  0  0  0  0  0
   26.8342   14.1314    8.7579 C   0  0  0  0  0  0  0  0  0  0  0  0
   28.0595   13.9811    8.3505 C   0  0  0  0  0  0  0  0  0  0  0  0
   28.1953   13.3144    7.1805 C   0  0  0  0  0  0  0  0  0  0  0  0
   29.5148   12.9914    6.6129 C   0  0  0  0  0  0  0  0  0  0  0  0
   30.6527   13.4969    7.5047 C   0  0  0  0  0  0  0  0  0  0  0  0
   31.7755   13.2833    7.1815 O   0  0  0  0  0  0  0  0  0  0  0  0
   31.9235   11.9100    7.0769 C   0  0  0  0  0  0  0  0  0  0  0  0
   31.0385   11.1322    7.7489 N   0  0  0  0  0  0  0  0  0  0  0  0
   31.1283    9.7855    7.6954 C   0  0  0  0  0  0  0  0  0  0  0  0
   30.1039    8.8967    8.4877 C   0  0  0  0  0  0  0  0  0  0  0  0
   30.1446    9.0780    9.7992 F   0  0  0  0  0  0  0  0  0  0  0  0
   30.3070    7.5794    8.3973 F   0  0  0  0  0  0  0  0  0  0  0  0
   28.7997    9.0916    8.1958 F   0  0  0  0  0  0  0  0  0  0  0  0
   32.1380    9.1825    6.9326 N   0  0  0  0  0  0  0  0  0  0  0  0
   33.0101    9.9345    6.2617 C   0  0  0  0  0  0  0  0  0  0  0  0
   34.1555    9.3440    5.3909 C   0  0  0  0  0  0  0  0  0  0  0  0
   34.9841   10.3072    4.7642 C   0  0  0  0  0  0  0  0  0  0  0  0
   34.8592   11.7956    4.8624 C   0  0  0  0  0  0  0  0  0  0  0  0
   33.8455   12.3141    5.6255 C   0  0  0  0  0  0  0  0  0  0  0  0
   32.9517   11.4609    6.3011 C   0  0  0  0  0  0  0  0  0  0  0  0
   30.4174   14.2075    8.7032 C   0  0  0  0  0  0  0  0  0  0  0  0
   31.5314   14.6200    9.3933 O   0  0  0  0  0  0  0  0  0  0  0  0
   31.4601   15.8794   10.0580 C   0  0  0  0  0  0  0  0  0  0  0  0
   29.1192   14.4450    9.1153 C   0  0  0  0  0  0  0  0  0  0  0  0
  1  2  1  0
  2  3  2  3
  3  4  1  0
  4  5  2  0
  5  6  1  0
  6  7  2  0
  7  8  1  0
  8  9  1  0
  9 10  2  0
 10 11  1  0
 11 12  1  0
 12 13  1  0
 12 14  1  0
 12 15  1  0
 11 16  2  0
 16 17  1  0
 17 18  2  0
 18 19  1  0
 19 20  2  0
 20 21  1  0
 21 22  2  0
  7 23  1  0
 23 24  1  0
 24 25  1  0
 23 26  2  0
 26  4  1  0
 22  9  1  0
 22 17  1  0
A    1
 C1 
A    2
 C2 
A    3
 C3 
A    4
 C4 
A    5
 C5 
A    6
 C6 
A    7
 C7 
A    8
 O1 
A    9
 C8 
A   10
 N1 
A   11
 C9 
A   12
 C10
A   13
 F1 
A   14
 F2 
A   15
 F3 
A   16
 N2 
A   17
 C11
A   18
 C12
A   19
 C13
A   20
 C14
A   21
 C15
A   22
 C16
A   23
 C17
A   24
 O2 
A   25
 C18
A   26
 C19
M  END
>  <ref_pdb>  (9) 
Ax0310a

>  <ref_mols>  (9) 
Ax0446a,Ax1080a,Ax0812a,Ax0719a,Ax1140a,Ax0528a,Ax0310a

>  <original SMILES>  (9) 
CC=Cc1ccc(Oc2nc(C(F)(F)F)nc3ccccc23)c(OC)c1

>  <rationale>  (9) 
info info set:screening_whole;halogenbond:P107; hbond:S87+G127; hydroph_interaction:P107+Y89+L22+N19; 

>  <experiment>  (9) 
screening_whole

>  <cluster_label>  (9) 
13

>  <cluster_rank>  (9) 
1

>  <N_interactions>  (9) 
7

>  <∆∆G>  (9) 
-2.936442

>  <comRMSD>  (9) 
0.930911

>  <ROCS_TanimotoCombo>  (9) 
0.472

>  <ROCS_ShapeTanimoto>  (9) 
0.275

>  <ROCS_ColorTanimoto>  (9) 
0.198

$$$$
Z55915292
     RDKit          3D

 24 28  0  0  0  0  0  0  0  0999 V2000
   32.2897    8.0459    7.1657 O   0  0  0  0  0  0  0  0  0  0  0  0
   31.9355    9.1641    7.2318 C   0  0  0  0  0  0  0  0  0  0  0  0
   30.7858    9.5453    7.9818 N   0  0  0  0  0  0  0  0  0  0  0  0
   30.5540   10.8054    8.3873 N   0  0  0  0  0  0  0  0  0  0  0  0
   31.2970   11.7377    7.9037 C   0  0  0  0  0  0  0  0  0  0  0  0
   31.0125   13.0364    8.3610 C   0  0  0  0  0  0  0  0  0  0  0  0
   31.9204   13.7522    8.9995 N   0  0  0  0  0  0  0  0  0  0  0  0
   31.3837   14.9585    9.2724 N   0  0  0  0  0  0  0  0  0  0  0  0
   30.1689   14.9552    8.7724 C   0  0  0  0  0  0  0  0  0  0  0  0
   29.8488   13.7535    8.2347 N   0  0  0  0  0  0  0  0  0  0  0  0
   28.5794   13.4819    7.6828 C   0  0  0  0  0  0  0  0  0  0  0  0
   28.3101   12.3984    6.9107 C   0  0  0  0  0  0  0  0  0  0  0  0
   27.0591   12.0808    6.3514 C   0  0  0  0  0  0  0  0  0  0  0  0
   25.9997   12.9078    6.5281 C   0  0  0  0  0  0  0  0  0  0  0  0
   26.2215   14.1189    7.3589 C   0  0  0  0  0  0  0  0  0  0  0  0
   27.5663   14.3503    7.9643 C   0  0  0  0  0  0  0  0  0  0  0  0
   27.6245   15.7549    9.0126 S   0  0  0  0  0  0  0  0  0  0  0  0
   29.2594   16.0945    8.7239 C   0  0  0  0  0  0  0  0  0  0  0  0
   32.4044   11.5265    6.9064 C   0  0  0  0  0  0  0  0  0  0  0  0
   33.1476   12.5385    6.2941 C   0  0  0  0  0  0  0  0  0  0  0  0
   34.1643   12.2312    5.3773 C   0  0  0  0  0  0  0  0  0  0  0  0
   34.4482   10.8970    5.0605 C   0  0  0  0  0  0  0  0  0  0  0  0
   33.7101    9.8862    5.6645 C   0  0  0  0  0  0  0  0  0  0  0  0
   32.7002   10.2158    6.5819 C   0  0  0  0  0  0  0  0  0  0  0  0
  1  2  2  0
  2  3  1  0
  3  4  1  0
  4  5  2  0
  5  6  1  0
  6  7  2  0
  7  8  1  0
  8  9  2  0
  9 10  1  0
 10 11  1  0
 11 12  2  0
 12 13  1  0
 13 14  2  0
 14 15  1  0
 15 16  2  0
 16 17  1  0
 17 18  1  0
  5 19  1  0
 19 20  2  0
 20 21  1  0
 21 22  2  0
 22 23  1  0
 23 24  2  0
 24  2  1  0
 10  6  1  0
 16 11  1  0
 24 19  1  0
 18  9  1  0
A    1
 O1 
A    2
 C1 
A    3
 N1 
A    4
 N2 
A    5
 C2 
A    6
 C3 
A    7
 N3 
A    8
 N4 
A    9
 C4 
A   10
 N5 
A   11
 C5 
A   12
 C6 
A   13
 C7 
A   14
 C8 
A   15
 C9 
A   16
 C10
A   17
 S1 
A   18
 C11
A   19
 C12
A   20
 C13
A   21
 C14
A   22
 C15
A   23
 C16
A   24
 C17
M  END
>  <ref_pdb>  (10) 
Ax0310a

>  <ref_mols>  (10) 
Ax0446a,Ax1080a,Ax0812a,Ax0719a,Ax1140a,Ax0528a,Ax0310a

>  <original SMILES>  (10) 
O=c1[nH]nc(-c2nnc3n2-c2ccccc2SC3)c2ccccc12

>  <rationale>  (10) 
info info set:screening_whole;hbond:S87+E106; hydroph_interaction:P107+Y89+H21; 

>  <experiment>  (10) 
screening_whole

>  <cluster_label>  (10) 
6

>  <cluster_rank>  (10) 
1

>  <N_interactions>  (10) 
5

>  <∆∆G>  (10) 
-2.687151

>  <comRMSD>  (10) 
0.524828

>  <ROCS_TanimotoCombo>  (10) 
0.467

>  <ROCS_ShapeTanimoto>  (10) 
0.267

>  <ROCS_ColorTanimoto>  (10) 
0.2

$$$$
Z54409144
     RDKit          3D

 18 19  0  0  0  0  0  0  0  0999 V2000
   31.5456   13.4009    5.3851 O   0  0  0  0  0  0  0  0  0  0  0  0
   30.9727   12.7453    6.2537 C   0  0  0  0  0  0  0  0  0  0  0  0
   29.8990   13.4339    7.0356 C   0  0  0  0  0  0  0  0  0  0  0  0
   28.5715   13.4770    6.6880 C   0  0  0  0  0  0  0  0  0  0  0  0
   27.6978   14.1655    7.5057 C   0  0  0  0  0  0  0  0  0  0  0  0
   28.1323   14.8007    8.6679 C   0  0  0  0  0  0  0  0  0  0  0  0
   29.4676   14.7511    9.0147 C   0  0  0  0  0  0  0  0  0  0  0  0
   30.3172   14.0595    8.1661 C   0  0  0  0  0  0  0  0  0  0  0  0
   31.6421   13.9311    8.3236 O   0  0  0  0  0  0  0  0  0  0  0  0
   32.1377   14.4283    9.4902 C   0  0  0  0  0  0  0  0  0  0  0  0
   33.2512   13.6761    9.5635 F   0  0  0  0  0  0  0  0  0  0  0  0
   31.2520   14.0921   10.4259 F   0  0  0  0  0  0  0  0  0  0  0  0
   31.2852   11.4375    6.5686 N   0  0  0  0  0  0  0  0  0  0  0  0
   32.6412   10.9531    6.3638 C   0  0  0  0  0  0  0  0  0  0  0  0
   32.6907    9.4413    6.4327 C   0  0  0  0  0  0  0  0  0  0  0  0
   32.0973    8.8715    7.6198 O   0  0  0  0  0  0  0  0  0  0  0  0
   30.8469    9.4410    8.0642 C   0  0  0  0  0  0  0  0  0  0  0  0
   30.6673   10.9423    7.7931 C   0  0  0  0  0  0  0  0  0  0  0  0
  1  2  2  0
  2  3  1  0
  3  4  2  0
  4  5  1  0
  5  6  2  0
  6  7  1  0
  7  8  2  0
  8  9  1  0
  9 10  1  0
 10 11  1  0
 10 12  1  0
  2 13  1  0
 13 14  1  0
 14 15  1  0
 15 16  1  0
 16 17  1  0
 17 18  1  0
  8  3  1  0
 18 13  1  0
A    1
 O1 
A    2
 C1 
A    3
 C2 
A    4
 C3 
A    5
 C4 
A    6
 C5 
A    7
 C6 
A    8
 C7 
A    9
 O2 
A   10
 C8 
A   11
 F1 
A   12
 F2 
A   13
 N1 
A   14
 C9 
A   15
 C10
A   16
 O3 
A   17
 C11
A   18
 C12
M  END
>  <ref_pdb>  (11) 
Ax0310a

>  <ref_mols>  (11) 
Ax0446a,Ax1080a,Ax0812a,Ax0719a,Ax1140a,Ax0528a,Ax0310a

>  <original SMILES>  (11) 
O=C(c1ccccc1OC(F)F)N1CCOCC1

>  <rationale>  (11) 
info info set:3d;halogenbond:S125+G127; hbond:S87; hydroph_interaction:Y89+Y90; 

>  <experiment>  (11) 
3d

>  <cluster_label>  (11) 
14

>  <cluster_rank>  (11) 
1

>  <N_interactions>  (11) 
5

>  <∆∆G>  (11) 
-2.268463

>  <comRMSD>  (11) 
0.601064

>  <ROCS_TanimotoCombo>  (11) 
0.359

>  <ROCS_ShapeTanimoto>  (11) 
0.213

>  <ROCS_ColorTanimoto>  (11) 
0.146

$$$$
EN300_28298106
     RDKit          3D

 23 24  0  0  0  0  0  0  0  0999 V2000
   30.3441    8.3668    8.9281 C   0  0  0  0  0  0  0  0  0  0  0  0
   31.0473    9.4560    8.1876 C   0  0  0  0  0  0  0  0  0  0  0  0
   30.7199   10.7488    8.4516 N   0  0  0  0  0  0  0  0  0  0  0  0
   31.3612   11.7348    7.8234 C   0  0  0  0  0  0  0  0  0  0  0  0
   30.9492   13.0738    8.1613 N   0  0  0  0  0  0  0  0  0  0  0  0
   29.4947   13.2865    8.2631 C   0  0  0  0  0  0  0  0  0  0  0  0
   29.0309   13.9715    6.9687 C   0  0  0  0  0  0  0  0  0  0  0  0
   29.0360   13.4612    5.8593 O   0  0  0  0  0  0  0  0  0  0  0  0
   28.6530   15.1633    7.1611 O   0  0  0  0  0  0  0  0  0  0  0  0
   31.5864   14.1515    9.0235 C   0  0  0  0  0  0  0  0  0  0  0  0
   30.9009   15.2974    9.5678 O   0  0  0  0  0  0  0  0  0  0  0  0
   33.0664   14.1195    9.3987 C   0  0  0  0  0  0  0  0  0  0  0  0
   33.9489   14.8536    8.7007 F   0  0  0  0  0  0  0  0  0  0  0  0
   33.6065   12.9355    9.2601 F   0  0  0  0  0  0  0  0  0  0  0  0
   33.2197   14.5656   10.6565 F   0  0  0  0  0  0  0  0  0  0  0  0
   32.4235   11.3854    6.8251 C   0  0  0  0  0  0  0  0  0  0  0  0
   33.2683   12.0646    6.0178 C   0  0  0  0  0  0  0  0  0  0  0  0
   33.1776   13.5834    6.1006 C   0  0  0  0  0  0  0  0  0  0  0  0
   34.0931   11.2997    5.2378 C   0  0  0  0  0  0  0  0  0  0  0  0
   35.1516   11.7623    4.2346 C   0  0  0  0  0  0  0  0  0  0  0  0
   33.8059    9.6464    5.5155 S   0  0  0  0  0  0  0  0  0  0  0  0
   32.6130   10.0207    6.6676 C   0  0  0  0  0  0  0  0  0  0  0  0
   31.9707    9.0338    7.3174 N   0  0  0  0  0  0  0  0  0  0  0  0
  1  2  1  0
  2  3  2  0
  3  4  1  0
  4  5  1  0
  5  6  1  0
  6  7  1  0
  7  8  2  0
  7  9  1  0
  5 10  1  0
 10 11  2  0
 10 12  1  0
 12 13  1  0
 12 14  1  0
 12 15  1  0
  4 16  2  0
 16 17  1  0
 17 18  1  0
 17 19  2  0
 19 20  1  0
 19 21  1  0
 21 22  1  0
 22 23  2  0
 23  2  1  0
 22 16  1  0
A    1
 C1 
A    2
 C2 
A    3
 N1 
A    4
 C3 
A    5
 N2 
A    6
 C4 
A    7
 C5 
A    8
 O1 
A    9
 O2 
A   10
 C6 
A   11
 O3 
A   12
 C7 
A   13
 F1 
A   14
 F2 
A   15
 F3 
A   16
 C8 
A   17
 C9 
A   18
 C10
A   19
 C11
A   20
 C12
A   21
 S1 
A   22
 C13
A   23
 N3 
M  END
>  <ref_pdb>  (12) 
Ax0310a

>  <ref_mols>  (12) 
Ax0446a,Ax1080a,Ax0812a,Ax0719a,Ax1140a,Ax0528a,Ax0310a

>  <original SMILES>  (12) 
Cc1nc(N(CC(=O)O)C(=O)C(F)(F)F)c2c(C)c(C)sc2n1

>  <rationale>  (12) 
info info set:bb_whole;halogenbond:E85+G127; hbond:S87+S105; hydroph_interaction:V124; saltbridge:H21; 

>  <experiment>  (12) 
bb_whole

>  <cluster_label>  (12) 
1

>  <cluster_rank>  (12) 
1

>  <N_interactions>  (12) 
6

>  <∆∆G>  (12) 
-5.993787

>  <comRMSD>  (12) 
0.715491

>  <ROCS_TanimotoCombo>  (12) 
0.422

>  <ROCS_ShapeTanimoto>  (12) 
0.252

>  <ROCS_ColorTanimoto>  (12) 
0.17

$$$$
Z2739892545
     RDKit          3D

 20 21  0  0  0  0  0  0  0  0999 V2000
   30.1481    8.5135    8.5231 C   0  0  0  0  0  0  0  0  0  0  0  0
   31.4173    8.2744    8.0871 N   0  0  0  0  0  0  0  0  0  0  0  0
   32.0051    9.1514    7.2217 C   0  0  0  0  0  0  0  0  0  0  0  0
   32.9350    8.6898    6.4060 N   0  0  0  0  0  0  0  0  0  0  0  0
   33.5709    9.4852    5.5443 C   0  0  0  0  0  0  0  0  0  0  0  0
   34.6257    8.8211    4.6557 C   0  0  0  0  0  0  0  0  0  0  0  0
   33.3455   10.8360    5.4121 C   0  0  0  0  0  0  0  0  0  0  0  0
   32.4142   11.5299    6.1638 C   0  0  0  0  0  0  0  0  0  0  0  0
   31.6642   10.6304    7.1597 C   0  0  0  0  0  0  0  0  0  0  0  0
   30.6755   11.4021    7.9493 C   0  0  0  0  0  0  0  0  0  0  0  0
   30.1755   10.8281    8.8626 O   0  0  0  0  0  0  0  0  0  0  0  0
   30.3987   12.6660    7.5216 N   0  0  0  0  0  0  0  0  0  0  0  0
   29.8779   12.8510    6.1893 C   0  0  0  0  0  0  0  0  0  0  0  0
   28.7228   13.7930    6.2695 C   0  0  1  0  0  0  0  0  0  0  0  0
   27.4353   13.4733    5.4804 C   0  0  0  0  0  0  0  0  0  0  0  0
   28.4327   13.7468    7.7425 C   0  0  2  0  0  0  0  0  0  0  0  0
   27.8433   14.9244    7.8959 C   0  0  0  0  0  0  0  0  0  0  0  0
   26.6633   14.8267    7.3215 N   0  0  0  0  0  0  0  0  0  0  0  0
   28.2979   15.9397    8.3870 O   0  0  0  0  0  0  0  0  0  0  0  0
   29.7838   13.6270    8.3934 C   0  0  0  0  0  0  0  0  0  0  0  0
  1  2  1  0
  2  3  1  0
  3  4  2  0
  4  5  1  0
  5  6  1  0
  5  7  2  0
  7  8  1  0
  8  9  2  0
  9 10  1  0
 10 11  2  0
 10 12  1  0
 12 13  1  0
 13 14  1  0
 14 15  1  6
 14 16  1  0
 16 17  1  1
 17 18  1  0
 17 19  2  0
 16 20  1  0
  9  3  1  0
 20 12  1  0
A    1
 C1 
A    2
 N1 
A    3
 C2 
A    4
 N2 
A    5
 C3 
A    6
 C4 
A    7
 C5 
A    8
 C6 
A    9
 C7 
A   10
 C8 
A   11
 O1 
A   12
 N3 
A   13
 C9 
A   14
 C10
A   15
 C11
A   16
 C12
A   17
 C13
A   18
 N4 
A   19
 O2 
A   20
 C14
M  END
>  <ref_pdb>  (13) 
Ax0310a

>  <ref_mols>  (13) 
Ax0446a,Ax1080a,Ax0812a,Ax0719a,Ax1140a,Ax0528a,Ax0310a

>  <original SMILES>  (13) 
CNc1nc(C)ccc1C(=O)N1C[C@@H](C)[C@H](C(N)=O)C1

>  <rationale>  (13) 
info info set:screening_pocket;hbond:S87+S105+Y90+H21; hydroph_interaction:P107; 

>  <experiment>  (13) 
screening_pocket

>  <cluster_label>  (13) 
7

>  <cluster_rank>  (13) 
1

>  <N_interactions>  (13) 
6

>  <∆∆G>  (13) 
-5.476935

>  <comRMSD>  (13) 
0.811754

>  <ROCS_TanimotoCombo>  (13) 
0.681

>  <ROCS_ShapeTanimoto>  (13) 
0.261

>  <ROCS_ColorTanimoto>  (13) 
0.42

$$$$
Z55491204
     RDKit          3D

 27 30  0  0  0  0  0  0  0  0999 V2000
   39.8395   11.9847    8.3437 C   0  0  0  0  0  0  0  0  0  0  0  0
   38.6228   12.5018    8.9787 C   0  0  0  0  0  0  0  0  0  0  0  0
   37.7005   13.2890    8.1087 C   0  0  0  0  0  0  0  0  0  0  0  0
   36.5549   13.8037    8.6775 C   0  0  0  0  0  0  0  0  0  0  0  0
   35.6680   14.5309    7.9904 N   0  0  0  0  0  0  0  0  0  0  0  0
   34.5150   15.1279    8.7377 N   0  0  0  0  0  0  0  0  0  0  0  0
   33.3784   13.9050    8.7086 S   0  0  0  0  0  6  0  0  0  0  0  0
   34.0347   12.8872    9.4153 O   0  0  0  0  0  0  0  0  0  0  0  0
   32.0603   14.3923    9.0543 O   0  0  0  0  0  0  0  0  0  0  0  0
   33.5251   13.3435    7.0389 C   0  0  0  0  0  0  0  0  0  0  0  0
   32.6627   12.3352    6.8450 C   0  0  1  0  0  0  0  0  0  0  0  0
   32.0292   11.8137    7.9229 C   0  0  0  0  0  0  0  0  0  0  0  0
   31.7476   10.4801    7.7066 C   0  0  0  0  0  0  0  0  0  0  0  0
   31.3780   10.6673    6.4241 C   0  0  1  0  0  0  0  0  0  0  0  0
   30.5640   11.7952    6.4028 C   0  0  0  0  0  0  0  0  0  0  0  0
   31.4040   12.7952    6.1674 C   0  0  0  0  0  0  0  0  0  0  0  0
   31.1518   13.7573    5.5167 O   0  0  0  0  0  0  0  0  0  0  0  0
   32.7724   11.1482    5.8457 C   0  0  0  0  0  0  0  0  0  0  0  0
   32.9935   11.6727    4.4584 C   0  0  0  0  0  0  0  0  0  0  0  0
   33.7737    9.9976    5.8481 C   0  0  0  0  0  0  0  0  0  0  0  0
   36.2550   13.6117    9.9673 N   0  0  0  0  0  0  0  0  0  0  0  0
   37.1116   12.9073   10.7071 C   0  0  0  0  0  0  0  0  0  0  0  0
   36.6787   12.8313   11.9818 C   0  0  0  0  0  0  0  0  0  0  0  0
   37.4082   12.1671   12.9232 C   0  0  0  0  0  0  0  0  0  0  0  0
   38.6288   11.5259   12.5594 C   0  0  0  0  0  0  0  0  0  0  0  0
   39.0620   11.6082   11.2447 C   0  0  0  0  0  0  0  0  0  0  0  0
   38.2990   12.3162   10.3070 C   0  0  0  0  0  0  0  0  0  0  0  0
  1  2  1  0
  2  3  2  0
  3  4  1  0
  4  5  1  0
  5  6  1  0
  6  7  1  0
  7  8  2  0
  7  9  2  0
  7 10  1  0
 11 10  1  1
 11 12  1  0
 12 13  1  0
 14 13  1  1
 14 15  1  0
 15 16  1  0
 16 17  2  0
 14 18  1  0
 18 19  1  0
 18 20  1  0
  4 21  2  0
 21 22  1  0
 22 23  2  0
 23 24  1  0
 24 25  2  0
 25 26  1  0
 26 27  2  0
 27  2  1  0
 16 11  1  0
 27 22  1  0
 18 11  1  0
A    1
 C1 
A    2
 C2 
A    3
 C3 
A    4
 C4 
A    5
 N1 
A    6
 N2 
A    7
 S1 
A    8
 O1 
A    9
 O2 
A   10
 C5 
A   11
 C6 
A   12
 C7 
A   13
 C8 
A   14
 C9 
A   15
 C10
A   16
 C11
A   17
 O3 
A   18
 C12
A   19
 C13
A   20
 C14
A   21
 N3 
A   22
 C15
A   23
 C16
A   24
 C17
A   25
 C18
A   26
 C19
A   27
 C20
M  END
>  <ref_pdb>  (14) 
Ax0310a

>  <ref_mols>  (14) 
Ax0446a,Ax1080a,Ax0812a,Ax0719a,Ax1140a,Ax0528a,Ax0310a

>  <original SMILES>  (14) 
Cc1cc(NNS(=O)(=O)C[C@@]23CC[C@@H](CC2=O)C3(C)C)nc2ccccc12

>  <rationale>  (14) 
info info set:screening_whole;hbond:S87+G127+E88+E85; hydroph_interaction:P107+V84+E85+N129+L100+L131; 

>  <experiment>  (14) 
screening_whole

>  <cluster_label>  (14) 
0

>  <cluster_rank>  (14) 
1

>  <N_interactions>  (14) 
10

>  <∆∆G>  (14) 
-0.593891

>  <comRMSD>  (14) 
0.843004

>  <ROCS_TanimotoCombo>  (14) 
0.47

>  <ROCS_ShapeTanimoto>  (14) 
0.237

>  <ROCS_ColorTanimoto>  (14) 
0.233

$$$$
Z94861526
     RDKit          3D

 25 28  0  0  0  0  0  0  0  0999 V2000
   27.0241   15.2824    9.0086 C   0  0  0  0  0  0  0  0  0  0  0  0
   28.1252   14.6698    8.3798 C   0  0  0  0  0  0  0  0  0  0  0  0
   28.0135   13.9281    7.0423 C   0  0  0  0  0  0  0  0  0  0  0  0
   29.3586   13.4287    6.5154 C   0  0  0  0  0  0  0  0  0  0  0  0
   30.4969   13.8087    7.4798 C   0  0  0  0  0  0  0  0  0  0  0  0
   31.6040   13.5148    7.0308 O   0  0  0  0  0  0  0  0  0  0  0  0
   31.7925   12.2990    7.0234 C   0  0  0  0  0  0  0  0  0  0  0  0
   30.9181   11.5956    7.7337 N   0  0  0  0  0  0  0  0  0  0  0  0
   31.2018   10.4068    7.6482 C   0  0  0  0  0  0  0  0  0  0  0  0
   30.3876    9.5997    8.3970 C   0  0  0  0  0  0  0  0  0  0  0  0
   30.9186    8.4864    8.0875 C   0  0  0  0  0  0  0  0  0  0  0  0
   30.2373    7.5000    8.7272 C   0  0  0  0  0  0  0  0  0  0  0  0
   31.9775    8.3846    7.2636 N   0  0  0  0  0  0  0  0  0  0  0  0
   32.1346    9.7040    7.0013 N   0  0  0  0  0  0  0  0  0  0  0  0
   33.0782   10.3817    6.2356 C   0  0  0  0  0  0  0  0  0  0  0  0
   34.1082    9.7896    5.5267 C   0  0  0  0  0  0  0  0  0  0  0  0
   35.0006   10.6047    4.8330 C   0  0  0  0  0  0  0  0  0  0  0  0
   34.8584   11.9940    4.8498 C   0  0  0  0  0  0  0  0  0  0  0  0
   33.8186   12.5926    5.5535 C   0  0  0  0  0  0  0  0  0  0  0  0
   32.9353   11.7778    6.2399 C   0  0  0  0  0  0  0  0  0  0  0  0
   30.3247   14.4666    8.6863 C   0  0  0  0  0  0  0  0  0  0  0  0
   31.4817   14.7770    9.5237 N   0  0  0  0  0  4  0  0  0  0  0  0
   32.5622   14.3296    9.1346 O   0  0  0  0  0  0  0  0  0  0  0  0
   31.3756   15.8451   10.1427 O   0  0  0  0  0  1  0  0  0  0  0  0
   29.1708   14.8786    9.1154 N   0  0  0  0  0  0  0  0  0  0  0  0
  1  2  1  0
  2  3  2  0
  3  4  1  0
  4  5  2  0
  5  6  1  0
  6  7  1  0
  7  8  2  0
  8  9  1  0
  9 10  2  0
 10 11  1  0
 11 12  1  0
 11 13  2  0
 13 14  1  0
 14 15  1  0
 15 16  2  0
 16 17  1  0
 17 18  2  0
 18 19  1  0
 19 20  2  0
  5 21  1  0
 21 22  1  0
 22 23  2  0
 22 24  1  0
 21 25  2  0
 25  2  1  0
 20  7  1  0
 14  9  1  0
 20 15  1  0
M  CHG  2  22   1  24  -1
A    1
 C1 
A    2
 C2 
A    3
 C3 
A    4
 C4 
A    5
 C5 
A    6
 O1 
A    7
 C6 
A    8
 N1 
A    9
 C7 
A   10
 C8 
A   11
 C9 
A   12
 C10
A   13
 N2 
A   14
 N3 
A   15
 C11
A   16
 C12
A   17
 C13
A   18
 C14
A   19
 C15
A   20
 C16
A   21
 C17
A   22
 N4 
A   23
 O2 
A   24
 O3 
A   25
 N5 
M  END
>  <ref_pdb>  (15) 
Ax0310a

>  <ref_mols>  (15) 
Ax0446a,Ax1080a,Ax0812a,Ax0719a,Ax1140a,Ax0528a,Ax0310a

>  <original SMILES>  (15) 
Cc1ccc(Oc2nc3cc(C)nn3c3ccccc23)c([N+](=O)[O-])n1

>  <rationale>  (15) 
info info set:screening_whole;hbond:S87+G127; hydroph_interaction:Y89+Y90+V124+H21+D109; pistack:H21; 

>  <experiment>  (15) 
screening_whole

>  <cluster_label>  (15) 
9

>  <cluster_rank>  (15) 
1

>  <N_interactions>  (15) 
8

>  <∆∆G>  (15) 
-4.19091

>  <comRMSD>  (15) 
0.760315

>  <ROCS_TanimotoCombo>  (15) 
0.474

>  <ROCS_ShapeTanimoto>  (15) 
0.276

>  <ROCS_ColorTanimoto>  (15) 
0.198

$$$$
Z31120760
     RDKit          3D

 27 30  0  0  0  0  0  0  0  0999 V2000
   32.7708   13.9763    9.0828 C   0  0  0  0  0  0  0  0  0  0  0  0
   31.6231   14.7912    9.1869 O   0  0  0  0  0  0  0  0  0  0  0  0
   30.5689   14.2389    8.5699 C   0  0  0  0  0  0  0  0  0  0  0  0
   29.3266   14.3810    9.2848 C   0  0  0  0  0  0  0  0  0  0  0  0
   28.1155   13.8033    8.6491 C   0  0  0  0  0  0  0  0  0  0  0  0
   27.0834   14.1309    9.6201 C   0  0  0  0  0  0  0  0  0  0  0  0
   26.9387   15.6141    9.5950 C   0  0  0  0  0  0  0  0  0  0  0  0
   26.3723   13.3535   10.4297 O   0  0  0  0  0  0  0  0  0  0  0  0
   28.0784   13.1415    7.4362 C   0  0  0  0  0  0  0  0  0  0  0  0
   29.4486   13.0518    6.7675 C   0  0  0  0  0  0  0  0  0  0  0  0
   30.6172   13.5848    7.3286 C   0  0  0  0  0  0  0  0  0  0  0  0
   31.8137   13.4794    6.6464 O   0  0  0  0  0  0  0  0  0  0  0  0
   32.1436   12.1841    6.5827 C   0  0  0  0  0  0  0  0  0  0  0  0
   31.3049   11.4977    7.2456 N   0  0  0  0  0  0  0  0  0  0  0  0
   31.5621   10.2706    7.2146 C   0  0  0  0  0  0  0  0  0  0  0  0
   30.6078    9.5742    7.9454 C   0  0  0  0  0  0  0  0  0  0  0  0
   30.9580    8.1867    8.0128 C   0  0  0  0  0  0  0  0  0  0  0  0
   29.8942    7.6147    8.7287 C   0  0  0  0  0  0  0  0  0  0  0  0
   28.9529    8.5383    9.1274 C   0  0  0  0  0  0  0  0  0  0  0  0
   29.2058   10.1186    8.6645 S   0  0  0  0  0  0  0  0  0  0  0  0
   32.5456    9.5625    6.6123 N   0  0  0  0  0  0  0  0  0  0  0  0
   33.3712   10.3024    5.9491 C   0  0  0  0  0  0  0  0  0  0  0  0
   34.4063    9.6883    5.2903 C   0  0  0  0  0  0  0  0  0  0  0  0
   35.3252   10.4321    4.5709 C   0  0  0  0  0  0  0  0  0  0  0  0
   35.2039   11.8151    4.5124 C   0  0  0  0  0  0  0  0  0  0  0  0
   34.1545   12.4489    5.1704 C   0  0  0  0  0  0  0  0  0  0  0  0
   33.2320   11.6881    5.8912 C   0  0  0  0  0  0  0  0  0  0  0  0
  1  2  1  0
  2  3  1  0
  3  4  2  0
  4  5  1  0
  5  6  1  0
  6  7  1  0
  6  8  2  0
  5  9  2  0
  9 10  1  0
 10 11  2  0
 11 12  1  0
 12 13  1  0
 13 14  2  0
 14 15  1  0
 15 16  1  0
 16 17  2  0
 17 18  1  0
 18 19  2  0
 19 20  1  0
 15 21  2  0
 21 22  1  0
 22 23  2  0
 23 24  1  0
 24 25  2  0
 25 26  1  0
 26 27  2  0
 11  3  1  0
 27 13  1  0
 20 16  1  0
 27 22  1  0
A    1
 C1 
A    2
 O1 
A    3
 C2 
A    4
 C3 
A    5
 C4 
A    6
 C5 
A    7
 C6 
A    8
 O2 
A    9
 C7 
A   10
 C8 
A   11
 C9 
A   12
 O3 
A   13
 C10
A   14
 N1 
A   15
 C11
A   16
 C12
A   17
 C13
A   18
 C14
A   19
 C15
A   20
 S1 
A   21
 N2 
A   22
 C16
A   23
 C17
A   24
 C18
A   25
 C19
A   26
 C20
A   27
 C21
M  END
>  <ref_pdb>  (16) 
Ax0310a

>  <ref_mols>  (16) 
Ax0446a,Ax1080a,Ax0812a,Ax0719a,Ax1140a,Ax0528a,Ax0310a

>  <original SMILES>  (16) 
COc1cc(C(C)=O)ccc1Oc1nc(-c2cccs2)nc2ccccc12

>  <rationale>  (16) 
info info set:screening_whole;hbond:S87+G127+D39+N19; hydroph_interaction:P107+Y89+Y90+V124+H21+D109; 

>  <experiment>  (16) 
screening_whole

>  <cluster_label>  (16) 
10

>  <cluster_rank>  (16) 
1

>  <N_interactions>  (16) 
10

>  <∆∆G>  (16) 
-3.18184

>  <comRMSD>  (16) 
0.976872

>  <ROCS_TanimotoCombo>  (16) 
0.463

>  <ROCS_ShapeTanimoto>  (16) 
0.27

>  <ROCS_ColorTanimoto>  (16) 
0.193

$$$$
Z1766224104
     RDKit          3D

 18 19  0  0  0  0  0  0  0  0999 V2000
   33.8402   14.1743    8.3589 C   0  0  0  0  0  0  0  0  0  0  0  0
   32.5884   14.3123    9.2224 C   0  0  0  0  0  0  0  0  0  0  0  0
   31.5253   13.4934    8.7619 O   0  0  0  0  0  0  0  0  0  0  0  0
   30.2627   13.9373    8.6389 C   0  0  0  0  0  0  0  0  0  0  0  0
   29.5444   14.7601    9.7117 C   0  0  0  0  0  0  0  0  0  0  0  0
   28.0839   15.1710    9.4208 C   0  0  0  0  0  0  0  0  0  0  0  0
   27.4543   14.7493    8.1105 C   0  0  0  0  0  0  0  0  0  0  0  0
   28.1457   14.0232    7.1972 C   0  0  0  0  0  0  0  0  0  0  0  0
   29.5609   13.5704    7.3763 C   0  0  0  0  0  0  0  0  0  0  0  0
   30.3393   12.7823    6.4126 C   0  0  0  0  0  0  0  0  0  0  0  0
   30.5198   13.3531    5.1029 O   0  0  0  0  0  0  0  0  0  0  0  0
   30.8233   11.6060    6.8781 N   0  0  0  0  0  0  0  0  0  0  0  0
   32.1161   11.3410    6.6518 C   0  0  0  0  0  0  0  0  0  0  0  0
   32.4652    9.8522    6.5201 C   0  0  0  0  0  0  0  0  0  0  0  0
   31.8521    9.1231    7.6296 N   0  0  0  0  0  0  0  0  0  0  0  0
   30.7828    9.6171    8.2632 C   0  0  2  0  0  0  0  0  0  0  0  0
   29.7503    8.7405    8.4009 C   0  0  0  0  0  0  0  0  0  0  0  0
   30.3293   11.0680    7.9341 C   0  0  0  0  0  0  0  0  0  0  0  0
  1  2  1  0
  2  3  1  0
  3  4  1  0
  4  5  2  0
  5  6  1  0
  6  7  2  0
  7  8  1  0
  8  9  2  0
  9 10  1  0
 10 11  2  0
 10 12  1  0
 12 13  1  0
 13 14  1  0
 14 15  1  0
 15 16  1  0
 16 17  1  6
 16 18  1  0
  9  4  1  0
 18 12  1  0
A    1
 C1 
A    2
 C2 
A    3
 O1 
A    4
 C3 
A    5
 C4 
A    6
 C5 
A    7
 C6 
A    8
 C7 
A    9
 C8 
A   10
 C9 
A   11
 O2 
A   12
 N1 
A   13
 C10
A   14
 C11
A   15
 N2 
A   16
 C12
A   17
 C13
A   18
 C14
M  END
>  <ref_pdb>  (17) 
Ax0310a

>  <ref_mols>  (17) 
Ax0446a,Ax1080a,Ax0812a,Ax0719a,Ax1140a,Ax0528a,Ax0310a

>  <original SMILES>  (17) 
CCOc1ccccc1C(=O)N1CCN[C@H](C)C1

>  <rationale>  (17) 
info info set:3d;hbond:S87+S105+E88; hydroph_interaction:Y89+Y90+V124+V84; 

>  <experiment>  (17) 
3d

>  <cluster_label>  (17) 
8

>  <cluster_rank>  (17) 
1

>  <N_interactions>  (17) 
7

>  <∆∆G>  (17) 
-5.799255

>  <comRMSD>  (17) 
0.7621

>  <ROCS_TanimotoCombo>  (17) 
0.345

>  <ROCS_ShapeTanimoto>  (17) 
0.208

>  <ROCS_ColorTanimoto>  (17) 
0.136

$$$$
Z1716137365
     RDKit          3D

 23 25  0  0  0  0  0  0  0  0999 V2000
   30.3549    7.6231    8.6749 C   0  0  0  0  0  0  0  0  0  0  0  0
   30.3893    9.0318    8.7706 C   0  0  0  0  0  0  0  0  0  0  0  0
   28.9868    9.5076    8.6594 C   0  0  0  0  0  0  0  0  0  0  0  0
   31.2206    9.5530    7.8528 N   0  0  0  0  0  0  0  0  0  0  0  0
   32.0737    8.7384    7.0427 N   0  0  0  0  0  0  0  0  0  0  0  0
   32.7621    9.7444    6.2402 C   0  0  0  0  0  0  0  0  0  0  0  0
   32.2581   11.1129    6.6328 C   0  0  0  0  0  0  0  0  0  0  0  0
   31.3153   10.9482    7.6268 C   0  0  0  0  0  0  0  0  0  0  0  0
   30.5743   11.8387    8.3246 N   0  0  0  0  0  0  0  0  0  0  0  0
   30.6312   13.1045    8.1446 C   0  0  0  0  0  0  0  0  0  0  0  0
   31.5782   13.7001    7.6824 O   0  0  0  0  0  0  0  0  0  0  0  0
   29.3791   13.8201    8.5847 C   0  0  0  0  0  0  0  0  0  0  0  0
   28.2842   13.3475    7.7952 N   0  0  0  0  0  0  0  0  0  0  0  0
   27.4378   12.3313    8.3723 C   0  0  0  0  0  0  0  0  0  0  0  0
   26.2755   13.0223    9.0094 C   0  0  0  0  0  0  0  0  0  0  0  0
   25.1330   13.0236    8.0077 C   0  0  0  0  0  0  0  0  0  0  0  0
   25.2061   13.9640    6.9907 C   0  0  0  0  0  0  0  0  0  0  0  0
   26.5242   13.9531    6.2466 C   0  0  0  0  0  0  0  0  0  0  0  0
   27.7225   14.3531    7.0906 C   0  0  0  0  0  0  0  0  0  0  0  0
   28.2090   15.4790    7.1908 O   0  0  0  0  0  0  0  0  0  0  0  0
   32.9632   12.1100    5.8136 C   0  0  0  0  0  0  0  0  0  0  0  0
   33.6636   11.2344    4.6973 C   0  0  0  0  0  0  0  0  0  0  0  0
   33.7824    9.7532    5.1940 C   0  0  0  0  0  0  0  0  0  0  0  0
  1  2  1  0
  2  3  1  0
  2  4  1  0
  4  5  1  0
  5  6  2  0
  6  7  1  0
  7  8  2  0
  8  9  1  0
  9 10  1  0
 10 11  2  0
 10 12  1  0
 12 13  1  0
 13 14  1  0
 14 15  1  0
 15 16  1  0
 16 17  1  0
 17 18  1  0
 18 19  1  0
 19 20  2  0
  7 21  1  0
 21 22  1  0
 22 23  1  0
  8  4  1  0
 19 13  1  0
 23  6  1  0
A    1
 C1 
A    2
 C2 
A    3
 C3 
A    4
 N1 
A    5
 N2 
A    6
 C4 
A    7
 C5 
A    8
 C6 
A    9
 N3 
A   10
 C7 
A   11
 O1 
A   12
 C8 
A   13
 N4 
A   14
 C9 
A   15
 C10
A   16
 C11
A   17
 C12
A   18
 C13
A   19
 C14
A   20
 O2 
A   21
 C15
A   22
 C16
A   23
 C17
M  END
>  <ref_pdb>  (18) 
Ax0310a

>  <ref_mols>  (18) 
Ax0446a,Ax1080a,Ax0812a,Ax0719a,Ax1140a,Ax0528a,Ax0310a

>  <original SMILES>  (18) 
CC(C)n1nc2c(c1NC(=O)CN1CCCCCC1=O)CCC2

>  <rationale>  (18) 
info info set:screening_pocket;hbond:S87+S125+G127+Y90; hydroph_interaction:P107+Y89+V124+H21+L22+D109; 

>  <experiment>  (18) 
screening_pocket

>  <cluster_label>  (18) 
16

>  <cluster_rank>  (18) 
1

>  <N_interactions>  (18) 
10

>  <∆∆G>  (18) 
-9.751463

>  <comRMSD>  (18) 
0.55777

>  <ROCS_TanimotoCombo>  (18) 
0.638

>  <ROCS_ShapeTanimoto>  (18) 
0.27

>  <ROCS_ColorTanimoto>  (18) 
0.367

$$$$
EN300_7424825
     RDKit          3D

 17 18  0  0  0  0  0  0  0  0999 V2000
   40.4160   12.5084   14.0156 C   0  0  0  0  0  0  0  0  0  0  0  0
   40.0396   13.0232   12.9867 O   0  0  0  0  0  0  0  0  0  0  0  0
   38.9413   12.4437   12.4303 C   0  0  0  0  0  0  0  0  0  0  0  0
   38.5189   11.1298   12.8223 C   0  0  0  0  0  0  0  0  0  0  0  0
   37.3889   10.6384   12.1947 C   0  0  0  0  0  0  0  0  0  0  0  0
   36.7305   11.5486   11.1637 C   0  0  0  0  0  0  0  0  0  0  0  0
   37.2061   12.7908   10.8478 C   0  0  0  0  0  0  0  0  0  0  0  0
   36.2968   13.3991    9.7602 C   0  0  0  0  0  0  0  0  0  0  0  0
   36.6977   13.4472    8.4575 C   0  0  0  0  0  0  0  0  0  0  0  0
   35.4523   13.9430    7.7310 C   0  0  0  0  0  0  0  0  0  0  0  0
   35.0154   14.1845    6.0743 S   0  0  0  0  0  6  0  0  0  0  0  0
   36.1682   15.0812    5.2686 N   0  0  0  0  0  0  0  0  0  0  0  0
   33.8192   14.8944    6.0353 O   0  0  0  0  0  0  0  0  0  0  0  0
   34.9967   12.8500    5.5298 O   0  0  0  0  0  0  0  0  0  0  0  0
   34.5799   14.1757    8.7464 N   0  0  0  0  0  0  0  0  0  0  0  0
   35.0650   13.8574    9.9542 N   0  0  0  0  0  0  0  0  0  0  0  0
   38.3219   13.2482   11.4811 C   0  0  0  0  0  0  0  0  0  0  0  0
  1  2  1  0
  2  3  1  0
  3  4  2  0
  4  5  1  0
  5  6  2  0
  6  7  1  0
  7  8  1  0
  8  9  1  0
  9 10  2  0
 10 11  1  0
 11 12  1  0
 11 13  2  0
 11 14  2  0
 10 15  1  0
 15 16  1  0
  7 17  2  0
 17  3  1  0
 16  8  2  0
A    1
 C1 
A    2
 O1 
A    3
 C2 
A    4
 C3 
A    5
 C4 
A    6
 C5 
A    7
 C6 
A    8
 C7 
A    9
 C8 
A   10
 C9 
A   11
 S1 
A   12
 N1 
A   13
 O2 
A   14
 O3 
A   15
 N2 
A   16
 N3 
A   17
 C10
M  END
>  <ref_pdb>  (19) 
Ax0310a

>  <ref_mols>  (19) 
Ax0446a,Ax1080a,Ax0812a,Ax0719a,Ax1140a,Ax0528a,Ax0310a

>  <original SMILES>  (19) 
COc1cccc(-c2cc(S(N)(=O)=O)[nH]n2)c1

>  <rationale>  (19) 
info info set:sulfonimide_whole;hbond:G127+A86+E85; hydroph_interaction:E85+L100+L131; 

>  <experiment>  (19) 
sulfonimide_whole

>  <cluster_label>  (19) 
17

>  <cluster_rank>  (19) 
1

>  <N_interactions>  (19) 
8

>  <∆∆G>  (19) 
-6.084304

>  <comRMSD>  (19) 
0.968328

>  <ROCS_TanimotoCombo>  (19) 
0.319

>  <ROCS_ShapeTanimoto>  (19) 
0.182

>  <ROCS_ColorTanimoto>  (19) 
0.137

$$$$
EN300_365277
     RDKit          3D

 17 19  0  0  0  0  0  0  0  0999 V2000
   34.6319   14.6646    7.6389 N   0  0  0  0  0  0  0  0  0  0  0  0
   33.4182   13.6447    8.2123 S   0  0  0  0  0  6  0  0  0  0  0  0
   34.1300   12.7300    9.0177 O   0  0  0  0  0  0  0  0  0  0  0  0
   32.3757   14.4116    8.8584 O   0  0  0  0  0  0  0  0  0  0  0  0
   32.7638   12.8561    6.7226 C   0  0  0  0  0  0  0  0  0  0  0  0
   33.6598   11.8786    6.0209 C   0  0  0  0  0  0  0  0  0  0  0  0
   34.8518   12.3097    5.2556 C   0  0  0  0  0  0  0  0  0  0  0  0
   35.5600   11.2616    4.6522 C   0  0  0  0  0  0  0  0  0  0  0  0
   35.1286    9.9324    4.7934 C   0  0  0  0  0  0  0  0  0  0  0  0
   33.9941    9.5666    5.5334 C   0  0  0  0  0  0  0  0  0  0  0  0
   33.2668   10.5565    6.1483 C   0  0  0  0  0  0  0  0  0  0  0  0
   32.0934   10.5320    6.9466 C   0  0  0  0  0  0  0  0  0  0  0  0
   31.3371    9.4794    7.3969 C   0  0  0  0  0  0  0  0  0  0  0  0
   30.2244    9.8052    8.1362 C   0  0  0  0  0  0  0  0  0  0  0  0
   29.9317   11.1691    8.3687 C   0  0  0  0  0  0  0  0  0  0  0  0
   30.6828   12.1904    7.9450 C   0  0  0  0  0  0  0  0  0  0  0  0
   31.7648   11.8771    7.2482 C   0  0  0  0  0  0  0  0  0  0  0  0
  1  2  1  0
  2  3  2  0
  2  4  2  0
  2  5  1  0
  5  6  1  0
  6  7  2  0
  7  8  1  0
  8  9  2  0
  9 10  1  0
 10 11  2  0
 11 12  1  0
 12 13  2  0
 13 14  1  0
 14 15  2  0
 15 16  1  0
 16 17  2  0
 17  5  1  0
 11  6  1  0
 17 12  1  0
A    1
 N1 
A    2
 S1 
A    3
 O1 
A    4
 O2 
A    5
 C1 
A    6
 C2 
A    7
 C3 
A    8
 C4 
A    9
 C5 
A   10
 C6 
A   11
 C7 
A   12
 C8 
A   13
 C9 
A   14
 C10
A   15
 C11
A   16
 C12
A   17
 C13
M  END
>  <ref_pdb>  (20) 
Ax0310a

>  <ref_mols>  (20) 
Ax0446a,Ax1080a,Ax0812a,Ax0719a,Ax1140a,Ax0528a,Ax0310a

>  <original SMILES>  (20) 
NS(=O)(=O)C1c2ccccc2-c2ccccc21

>  <rationale>  (20) 
info info set:sulfonimide_whole;hbond:S87+G127+A86; 

>  <experiment>  (20) 
sulfonimide_whole

>  <cluster_label>  (20) 
5

>  <cluster_rank>  (20) 
1

>  <N_interactions>  (20) 
3

>  <∆∆G>  (20) 
-6.680949

>  <comRMSD>  (20) 
0.62371

>  <ROCS_TanimotoCombo>  (20) 
0.384

>  <ROCS_ShapeTanimoto>  (20) 
0.233

>  <ROCS_ColorTanimoto>  (20) 
0.15

$$$$
Z1764946926
     RDKit          3D

 17 18  0  0  0  0  0  0  0  0999 V2000
   34.7325    9.3120    4.1438 C   0  0  0  0  0  0  0  0  0  0  0  0
   34.1562    8.8307    5.3583 N   0  0  0  0  0  0  0  0  0  0  0  0
   33.1888    9.4126    6.1047 C   0  0  0  0  0  0  0  0  0  0  0  0
   33.2254   10.9272    5.9981 C   0  0  0  0  0  0  0  0  0  0  0  0
   32.1627   11.6442    6.8172 C   0  0  0  0  0  0  0  0  0  0  0  0
   31.2048   10.7687    7.6321 C   0  0  0  0  0  0  0  0  0  0  0  0
   30.2208   11.2495    8.3800 N   0  0  0  0  0  0  0  0  0  0  0  0
   29.6619   12.3526    7.9639 C   0  0  0  0  0  0  0  0  0  0  0  0
   28.7101   13.2575    8.7373 C   0  0  0  0  0  0  0  0  0  0  0  0
   28.1954   14.4594    8.0753 C   0  0  0  0  0  0  0  0  0  0  0  0
   27.2992   15.2994    8.8765 C   0  0  0  0  0  0  0  0  0  0  0  0
   28.4925   14.7993    6.8472 N   0  0  0  0  0  0  0  0  0  0  0  0
   29.3432   13.9542    6.1879 C   0  0  0  0  0  0  0  0  0  0  0  0
   29.6709   14.2493    4.9032 C   0  0  0  0  0  0  0  0  0  0  0  0
   29.9062   12.8582    6.6352 N   0  0  0  0  0  0  0  0  0  0  0  0
   31.3794    9.3867    7.5657 C   0  0  0  0  0  0  0  0  0  0  0  0
   32.3103    8.7091    6.8547 N   0  0  0  0  0  0  0  0  0  0  0  0
  1  2  1  0
  2  3  1  0
  3  4  2  0
  4  5  1  0
  5  6  2  0
  6  7  1  0
  7  8  1  0
  8  9  2  0
  9 10  1  0
 10 11  1  0
 10 12  2  0
 12 13  1  0
 13 14  1  0
 13 15  2  0
  6 16  1  0
 16 17  2  0
 17  3  1  0
 15  8  1  0
A    1
 C1 
A    2
 N1 
A    3
 C2 
A    4
 C3 
A    5
 C4 
A    6
 C5 
A    7
 N2 
A    8
 C6 
A    9
 C7 
A   10
 C8 
A   11
 C9 
A   12
 N3 
A   13
 C10
A   14
 C11
A   15
 N4 
A   16
 C12
A   17
 N5 
M  END
>  <ref_pdb>  (21) 
Ax0310a

>  <ref_mols>  (21) 
Ax0446a,Ax1080a,Ax0812a,Ax0719a,Ax1140a,Ax0528a,Ax0310a

>  <original SMILES>  (21) 
CNc1ccc(Nc2cc(C)nc(C)n2)cn1

>  <rationale>  (21) 
info info set:screening_pocket;hbond:S105+S125; hydroph_interaction:P107+Y89+Y90+E88+H21; 

>  <experiment>  (21) 
screening_pocket

>  <cluster_label>  (21) 
12

>  <cluster_rank>  (21) 
1

>  <N_interactions>  (21) 
7

>  <∆∆G>  (21) 
-6.437505

>  <comRMSD>  (21) 
0.89417

>  <ROCS_TanimotoCombo>  (21) 
0.663

>  <ROCS_ShapeTanimoto>  (21) 
0.227

>  <ROCS_ColorTanimoto>  (21) 
0.437

$$$$
EN300_1723691
     RDKit          3D

 17 18  0  0  0  0  0  0  0  0999 V2000
   37.2371   10.7801   11.2340 N   0  0  0  0  0  0  0  0  0  0  0  0
   37.0691   12.4455   11.5238 S   0  0  0  0  0  6  0  0  0  0  0  0
   38.4283   12.8827   11.7166 O   0  0  0  0  0  0  0  0  0  0  0  0
   36.1404   12.4537   12.6162 O   0  0  0  0  0  0  0  0  0  0  0  0
   36.3950   12.9946    9.9096 C   0  0  0  0  0  0  0  0  0  0  0  0
   37.4982   13.1414    8.9327 C   0  0  0  0  0  0  0  0  0  0  0  0
   37.1706   13.4962    7.6231 C   0  0  0  0  0  0  0  0  0  0  0  0
   35.8274   13.7102    7.2135 C   0  0  0  0  0  0  0  0  0  0  0  0
   34.7789   13.5783    8.1159 C   0  0  0  0  0  0  0  0  0  0  0  0
   33.4092   13.7034    7.8044 O   0  0  0  0  0  0  0  0  0  0  0  0
   32.7786   12.4548    7.5465 C   0  0  0  0  0  0  0  0  0  0  0  0
   31.5077   12.1569    8.1555 C   0  0  0  0  0  0  0  0  0  0  0  0
   30.9396   10.9248    7.9308 C   0  0  0  0  0  0  0  0  0  0  0  0
   31.5730    9.8408    7.0484 C   0  0  0  0  0  0  0  0  0  0  0  0
   32.8090   10.0267    6.3669 C   0  0  0  0  0  0  0  0  0  0  0  0
   33.3551   11.4890    6.7258 C   0  0  0  0  0  0  0  0  0  0  0  0
   35.0508   13.2602    9.4256 C   0  0  0  0  0  0  0  0  0  0  0  0
  1  2  1  0
  2  3  2  0
  2  4  2  0
  2  5  1  0
  5  6  2  0
  6  7  1  0
  7  8  2  0
  8  9  1  0
  9 10  1  0
 10 11  1  0
 11 12  2  0
 12 13  1  0
 13 14  2  0
 14 15  1  0
 15 16  2  0
  9 17  2  0
 17  5  1  0
 16 11  1  0
A    1
 N1 
A    2
 S1 
A    3
 O1 
A    4
 O2 
A    5
 C1 
A    6
 C2 
A    7
 C3 
A    8
 C4 
A    9
 C5 
A   10
 O3 
A   11
 C6 
A   12
 C7 
A   13
 C8 
A   14
 C9 
A   15
 C10
A   16
 C11
A   17
 C12
M  END
>  <ref_pdb>  (22) 
Ax0310a

>  <ref_mols>  (22) 
Ax0446a,Ax1080a,Ax0812a,Ax0719a,Ax1140a,Ax0528a,Ax0310a

>  <original SMILES>  (22) 
NS(=O)(=O)c1cccc(Oc2ccccc2)c1

>  <rationale>  (22) 
info info set:sulfonimide_whole;hbond:T126+G128; hydroph_interaction:E85; 

>  <experiment>  (22) 
sulfonimide_whole

>  <cluster_label>  (22) 
15

>  <cluster_rank>  (22) 
2

>  <N_interactions>  (22) 
4

>  <∆∆G>  (22) 
-4.778199

>  <comRMSD>  (22) 
0.978353

>  <ROCS_TanimotoCombo>  (22) 
0.326

>  <ROCS_ShapeTanimoto>  (22) 
0.206

>  <ROCS_ColorTanimoto>  (22) 
0.12

$$$$
Z2057224744
     RDKit          3D

 19 20  0  0  0  0  0  0  0  0999 V2000
   30.0225    8.7844    9.0728 C   0  0  0  0  0  0  0  0  0  0  0  0
   31.2177    8.3064    8.3579 C   0  0  0  0  0  0  0  0  0  0  0  0
   31.7471    9.3913    7.4601 C   0  0  0  0  0  0  0  0  0  0  0  0
   32.7179    8.9458    6.4648 N   0  0  0  0  0  0  0  0  0  0  0  0
   33.0399    9.8773    5.8631 N   0  0  0  0  0  0  0  0  0  0  0  0
   33.9497    9.7113    4.8824 C   0  0  0  0  0  0  0  0  0  0  0  0
   32.4605   11.0128    6.2296 C   0  0  0  0  0  0  0  0  0  0  0  0
   31.5107   10.7437    7.3807 C   0  0  0  0  0  0  0  0  0  0  0  0
   30.7349   11.5313    8.0622 N   0  0  0  0  0  0  0  0  0  0  0  0
   30.2818   12.7030    7.5689 C   0  0  0  0  0  0  0  0  0  0  0  0
   30.7730   13.3523    6.4145 O   0  0  0  0  0  0  0  0  0  0  0  0
   29.1679   13.2215    8.4008 C   0  0  2  0  0  0  0  0  0  0  0  0
   27.9102   13.5137    7.6431 C   0  0  0  0  0  0  0  0  0  0  0  0
   27.5639   14.8514    8.1419 C   0  0  2  0  0  0  0  0  0  0  0  0
   28.3926   15.6999    7.4145 O   0  0  0  0  0  0  0  0  0  0  0  0
   28.8543   16.6854    8.2885 C   0  0  0  0  0  0  0  0  0  0  0  0
   28.0868   14.7865    9.5454 C   0  0  0  0  0  0  0  0  0  0  0  0
   29.4586   14.4832    9.1754 N   0  0  0  0  0  0  0  0  0  0  0  0
   30.3470   14.4373   10.3390 C   0  0  0  0  0  0  0  0  0  0  0  0
  1  2  1  0
  2  3  1  0
  3  4  2  0
  4  5  1  0
  5  6  1  0
  5  7  1  0
  7  8  2  0
  8  9  1  0
  9 10  1  0
 10 11  2  0
 12 10  1  6
 12 13  1  0
 13 14  1  0
 14 15  1  6
 15 16  1  0
 14 17  1  0
 17 18  1  0
 18 19  1  0
  8  3  1  0
 18 12  1  0
A    1
 C1 
A    2
 C2 
A    3
 C3 
A    4
 N1 
A    5
 N2 
A    6
 C4 
A    7
 C5 
A    8
 C6 
A    9
 N3 
A   10
 C7 
A   11
 O1 
A   12
 C8 
A   13
 C9 
A   14
 C10
A   15
 O2 
A   16
 C11
A   17
 C12
A   18
 N4 
A   19
 C13
M  END
>  <ref_pdb>  (23) 
Ax0310a

>  <ref_mols>  (23) 
Ax0446a,Ax1080a,Ax0812a,Ax0719a,Ax1140a,Ax0528a,Ax0310a

>  <original SMILES>  (23) 
CCc1nn(C)cc1NC(=O)[C@@H]1C[C@H](OC)CN1C

>  <rationale>  (23) 
info info set:screening_pocket;hbond:S87+S125+G127; hydroph_interaction:V124; saltbridge:D39; 

>  <experiment>  (23) 
screening_pocket

>  <cluster_label>  (23) 
19

>  <cluster_rank>  (23) 
2

>  <N_interactions>  (23) 
5

>  <∆∆G>  (23) 
-7.441495

>  <comRMSD>  (23) 
0.607788

>  <ROCS_TanimotoCombo>  (23) 
0.625

>  <ROCS_ShapeTanimoto>  (23) 
0.234

>  <ROCS_ColorTanimoto>  (23) 
0.392

$$$$
EN300_1618086
     RDKit          3D

 16 16  0  0  0  0  0  0  0  0999 V2000
   34.4142    7.8237    3.0939 C   0  0  0  0  0  0  0  0  0  0  0  0
   34.9298    8.3508    4.2810 C   0  0  0  0  0  0  0  0  0  0  0  0
   33.8050    8.7340    5.1080 O   0  0  0  0  0  0  0  0  0  0  0  0
   33.9670    9.9825    5.5536 C   0  0  0  0  0  0  0  0  0  0  0  0
   34.9417   10.6652    5.2902 O   0  0  0  0  0  0  0  0  0  0  0  0
   32.9193   10.4200    6.3389 C   0  0  0  0  0  0  0  0  0  0  0  0
   32.1550    9.6397    7.1086 N   0  0  0  0  0  0  0  0  0  0  0  0
   31.1943   10.3196    7.7837 C   0  0  0  0  0  0  0  0  0  0  0  0
   30.3514    9.6094    8.6103 C   0  0  0  0  0  0  0  0  0  0  0  0
   31.3506   11.6651    7.4102 C   0  0  0  0  0  0  0  0  0  0  0  0
   30.5205   13.0956    7.8248 S   0  0  0  0  0  6  0  0  0  0  0  0
   29.1157   12.7303    8.6261 N   0  0  0  0  0  0  0  0  0  0  0  0
   30.0268   13.6219    6.5791 O   0  0  0  0  0  0  0  0  0  0  0  0
   31.3572   13.8527    8.7328 O   0  0  0  0  0  0  0  0  0  0  0  0
   32.4252   11.6908    6.5224 C   0  0  0  0  0  0  0  0  0  0  0  0
   32.8960   12.9771    5.9114 C   0  0  0  0  0  0  0  0  0  0  0  0
  1  2  1  0
  2  3  1  0
  3  4  1  0
  4  5  2  0
  4  6  1  0
  6  7  1  0
  7  8  1  0
  8  9  1  0
  8 10  2  0
 10 11  1  0
 11 12  1  0
 11 13  2  0
 11 14  2  0
 10 15  1  0
 15 16  1  0
 15  6  2  0
A    1
 C1 
A    2
 C2 
A    3
 O1 
A    4
 C3 
A    5
 O2 
A    6
 C4 
A    7
 N1 
A    8
 C5 
A    9
 C6 
A   10
 C7 
A   11
 S1 
A   12
 N2 
A   13
 O3 
A   14
 O4 
A   15
 C8 
A   16
 C9 
M  END
>  <ref_pdb>  (24) 
Ax0310a

>  <ref_mols>  (24) 
Ax0446a,Ax1080a,Ax0812a,Ax0719a,Ax1140a,Ax0528a,Ax0310a

>  <original SMILES>  (24) 
CCOC(=O)c1[nH]c(C)c(S(N)(=O)=O)c1C

>  <rationale>  (24) 
info info set:sulfonimide_whole;hbond:S87+S125; hydroph_interaction:E106; 

>  <experiment>  (24) 
sulfonimide_whole

>  <cluster_label>  (24) 
4

>  <cluster_rank>  (24) 
2

>  <N_interactions>  (24) 
3

>  <∆∆G>  (24) 
-6.050994

>  <comRMSD>  (24) 
0.859902

>  <ROCS_TanimotoCombo>  (24) 
0.346

>  <ROCS_ShapeTanimoto>  (24) 
0.195

>  <ROCS_ColorTanimoto>  (24) 
0.151

$$$$
EN300_359480
     RDKit          3D

 15 16  0  0  0  0  0  0  0  0999 V2000
   30.4942    7.9602    8.6364 C   0  0  0  0  0  0  0  0  0  0  0  0
   30.4534    9.3724    8.4302 N   0  0  0  0  0  0  0  0  0  0  0  0
   31.3291    9.8455    7.4625 C   0  0  0  0  0  0  0  0  0  0  0  0
   32.2886    9.0327    6.9665 N   0  0  0  0  0  0  0  0  0  0  0  0
   33.1154    9.5364    6.0052 C   0  0  0  0  0  0  0  0  0  0  0  0
   33.0508   10.8263    5.5001 C   0  0  0  0  0  0  0  0  0  0  0  0
   33.9807   11.3236    4.4163 C   0  0  0  0  0  0  0  0  0  0  0  0
   35.0073   10.5150    3.9904 C   0  0  0  0  0  0  0  0  0  0  0  0
   35.6005   11.5831    4.6611 C   0  0  0  0  0  0  0  0  0  0  0  0
   32.0635   11.6223    6.0454 C   0  0  0  0  0  0  0  0  0  0  0  0
   31.1958   11.1496    7.0170 C   0  0  0  0  0  0  0  0  0  0  0  0
   30.1539   12.0916    7.5165 C   0  0  0  0  0  0  0  0  0  0  0  0
   30.3629   12.5019    8.7740 F   0  0  0  0  0  0  0  0  0  0  0  0
   28.8878   11.6379    7.4855 F   0  0  0  0  0  0  0  0  0  0  0  0
   30.0984   13.2327    6.7960 F   0  0  0  0  0  0  0  0  0  0  0  0
  1  2  1  0
  2  3  1  0
  3  4  2  0
  4  5  1  0
  5  6  2  0
  6  7  1  0
  7  8  1  0
  8  9  1  0
  6 10  1  0
 10 11  2  0
 11 12  1  0
 12 13  1  0
 12 14  1  0
 12 15  1  0
 11  3  1  0
  9  7  1  0
A    1
 C1 
A    2
 N1 
A    3
 C2 
A    4
 N2 
A    5
 C3 
A    6
 C4 
A    7
 C5 
A    8
 C6 
A    9
 C7 
A   10
 C8 
A   11
 C9 
A   12
 C10
A   13
 F1 
A   14
 F2 
A   15
 F3 
M  END
>  <ref_pdb>  (25) 
Ax0310a

>  <ref_mols>  (25) 
Ax0446a,Ax1080a,Ax0812a,Ax0719a,Ax1140a,Ax0528a,Ax0310a

>  <original SMILES>  (25) 
CNc1ncc(C2CC2)cc1C(F)(F)F

>  <rationale>  (25) 
info info set:bb_densepocket2;halogenbond:C110+P107; hbond:S125; hydroph_interaction:P107; 

>  <experiment>  (25) 
bb_densepocket2

>  <cluster_label>  (25) 
2

>  <cluster_rank>  (25) 
2

>  <N_interactions>  (25) 
4

>  <∆∆G>  (25) 
-4.381063

>  <comRMSD>  (25) 
0.71304

>  <ROCS_TanimotoCombo>  (25) 
0.614

>  <ROCS_ShapeTanimoto>  (25) 
0.259

>  <ROCS_ColorTanimoto>  (25) 
0.355

$$$$
EN300_277778
     RDKit          3D

 17 17  0  0  0  0  0  0  0  0999 V2000
   29.5890    8.0164    8.4748 N   0  0  0  0  0  0  0  0  0  0  0  0
   30.6525    8.3277    8.6622 C   0  0  0  0  0  0  0  0  0  0  0  0
   31.3974    7.6477    9.6139 O   0  0  0  0  0  0  0  0  0  0  0  0
   31.1960    9.5112    7.9101 C   0  0  0  0  0  0  0  0  0  0  0  0
   32.3200    9.3179    6.8980 C   0  0  0  0  0  0  0  0  0  0  0  0
   32.9377   10.5002    6.1070 C   0  0  0  0  0  0  0  0  0  0  0  0
   33.9146   10.3163    5.2446 N   0  0  0  0  0  4  0  0  0  0  0  0
   34.9958   10.8469    5.5080 O   0  0  0  0  0  0  0  0  0  0  0  0
   33.5989   10.0362    4.0955 O   0  0  0  0  0  1  0  0  0  0  0  0
   32.2878   11.8726    6.4465 C   0  0  0  0  0  0  0  0  0  0  0  0
   32.8585   13.2809    5.6500 Cl  0  0  0  0  0  0  0  0  0  0  0  0
   31.2439   11.9258    7.3992 C   0  0  0  0  0  0  0  0  0  0  0  0
   30.4687   13.4352    7.8153 S   0  0  0  0  0  6  0  0  0  0  0  0
   29.1560   13.1104    8.7977 N   0  0  0  0  0  0  0  0  0  0  0  0
   31.3809   14.1995    8.6492 O   0  0  0  0  0  0  0  0  0  0  0  0
   29.8035   13.8683    6.6184 O   0  0  0  0  0  0  0  0  0  0  0  0
   30.6965   10.7441    8.1337 C   0  0  0  0  0  0  0  0  0  0  0  0
  1  2  1  0
  2  3  2  0
  2  4  1  0
  4  5  2  0
  5  6  1  0
  6  7  1  0
  7  8  2  0
  7  9  1  0
  6 10  2  0
 10 11  1  0
 10 12  1  0
 12 13  1  0
 13 14  1  0
 13 15  2  0
 13 16  2  0
 12 17  2  0
 17  4  1  0
M  CHG  2   7   1   9  -1
A    1
 N1 
A    2
 C1 
A    3
 O1 
A    4
 C2 
A    5
 C3 
A    6
 C4 
A    7
 N2 
A    8
 O2 
A    9
 O3 
A   10
 C5 
A   11
CL1 
A   12
 C6 
A   13
 S1 
A   14
 N3 
A   15
 O4 
A   16
 O5 
A   17
 C7 
M  END
>  <ref_pdb>  (26) 
Ax0310a

>  <ref_mols>  (26) 
Ax0446a,Ax1080a,Ax0812a,Ax0719a,Ax1140a,Ax0528a,Ax0310a

>  <original SMILES>  (26) 
NC(=O)c1cc([N+](=O)[O-])c(Cl)c(S(N)(=O)=O)c1

>  <rationale>  (26) 
info info set:sulfonimide_whole;hbond:S87+S105+S125+P107; 

>  <experiment>  (26) 
sulfonimide_whole

>  <cluster_label>  (26) 
11

>  <cluster_rank>  (26) 
2

>  <N_interactions>  (26) 
4

>  <∆∆G>  (26) 
-3.639115

>  <comRMSD>  (26) 
0.651007

>  <ROCS_TanimotoCombo>  (26) 
0.346

>  <ROCS_ShapeTanimoto>  (26) 
0.215

>  <ROCS_ColorTanimoto>  (26) 
0.131

$$$$
Z55423090
     RDKit          3D

 17 18  0  0  0  0  0  0  0  0999 V2000
   28.8185   12.4916    7.9182 C   0  0  0  0  0  0  0  0  0  0  0  0
   29.9789   11.5764    7.6646 C   0  0  0  0  0  0  0  0  0  0  0  0
   30.2308   10.2552    8.0558 C   0  0  0  0  0  0  0  0  0  0  0  0
   31.3960    9.8210    7.5577 C   0  0  0  0  0  0  0  0  0  0  0  0
   31.9537    8.6135    7.6865 N   0  0  0  0  0  0  0  0  0  0  0  0
   31.8719   10.8818    6.9003 N   0  0  0  0  0  0  0  0  0  0  0  0
   32.9718   10.9884    6.2778 C   0  0  0  0  0  0  0  0  0  0  0  0
   33.3898    9.9786    5.4114 C   0  0  0  0  0  0  0  0  0  0  0  0
   34.5904   10.0675    4.6808 C   0  0  0  0  0  0  0  0  0  0  0  0
   35.3546   11.2124    4.8565 C   0  0  0  0  0  0  0  0  0  0  0  0
   34.9163   12.2728    5.7793 C   0  0  0  0  0  0  0  0  0  0  0  0
   33.7386   12.1491    6.4870 C   0  0  0  0  0  0  0  0  0  0  0  0
   33.4000   13.2824    7.4205 C   0  0  0  0  0  0  0  0  0  0  0  0
   34.2415   14.3373    7.3913 F   0  0  0  0  0  0  0  0  0  0  0  0
   32.1221   13.6626    7.2611 F   0  0  0  0  0  0  0  0  0  0  0  0
   33.4055   12.9341    8.7344 F   0  0  0  0  0  0  0  0  0  0  0  0
   31.0192   11.9649    6.9400 N   0  0  0  0  0  0  0  0  0  0  0  0
  1  2  1  0
  2  3  1  0
  3  4  2  0
  4  5  1  0
  4  6  1  0
  6  7  1  0
  7  8  2  0
  8  9  1  0
  9 10  2  0
 10 11  1  0
 11 12  2  0
 12 13  1  0
 13 14  1  0
 13 15  1  0
 13 16  1  0
  6 17  1  0
 17  2  2  0
 12  7  1  0
A    1
 C1 
A    2
 C2 
A    3
 C3 
A    4
 C4 
A    5
 N1 
A    6
 N2 
A    7
 C5 
A    8
 C6 
A    9
 C7 
A   10
 C8 
A   11
 C9 
A   12
 C10
A   13
 C11
A   14
 F1 
A   15
 F2 
A   16
 F3 
A   17
 N3 
M  END
>  <ref_pdb>  (27) 
Ax0310a

>  <ref_mols>  (27) 
Ax0446a,Ax1080a,Ax0812a,Ax0719a,Ax1140a,Ax0528a,Ax0310a

>  <original SMILES>  (27) 
Cc1cc(N)n(-c2ccccc2C(F)(F)F)n1

>  <rationale>  (27) 
info info set:3d;halogenbond:E85; hbond:S105; 

>  <experiment>  (27) 
3d

>  <cluster_label>  (27) 
1

>  <cluster_rank>  (27) 
2

>  <N_interactions>  (27) 
2

>  <∆∆G>  (27) 
-3.577937

>  <comRMSD>  (27) 
0.504708

>  <ROCS_TanimotoCombo>  (27) 
0.339

>  <ROCS_ShapeTanimoto>  (27) 
0.23

>  <ROCS_ColorTanimoto>  (27) 
0.109

$$$$
Z4967399033
     RDKit          3D

 29 32  0  0  0  0  0  0  0  0999 V2000
   30.1392    8.9753    8.2978 C   0  0  0  0  0  0  0  0  0  0  0  0
   31.0526   10.0143    7.6212 C   0  0  0  0  0  0  0  0  0  0  0  0
   30.8032   11.3245    7.7754 N   0  0  0  0  0  0  0  0  0  0  0  0
   31.6625   12.2312    7.2351 C   0  0  0  0  0  0  0  0  0  0  0  0
   31.4863   13.4621    7.3577 O   0  0  0  0  0  0  0  0  0  0  0  0
   30.2318   13.8573    7.7813 C   0  0  0  0  0  0  0  0  0  0  0  0
   29.0734   13.7530    6.7995 C   0  0  0  0  0  0  0  0  0  0  0  0
   29.5387   13.2678    5.3017 Cl  0  0  0  0  0  0  0  0  0  0  0  0
   27.7045   14.1123    7.2216 C   0  0  0  0  0  0  0  0  0  0  0  0
   27.4685   14.6197    8.6099 C   0  0  0  0  0  0  0  0  0  0  0  0
   28.5966   14.7740    9.5657 C   0  0  0  0  0  0  0  0  0  0  0  0
   30.0075   14.4135    9.1610 C   0  0  0  0  0  0  0  0  0  0  0  0
   31.0833   14.6058    9.9792 C   0  0  0  0  0  0  0  0  0  0  0  0
   31.0342   15.4718   10.9393 N   0  0  0  0  0  0  0  0  0  0  0  0
   32.1340   14.0365    9.7579 O   0  0  0  0  0  0  0  0  0  0  0  0
   32.7871   11.7680    6.5411 C   0  0  0  0  0  0  0  0  0  0  0  0
   33.8532   12.4106    5.9509 C   0  0  0  0  0  0  0  0  0  0  0  0
   34.0079   13.8203    5.9552 C   0  0  0  0  0  0  0  0  0  0  0  0
   34.7559   11.5173    5.4038 C   0  0  0  0  0  0  0  0  0  0  0  0
   36.1360   11.7871    4.7549 C   0  0  0  0  0  0  0  0  0  0  0  0
   36.4203   11.2425    3.5643 C   0  0  0  0  0  0  0  0  0  0  0  0
   37.7671   11.4826    2.9765 C   0  0  0  0  0  0  0  0  0  0  0  0
   38.9686   12.2907    3.5211 C   0  0  0  0  0  0  0  0  0  0  0  0
   38.3957   12.7398    4.7431 C   0  0  0  0  0  0  0  0  0  0  0  0
   37.1445   12.5421    5.3262 C   0  0  0  0  0  0  0  0  0  0  0  0
   36.9770   13.3239    6.8467 Cl  0  0  0  0  0  0  0  0  0  0  0  0
   34.2299    9.8915    5.5437 S   0  0  0  0  0  0  0  0  0  0  0  0
   32.8811   10.3927    6.4260 C   0  0  0  0  0  0  0  0  0  0  0  0
   32.0577    9.4836    6.9349 N   0  0  0  0  0  0  0  0  0  0  0  0
  1  2  1  0
  2  3  2  0
  3  4  1  0
  4  5  1  0
  5  6  1  0
  6  7  2  0
  7  8  1  0
  7  9  1  0
  9 10  2  0
 10 11  1  0
 11 12  2  0
 12 13  1  0
 13 14  1  0
 13 15  2  0
  4 16  2  0
 16 17  1  0
 17 18  1  0
 17 19  2  0
 19 20  1  0
 20 21  2  0
 21 22  1  0
 22 23  2  0
 23 24  1  0
 24 25  2  0
 25 26  1  0
 19 27  1  0
 27 28  1  0
 28 29  2  0
 29  2  1  0
 12  6  1  0
 28 16  1  0
 25 20  1  0
A    1
 C1 
A    2
 C2 
A    3
 N1 
A    4
 C3 
A    5
 O1 
A    6
 C4 
A    7
 C5 
A    8
CL1 
A    9
 C6 
A   10
 C7 
A   11
 C8 
A   12
 C9 
A   13
 C10
A   14
 N2 
A   15
 O2 
A   16
 C11
A   17
 C12
A   18
 C13
A   19
 C14
A   20
 C15
A   21
 C16
A   22
 C17
A   23
 C18
A   24
 C19
A   25
 C20
A   26
CL2 
A   27
 S1 
A   28
 C21
A   29
 N3 
M  END
>  <ref_pdb>  (28) 
Ax0310a

>  <ref_mols>  (28) 
Ax0446a,Ax1080a,Ax0812a,Ax0719a,Ax1140a,Ax0528a,Ax0310a

>  <original SMILES>  (28) 
Cc1nc(Oc2c(Cl)cccc2C(N)=O)c2c(C)c(-c3ccccc3Cl)sc2n1

>  <rationale>  (28) 
info info set:screening_whole;hbond:S87+G127+Q95; hydroph_interaction:Y89+Y90; pistack:H21; 

>  <experiment>  (28) 
screening_whole

>  <cluster_label>  (28) 
18

>  <cluster_rank>  (28) 
2

>  <N_interactions>  (28) 
7

>  <∆∆G>  (28) 
-6.228216

>  <comRMSD>  (28) 
0.818239

>  <ROCS_TanimotoCombo>  (28) 
0.458

>  <ROCS_ShapeTanimoto>  (28) 
0.264

>  <ROCS_ColorTanimoto>  (28) 
0.194

$$$$
Z729056044
     RDKit          3D

 20 22  0  0  0  0  0  0  0  0999 V2000
   34.7269    9.2235    4.3305 C   0  0  0  0  0  0  0  0  0  0  0  0
   33.9673    8.8983    5.4336 N   0  0  0  0  0  0  0  0  0  0  0  0
   33.0810    9.7028    6.1704 C   0  0  0  0  0  0  0  0  0  0  0  0
   33.1104   11.0745    6.1083 C   0  0  0  0  0  0  0  0  0  0  0  0
   32.2476   11.8915    6.8252 C   0  0  0  0  0  0  0  0  0  0  0  0
   31.2992   11.2800    7.6513 C   0  0  0  0  0  0  0  0  0  0  0  0
   30.4837   12.1022    8.3048 N   0  0  0  0  0  0  0  0  0  0  0  0
   29.4834   12.7939    7.6344 C   0  0  0  0  0  0  0  0  0  0  0  0
   29.8653   13.2119    6.4455 N   0  0  0  0  0  0  0  0  0  0  0  0
   28.9985   13.8518    5.6349 C   0  0  0  0  0  0  0  0  0  0  0  0
   27.7432   14.1282    5.8383 N   0  0  0  0  0  0  0  0  0  0  0  0
   27.3303   13.7365    7.0048 C   0  0  0  0  0  0  0  0  0  0  0  0
   25.7184   13.9642    7.4387 S   0  0  0  0  0  0  0  0  0  0  0  0
   25.9844   13.2709    8.9079 C   0  0  0  0  0  0  0  0  0  0  0  0
   24.9511   12.9854    9.9862 C   0  0  0  0  0  0  0  0  0  0  0  0
   27.1965   12.9033    9.1608 C   0  0  0  0  0  0  0  0  0  0  0  0
   27.1096   12.4126   10.5787 C   0  0  0  0  0  0  0  0  0  0  0  0
   28.1450   13.0546    8.0584 C   0  0  0  0  0  0  0  0  0  0  0  0
   31.3197    9.8748    7.6718 C   0  0  0  0  0  0  0  0  0  0  0  0
   32.1856    9.0878    6.9582 N   0  0  0  0  0  0  0  0  0  0  0  0
  1  2  1  0
  2  3  1  0
  3  4  2  0
  4  5  1  0
  5  6  2  0
  6  7  1  0
  7  8  1  0
  8  9  2  0
  9 10  1  0
 10 11  2  0
 11 12  1  0
 12 13  1  0
 13 14  1  0
 14 15  1  0
 14 16  2  0
 16 17  1  0
 16 18  1  0
  6 19  1  0
 19 20  2  0
 20  3  1  0
 18  8  1  0
 18 12  2  0
A    1
 C1 
A    2
 N1 
A    3
 C2 
A    4
 C3 
A    5
 C4 
A    6
 C5 
A    7
 N2 
A    8
 C6 
A    9
 N3 
A   10
 C7 
A   11
 N4 
A   12
 C8 
A   13
 S1 
A   14
 C9 
A   15
 C10
A   16
 C11
A   17
 C12
A   18
 C13
A   19
 C14
A   20
 N5 
M  END
>  <ref_pdb>  (29) 
Ax0310a

>  <ref_mols>  (29) 
Ax0446a,Ax1080a,Ax0812a,Ax0719a,Ax1140a,Ax0528a,Ax0310a

>  <original SMILES>  (29) 
CNc1ccc(Nc2ncnc3sc(C)c(C)c23)cn1

>  <rationale>  (29) 
info info set:screening_pocket;hbond:S87+S105+S125; hydroph_interaction:H21+L22+N19; pistack:Y90; 

>  <experiment>  (29) 
screening_pocket

>  <cluster_label>  (29) 
13

>  <cluster_rank>  (29) 
2

>  <N_interactions>  (29) 
7

>  <∆∆G>  (29) 
-3.773515

>  <comRMSD>  (29) 
0.991884

>  <ROCS_TanimotoCombo>  (29) 
0.632

>  <ROCS_ShapeTanimoto>  (29) 
0.227

>  <ROCS_ColorTanimoto>  (29) 
0.405

$$$$
EN300_37443701
     RDKit          3D

 13 14  0  0  0  0  0  0  0  0999 V2000
   29.0296   13.3164    9.1217 N   0  0  0  0  0  0  0  0  0  0  0  0
   30.3081   14.0438    8.4006 S   0  0  0  0  0  6  0  0  0  0  0  0
   30.6141   15.2001    9.2072 O   0  0  0  0  0  0  0  0  0  0  0  0
   29.7514   14.0897    7.0704 O   0  0  0  0  0  0  0  0  0  0  0  0
   31.7934   13.0676    8.2441 C   0  0  0  0  0  0  0  0  0  0  0  0
   31.7132   11.6896    7.6380 C   0  0  2  0  0  0  0  0  0  0  0  0
   30.3885   11.5613    7.2701 C   0  0  0  0  0  0  0  0  0  0  0  0
   30.9205   10.3770    8.1131 C   0  0  1  0  0  0  0  0  0  0  0  0
   31.6574    9.2105    7.4992 C   0  0  0  0  0  0  0  0  0  0  0  0
   32.5476    9.7174    6.4361 C   0  0  0  0  0  0  0  0  0  0  0  0
   32.5938   11.2579    6.4783 C   0  0  0  0  0  0  0  0  0  0  0  0
   32.2008   11.8346    5.3568 F   0  0  0  0  0  0  0  0  0  0  0  0
   33.8344   11.7054    6.6340 F   0  0  0  0  0  0  0  0  0  0  0  0
  1  2  1  0
  2  3  2  0
  2  4  2  0
  2  5  1  0
  6  5  1  1
  6  7  1  0
  8  7  1  6
  8  9  1  0
  9 10  1  0
 10 11  1  0
 11 12  1  0
 11 13  1  0
  8  6  1  0
 11  6  1  0
A    1
 N1 
A    2
 S1 
A    3
 O1 
A    4
 O2 
A    5
 C1 
A    6
 C2 
A    7
 C3 
A    8
 C4 
A    9
 C5 
A   10
 C6 
A   11
 C7 
A   12
 F1 
A   13
 F2 
M  END
>  <ref_pdb>  (30) 
Ax0310a

>  <ref_mols>  (30) 
Ax0446a,Ax1080a,Ax0812a,Ax0719a,Ax1140a,Ax0528a,Ax0310a

>  <original SMILES>  (30) 
NS(=O)(=O)C[C@]12C[C@H]1CCC2(F)F

>  <rationale>  (30) 
info info set:sulfonimide_whole;halogenbond:G127; hbond:S87+S125; hydroph_interaction:P107; 

>  <experiment>  (30) 
sulfonimide_whole

>  <cluster_label>  (30) 
14

>  <cluster_rank>  (30) 
2

>  <N_interactions>  (30) 
4

>  <∆∆G>  (30) 
-0.317492

>  <comRMSD>  (30) 
0.765759

>  <ROCS_TanimotoCombo>  (30) 
0.376

>  <ROCS_ShapeTanimoto>  (30) 
0.194

>  <ROCS_ColorTanimoto>  (30) 
0.182

$$$$
Z99095183
     RDKit          3D

 17 18  0  0  0  0  0  0  0  0999 V2000
   28.6033   14.6612   11.4856 C   0  0  0  0  0  0  0  0  0  0  0  0
   29.8915   14.6134   11.0148 C   0  0  0  0  0  0  0  0  0  0  0  0
   30.8440   14.1590   11.8355 C   0  0  0  0  0  0  0  0  0  0  0  0
   30.5304   15.9456   10.7405 C   0  0  0  0  0  0  0  0  0  0  0  0
   29.8638   13.7965    9.8029 N   0  0  0  0  0  0  0  0  0  0  0  0
   30.8443   13.6775    8.8615 C   0  0  0  0  0  0  0  0  0  0  0  0
   32.0227   13.9830    9.0046 O   0  0  0  0  0  0  0  0  0  0  0  0
   30.2541   13.0733    7.5798 C   0  0  0  0  0  0  0  0  0  0  0  0
   31.0731   11.8169    7.2757 C   0  0  0  0  0  0  0  0  0  0  0  0
   30.6088   10.6144    7.6398 N   0  0  0  0  0  0  0  0  0  0  0  0
   31.5322    9.6886    7.1795 O   0  0  0  0  0  0  0  0  0  0  0  0
   32.5532   10.3277    6.5586 C   0  0  0  0  0  0  0  0  0  0  0  0
   33.7543    9.5997    5.9112 C   0  0  0  0  0  0  0  0  0  0  0  0
   34.8404   10.4902    5.2579 C   0  0  0  0  0  0  0  0  0  0  0  0
   34.6092   11.8578    5.3344 C   0  0  0  0  0  0  0  0  0  0  0  0
   33.4046   12.5422    5.9721 C   0  0  0  0  0  0  0  0  0  0  0  0
   32.3048   11.6880    6.6204 C   0  0  0  0  0  0  0  0  0  0  0  0
  1  2  1  0
  2  3  1  0
  2  4  1  0
  2  5  1  0
  5  6  1  0
  6  7  2  0
  6  8  1  0
  8  9  1  0
  9 10  2  0
 10 11  1  0
 11 12  1  0
 12 13  2  0
 13 14  1  0
 14 15  2  0
 15 16  1  0
 16 17  2  0
 17  9  1  0
 17 12  1  0
A    1
 C1 
A    2
 C2 
A    3
 C3 
A    4
 C4 
A    5
 N1 
A    6
 C5 
A    7
 O1 
A    8
 C6 
A    9
 C7 
A   10
 N2 
A   11
 O2 
A   12
 C8 
A   13
 C9 
A   14
 C10
A   15
 C11
A   16
 C12
A   17
 C13
M  END
>  <ref_pdb>  (31) 
Ax0310a

>  <ref_mols>  (31) 
Ax0446a,Ax1080a,Ax0812a,Ax0719a,Ax1140a,Ax0528a,Ax0310a

>  <original SMILES>  (31) 
CC(C)(C)NC(=O)Cc1noc2ccccc12

>  <rationale>  (31) 
info info set:3d;hbond:S87; hydroph_interaction:Y90+D39; 

>  <experiment>  (31) 
3d

>  <cluster_label>  (31) 
8

>  <cluster_rank>  (31) 
2

>  <N_interactions>  (31) 
4

>  <∆∆G>  (31) 
-5.735914

>  <comRMSD>  (31) 
0.814618

>  <ROCS_TanimotoCombo>  (31) 
0.35

>  <ROCS_ShapeTanimoto>  (31) 
0.191

>  <ROCS_ColorTanimoto>  (31) 
0.159

$$$$
Z2306626585
     RDKit          3D

 16 17  0  0  0  0  0  0  0  0999 V2000
   35.0297   10.5888    4.9807 O   0  0  0  0  0  0  0  0  0  0  0  0
   34.2245   11.6343    5.5576 C   0  0  0  0  0  0  0  0  0  0  0  0
   34.4572   12.9533    5.4519 O   0  0  0  0  0  0  0  0  0  0  0  0
   33.0377   11.1552    6.3598 C   0  0  0  0  0  0  0  0  0  0  0  0
   32.9346    9.6801    6.3906 C   0  0  0  0  0  0  0  0  0  0  0  0
   31.7985    9.1077    7.1895 C   0  0  0  0  0  0  0  0  0  0  0  0
   30.6783    9.8678    8.0045 C   0  0  0  0  0  0  0  0  0  0  0  0
   31.0543   11.3773    7.7587 C   0  0  0  0  0  0  0  0  0  0  0  0
   30.1656   12.3888    8.4069 C   0  0  0  0  0  0  0  0  0  0  0  0
   30.0876   13.6594    7.7751 N   0  0  0  0  0  0  0  0  0  0  0  0
   29.2268   13.5582    6.7036 C   0  0  0  0  0  0  0  0  0  0  0  0
   27.7351   13.7987    6.8673 C   0  0  0  0  0  0  0  0  0  0  0  0
   27.6779   14.8656    7.9500 C   0  0  0  0  0  0  0  0  0  0  0  0
   28.4735   14.4114    9.1413 C   0  0  0  0  0  0  0  0  0  0  0  0
   29.8369   14.5268    8.9540 C   0  0  0  0  0  0  0  0  0  0  0  0
   32.1229   11.9133    7.0162 C   0  0  0  0  0  0  0  0  0  0  0  0
  1  2  2  0
  2  3  1  0
  2  4  1  0
  4  5  2  0
  5  6  1  0
  6  7  2  0
  7  8  1  0
  8  9  1  0
  9 10  1  0
 10 11  1  0
 11 12  1  0
 12 13  1  0
 13 14  1  0
 14 15  1  0
  8 16  2  0
 16  4  1  0
 15 10  1  0
A    1
 O1 
A    2
 C1 
A    3
 O2 
A    4
 C2 
A    5
 C3 
A    6
 C4 
A    7
 C5 
A    8
 C6 
A    9
 C7 
A   10
 N1 
A   11
 C8 
A   12
 C9 
A   13
 C10
A   14
 C11
A   15
 C12
A   16
 C13
M  END
>  <ref_pdb>  (32) 
Ax0310a

>  <ref_mols>  (32) 
Ax0446a,Ax1080a,Ax0812a,Ax0719a,Ax1140a,Ax0528a,Ax0310a

>  <original SMILES>  (32) 
O=C(O)c1cccc(CN2CCCCC2)c1

>  <rationale>  (32) 
info info set:3d;hbond:S87; hydroph_interaction:Y89+Y90; pication:H21; 

>  <experiment>  (32) 
3d

>  <cluster_label>  (32) 
12

>  <cluster_rank>  (32) 
2

>  <N_interactions>  (32) 
4

>  <∆∆G>  (32) 
-5.426417

>  <comRMSD>  (32) 
0.446721

>  <ROCS_TanimotoCombo>  (32) 
0.33

>  <ROCS_ShapeTanimoto>  (32) 
0.218

>  <ROCS_ColorTanimoto>  (32) 
0.112

$$$$
EN300_263007
     RDKit          3D

 15 16  0  0  0  0  0  0  0  0999 V2000
   34.7827   14.7074    8.0089 N   0  0  0  0  0  0  0  0  0  0  0  0
   33.3907   13.8663    8.4420 S   0  0  0  0  0  6  0  0  0  0  0  0
   32.4953   14.7525    9.1720 O   0  0  0  0  0  0  0  0  0  0  0  0
   33.8873   12.7191    9.0883 O   0  0  0  0  0  0  0  0  0  0  0  0
   32.7856   13.4433    6.8445 C   0  0  0  0  0  0  0  0  0  0  0  0
   33.2141   12.1112    6.3737 C   0  0  0  0  0  0  0  0  0  0  0  0
   34.4387   12.0468    5.4235 C   0  0  0  0  0  0  0  0  0  0  0  0
   34.8346   10.6176    4.9872 C   0  0  0  0  0  0  0  0  0  0  0  0
   33.9591    9.5151    5.5712 C   0  0  0  0  0  0  0  0  0  0  0  0
   32.7861    9.7318    6.5014 C   0  0  0  0  0  0  0  0  0  0  0  0
   31.9856    8.7364    7.0578 N   0  0  0  0  0  0  0  0  0  0  0  0
   30.9270    9.0148    7.8877 C   0  0  0  0  0  0  0  0  0  0  0  0
   30.6698   10.3386    8.1769 C   0  0  0  0  0  0  0  0  0  0  0  0
   31.4272   11.3351    7.6704 N   0  0  0  0  0  0  0  0  0  0  0  0
   32.4674   11.0493    6.8512 C   0  0  0  0  0  0  0  0  0  0  0  0
  1  2  1  0
  2  3  2  0
  2  4  2  0
  2  5  1  0
  5  6  1  0
  6  7  2  0
  7  8  1  0
  8  9  2  0
  9 10  1  0
 10 11  2  0
 11 12  1  0
 12 13  2  0
 13 14  1  0
 14 15  2  0
 15  6  1  0
 15 10  1  0
A    1
 N1 
A    2
 S1 
A    3
 O1 
A    4
 O2 
A    5
 C1 
A    6
 C2 
A    7
 C3 
A    8
 C4 
A    9
 C5 
A   10
 C6 
A   11
 N2 
A   12
 C7 
A   13
 C8 
A   14
 N3 
A   15
 C9 
M  END
>  <ref_pdb>  (33) 
Ax0310a

>  <ref_mols>  (33) 
Ax0446a,Ax1080a,Ax0812a,Ax0719a,Ax1140a,Ax0528a,Ax0310a

>  <original SMILES>  (33) 
NS(=O)(=O)Cc1cccc2nccnc12

>  <rationale>  (33) 
info info set:sulfonimide_whole;hbond:S87+G127+A86; 

>  <experiment>  (33) 
sulfonimide_whole

>  <cluster_label>  (33) 
5

>  <cluster_rank>  (33) 
2

>  <N_interactions>  (33) 
3

>  <∆∆G>  (33) 
-5.036012

>  <comRMSD>  (33) 
0.616755

>  <ROCS_TanimotoCombo>  (33) 
0.405

>  <ROCS_ShapeTanimoto>  (33) 
0.21

>  <ROCS_ColorTanimoto>  (33) 
0.195

$$$$
Z5346215097
     RDKit          3D

 24 27  0  0  0  0  0  0  0  0999 V2000
   29.6796   14.4249   10.5362 C   0  0  0  0  0  0  0  0  0  0  0  0
   29.8928   14.7637    9.2404 C   0  0  2  0  0  0  0  0  0  0  0  0
   28.5186   15.2807    8.7581 C   0  0  0  0  0  0  0  0  0  0  0  0
   27.7606   14.2808    8.1085 O   0  0  0  0  0  0  0  0  0  0  0  0
   28.4455   14.0004    7.0076 C   0  0  0  0  0  0  0  0  0  0  0  0
   27.7768   14.0311    5.8226 C   0  0  0  0  0  0  0  0  0  0  0  0
   28.4608   13.8087    4.6747 C   0  0  0  0  0  0  0  0  0  0  0  0
   29.7966   13.5353    4.7862 C   0  0  0  0  0  0  0  0  0  0  0  0
   30.4686   13.4552    5.9381 N   0  0  0  0  0  0  0  0  0  0  0  0
   29.7788   13.7092    7.0595 C   0  0  0  0  0  0  0  0  0  0  0  0
   30.4244   13.7104    8.3138 N   0  0  0  0  0  0  0  0  0  0  0  0
   31.7346   13.2485    8.3596 C   0  0  0  0  0  0  0  0  0  0  0  0
   32.6951   13.8086    8.9062 O   0  0  0  0  0  0  0  0  0  0  0  0
   31.9231   11.9659    7.6815 C   0  0  0  0  0  0  0  0  0  0  0  0
   31.0367   10.8434    7.9392 C   0  0  0  0  0  0  0  0  0  0  0  0
   29.9407   11.1568    8.6085 O   0  0  0  0  0  0  0  0  0  0  0  0
   31.1382    9.6388    7.6050 N   0  0  0  0  0  0  0  0  0  0  0  0
   32.2313    9.3541    6.8740 C   0  0  0  0  0  0  0  0  0  0  0  0
   32.6063    8.2292    6.8081 O   0  0  0  0  0  0  0  0  0  0  0  0
   32.8826   10.3973    6.2426 N   0  0  0  0  0  0  0  0  0  0  0  0
   32.8623   11.6724    6.7634 C   0  0  0  0  0  0  0  0  0  0  0  0
   33.8690   12.4773    6.2201 C   0  0  0  0  0  0  0  0  0  0  0  0
   34.6500   11.5660    5.2530 C   0  0  0  0  0  0  0  0  0  0  0  0
   33.9598   10.2113    5.2895 C   0  0  0  0  0  0  0  0  0  0  0  0
  2  1  1  1
  2  3  1  0
  3  4  1  0
  4  5  1  0
  5  6  2  0
  6  7  1  0
  7  8  2  0
  8  9  1  0
  9 10  2  0
 10 11  1  0
 11 12  1  0
 12 13  2  0
 12 14  1  0
 14 15  1  0
 15 16  1  0
 15 17  2  0
 17 18  1  0
 18 19  2  0
 18 20  1  0
 20 21  1  0
 21 22  1  0
 22 23  1  0
 23 24  1  0
 11  2  1  0
 21 14  2  0
 10  5  1  0
 24 20  1  0
A    1
 C1 
A    2
 C2 
A    3
 C3 
A    4
 O1 
A    5
 C4 
A    6
 C5 
A    7
 C6 
A    8
 C7 
A    9
 N1 
A   10
 C8 
A   11
 N2 
A   12
 C9 
A   13
 O2 
A   14
 C10
A   15
 C11
A   16
 O3 
A   17
 N3 
A   18
 C12
A   19
 O4 
A   20
 N4 
A   21
 C13
A   22
 C14
A   23
 C15
A   24
 C16
M  END
>  <ref_pdb>  (34) 
Ax0310a

>  <ref_mols>  (34) 
Ax0446a,Ax1080a,Ax0812a,Ax0719a,Ax1140a,Ax0528a,Ax0310a

>  <original SMILES>  (34) 
C[C@@H]1COc2cccnc2N1C(=O)c1c(O)nc(=O)n2c1CCC2

>  <rationale>  (34) 
info info set:screening_whole;hbond:S87+G127+E106; hydroph_interaction:P107+Y89+Y90+E88; 

>  <experiment>  (34) 
screening_whole

>  <cluster_label>  (34) 
6

>  <cluster_rank>  (34) 
2

>  <N_interactions>  (34) 
7

>  <∆∆G>  (34) 
-3.616466

>  <comRMSD>  (34) 
0.697708

>  <ROCS_TanimotoCombo>  (34) 
0.461

>  <ROCS_ShapeTanimoto>  (34) 
0.263

>  <ROCS_ColorTanimoto>  (34) 
0.198

$$$$
Z2394925055
     RDKit          3D

 19 20  0  0  0  0  0  0  0  0999 V2000
   34.8998    9.2298    4.1093 C   0  0  0  0  0  0  0  0  0  0  0  0
   34.2967    8.8137    5.3549 N   0  0  0  0  0  0  0  0  0  0  0  0
   33.3468    9.5991    6.0142 C   0  0  0  0  0  0  0  0  0  0  0  0
   33.4138   11.1001    5.9683 C   0  0  0  0  0  0  0  0  0  0  0  0
   32.3851   12.0609    6.6903 C   0  0  0  0  0  0  0  0  0  0  0  0
   31.3753   11.0427    7.3929 C   0  0  0  0  0  0  0  0  0  0  0  0
   30.3475   11.6680    8.0994 N   0  0  0  0  0  0  0  0  0  0  0  0
   29.1322   11.0855    8.3768 C   0  0  0  0  0  0  0  0  0  0  0  0
   28.8586    9.9094    8.4443 O   0  0  0  0  0  0  0  0  0  0  0  0
   27.9602   12.0167    8.6681 C   0  0  0  0  0  0  0  0  0  0  0  0
   28.4040   13.4738    8.5984 C   0  0  0  0  0  0  0  0  0  0  0  0
   28.2134   14.3038    7.3659 C   0  0  0  0  0  0  0  0  0  0  0  0
   27.5265   13.3918    6.3470 C   0  0  0  0  0  0  0  0  0  0  0  0
   28.6323   15.5456    7.3795 N   0  0  0  0  0  0  0  0  0  0  0  0
   29.1480   15.7173    8.6366 O   0  0  0  0  0  0  0  0  0  0  0  0
   29.0706   14.5875    9.4157 C   0  0  0  0  0  0  0  0  0  0  0  0
   29.6216   14.6911   10.7899 C   0  0  0  0  0  0  0  0  0  0  0  0
   31.4797    9.6565    7.3226 C   0  0  0  0  0  0  0  0  0  0  0  0
   32.4123    8.9469    6.6729 N   0  0  0  0  0  0  0  0  0  0  0  0
  1  2  1  0
  2  3  1  0
  3  4  2  0
  4  5  1  0
  5  6  2  0
  6  7  1  0
  7  8  1  0
  8  9  2  0
  8 10  1  0
 10 11  1  0
 11 12  1  0
 12 13  1  0
 12 14  2  0
 14 15  1  0
 15 16  1  0
 16 17  1  0
  6 18  1  0
 18 19  2  0
 19  3  1  0
 16 11  2  0
A    1
 C1 
A    2
 N1 
A    3
 C2 
A    4
 C3 
A    5
 C4 
A    6
 C5 
A    7
 N2 
A    8
 C6 
A    9
 O1 
A   10
 C7 
A   11
 C8 
A   12
 C9 
A   13
 C10
A   14
 N3 
A   15
 O2 
A   16
 C11
A   17
 C12
A   18
 C13
A   19
 N4 
M  END
>  <ref_pdb>  (35) 
Ax0310a

>  <ref_mols>  (35) 
Ax0446a,Ax1080a,Ax0812a,Ax0719a,Ax1140a,Ax0528a,Ax0310a

>  <original SMILES>  (35) 
CNc1ccc(NC(=O)Cc2c(C)noc2C)cn1

>  <rationale>  (35) 
info info set:screening_pocket;hbond:S87+S105+C110; hydroph_interaction:P107+Y89+Y90; 

>  <experiment>  (35) 
screening_pocket

>  <cluster_label>  (35) 
16

>  <cluster_rank>  (35) 
2

>  <N_interactions>  (35) 
6

>  <∆∆G>  (35) 
-8.210313

>  <comRMSD>  (35) 
0.456109

>  <ROCS_TanimotoCombo>  (35) 
0.665

>  <ROCS_ShapeTanimoto>  (35) 
0.232

>  <ROCS_ColorTanimoto>  (35) 
0.432

$$$$
EN300_45481960
     RDKit          3D

 19 19  0  0  0  0  0  0  0  0999 V2000
   32.3565    9.9340    6.7654 C   0  0  0  0  0  0  0  0  0  0  0  0
   32.4234   11.4493    7.0255 C   0  0  0  0  0  0  0  0  0  0  0  0
   31.0679   11.9632    7.5201 C   0  0  0  0  0  0  0  0  0  0  0  0
   32.7772   12.1082    5.6977 C   0  0  0  0  0  0  0  0  0  0  0  0
   33.5513   11.8683    7.8702 O   0  0  0  0  0  0  0  0  0  0  0  0
   33.7533   13.1249    8.4312 C   0  0  0  0  0  0  0  0  0  0  0  0
   32.8534   13.8851    8.6815 O   0  0  0  0  0  0  0  0  0  0  0  0
   35.2556   13.4035    8.7513 C   0  0  0  0  0  0  0  0  0  0  0  0
   35.5694   12.5208    9.9253 O   0  0  0  0  0  0  0  0  0  0  0  0
   36.6594   12.2218   10.8044 C   0  0  0  0  0  0  0  0  0  0  0  0
   36.3903   11.0732   11.5820 C   0  0  0  0  0  0  0  0  0  0  0  0
   37.2126   10.5422   12.5437 C   0  0  0  0  0  0  0  0  0  0  0  0
   38.3995   11.1464   12.7860 C   0  0  0  0  0  0  0  0  0  0  0  0
   38.7328   12.2704   12.0455 C   0  0  0  0  0  0  0  0  0  0  0  0
   40.3014   12.9533   12.4417 S   0  0  0  0  0  6  0  0  0  0  0  0
   41.3118   11.7147   11.9059 N   0  0  0  0  0  0  0  0  0  0  0  0
   40.5516   14.0680   11.5608 O   0  0  0  0  0  0  0  0  0  0  0  0
   40.4145   13.0140   13.8795 O   0  0  0  0  0  0  0  0  0  0  0  0
   37.8878   12.8369   11.0474 C   0  0  0  0  0  0  0  0  0  0  0  0
  1  2  1  0
  2  3  1  0
  2  4  1  0
  2  5  1  0
  5  6  1  0
  6  7  2  0
  6  8  1  0
  8  9  1  0
  9 10  1  0
 10 11  2  0
 11 12  1  0
 12 13  2  0
 13 14  1  0
 14 15  1  0
 15 16  1  0
 15 17  2  0
 15 18  2  0
 14 19  2  0
 19 10  1  0
A    1
 C1 
A    2
 C2 
A    3
 C3 
A    4
 C4 
A    5
 O1 
A    6
 C5 
A    7
 O2 
A    8
 C6 
A    9
 O3 
A   10
 C7 
A   11
 C8 
A   12
 C9 
A   13
 C10
A   14
 C11
A   15
 S1 
A   16
 N1 
A   17
 O4 
A   18
 O5 
A   19
 C12
M  END
>  <ref_pdb>  (36) 
Ax0310a

>  <ref_mols>  (36) 
Ax0446a,Ax1080a,Ax0812a,Ax0719a,Ax1140a,Ax0528a,Ax0310a

>  <original SMILES>  (36) 
CC(C)(C)OC(=O)COc1cccc(S(N)(=O)=O)c1

>  <rationale>  (36) 
info info set:sulfonimide_whole;hbond:S87+G127; hydroph_interaction:P107+V84+L131; 

>  <experiment>  (36) 
sulfonimide_whole

>  <cluster_label>  (36) 
17

>  <cluster_rank>  (36) 
2

>  <N_interactions>  (36) 
6

>  <∆∆G>  (36) 
-4.665717

>  <comRMSD>  (36) 
0.972646

>  <ROCS_TanimotoCombo>  (36) 
0.368

>  <ROCS_ShapeTanimoto>  (36) 
0.251

>  <ROCS_ColorTanimoto>  (36) 
0.118

$$$$
Z56881412
     RDKit          3D

 25 29  0  0  0  0  0  0  0  0999 V2000
   30.2640    8.5962    8.1720 C   0  0  0  0  0  0  0  0  0  0  0  0
   31.2851    9.4907    7.5427 C   0  0  0  0  0  0  0  0  0  0  0  0
   31.0646   10.7930    8.0611 N   0  0  0  0  0  0  0  0  0  0  0  0
   31.9420   11.7067    7.6325 C   0  0  0  0  0  0  0  0  0  0  0  0
   31.6752   12.8405    8.2088 N   0  0  0  0  0  0  0  0  0  0  0  0
   32.5762   13.5362    8.9145 N   0  0  0  0  0  0  0  0  0  0  0  0
   31.9071   14.5205    9.3978 N   0  0  0  0  0  0  0  0  0  0  0  0
   30.6388   14.3685    8.9507 C   0  0  0  0  0  0  0  0  0  0  0  0
   29.5524   15.2934    9.3346 C   0  0  0  0  0  0  0  0  0  0  0  0
   28.1517   14.9249    8.7117 C   0  0  0  0  0  0  0  0  0  0  0  0
   27.0544   15.7688    9.1227 C   0  0  0  0  0  0  0  0  0  0  0  0
   28.1907   13.6673    7.7185 C   0  0  0  0  0  0  0  0  0  0  0  0
   27.0000   13.1739    6.9194 C   0  0  0  0  0  0  0  0  0  0  0  0
   29.2729   12.9124    7.4826 C   0  0  0  0  0  0  0  0  0  0  0  0
   30.5061   13.3293    8.1703 C   0  0  0  0  0  0  0  0  0  0  0  0
   33.0218   11.4306    6.7093 C   0  0  0  0  0  0  0  0  0  0  0  0
   34.0681   12.2478    6.1531 C   0  0  0  0  0  0  0  0  0  0  0  0
   34.9359   11.5053    5.2931 C   0  0  0  0  0  0  0  0  0  0  0  0
   34.3991    9.8718    5.1850 S   0  0  0  0  0  0  0  0  0  0  0  0
   33.0847   10.1197    6.2789 C   0  0  0  0  0  0  0  0  0  0  0  0
   32.2433    9.1163    6.6628 N   0  0  0  0  0  0  0  0  0  0  0  0
   36.1185   12.1290    4.6388 C   0  0  0  0  0  0  0  0  0  0  0  0
   36.6207   13.1514    5.4698 C   0  0  0  0  0  0  0  0  0  0  0  0
   35.6732   14.0422    6.2969 C   0  0  0  0  0  0  0  0  0  0  0  0
   34.3213   13.7119    6.4000 C   0  0  0  0  0  0  0  0  0  0  0  0
  1  2  1  0
  2  3  2  0
  3  4  1  0
  4  5  1  0
  5  6  1  0
  6  7  2  0
  7  8  1  0
  8  9  2  0
  9 10  1  0
 10 11  1  0
 10 12  2  0
 12 13  1  0
 12 14  1  0
 14 15  2  0
  4 16  2  0
 16 17  1  0
 17 18  2  0
 18 19  1  0
 19 20  1  0
 20 21  2  0
 18 22  1  0
 22 23  1  0
 23 24  1  0
 24 25  1  0
 21  2  1  0
 15  5  1  0
 20 16  1  0
 15  8  1  0
 25 17  1  0
A    1
 C1 
A    2
 C2 
A    3
 N1 
A    4
 C3 
A    5
 N2 
A    6
 N3 
A    7
 N4 
A    8
 C4 
A    9
 C5 
A   10
 C6 
A   11
 C7 
A   12
 C8 
A   13
 C9 
A   14
 C10
A   15
 C11
A   16
 C12
A   17
 C13
A   18
 C14
A   19
 S1 
A   20
 C15
A   21
 N5 
A   22
 C16
A   23
 C17
A   24
 C18
A   25
 C19
M  END
>  <ref_pdb>  (37) 
Ax0310a

>  <ref_mols>  (37) 
Ax0446a,Ax1080a,Ax0812a,Ax0719a,Ax1140a,Ax0528a,Ax0310a

>  <original SMILES>  (37) 
Cc1nc(-n2nnc3cc(C)c(C)cc32)c2c3c(sc2n1)CCCC3

>  <rationale>  (37) 
info info set:screening_whole;hbond:S87+S105+G127; hydroph_interaction:Y89+Y90+V124+H21+E85; 

>  <experiment>  (37) 
screening_whole

>  <cluster_label>  (37) 
9

>  <cluster_rank>  (37) 
2

>  <N_interactions>  (37) 
9

>  <∆∆G>  (37) 
-5.629875

>  <comRMSD>  (37) 
0.818349

>  <ROCS_TanimotoCombo>  (37) 
0.463

>  <ROCS_ShapeTanimoto>  (37) 
0.271

>  <ROCS_ColorTanimoto>  (37) 
0.191

$$$$
EN300_26666437
     RDKit          3D

 25 27  0  0  0  0  0  0  0  0999 V2000
   33.5305   15.0909    9.9116 C   0  0  0  0  0  0  0  0  0  0  0  0
   34.4208   14.0153    9.2801 C   0  0  0  0  0  0  0  0  0  0  0  0
   35.0537   14.5077    8.0235 C   0  0  0  0  0  0  0  0  0  0  0  0
   35.6241   13.4109   10.0791 C   0  0  0  0  0  0  0  0  0  0  0  0
   33.4384   13.0310    8.9995 O   0  0  0  0  0  0  0  0  0  0  0  0
   32.2157   13.6387    8.9022 C   0  0  0  0  0  0  0  0  0  0  0  0
   31.9618   14.6857    9.4802 O   0  0  0  0  0  0  0  0  0  0  0  0
   31.2637   12.9648    8.0803 N   0  0  0  0  0  0  0  0  0  0  0  0
   30.0123   13.4120    7.9240 C   0  0  0  0  0  0  0  0  0  0  0  0
   29.2363   12.9867    6.6875 C   0  0  0  0  0  0  0  0  0  0  0  0
   27.8123   13.5318    6.5464 C   0  0  0  0  0  0  0  0  0  0  0  0
   27.3961   14.4431    7.7104 C   0  0  0  0  0  0  0  0  0  0  0  0
   28.1727   14.7634    8.7861 C   0  0  0  0  0  0  0  0  0  0  0  0
   29.4552   14.2599    8.8953 C   0  0  0  0  0  0  0  0  0  0  0  0
   31.5591   11.6371    7.6950 C   0  0  0  0  0  0  0  0  0  0  0  0
   30.8277   10.6741    8.2630 N   0  0  0  0  0  0  0  0  0  0  0  0
   31.1153    9.4389    7.9216 C   0  0  0  0  0  0  0  0  0  0  0  0
   30.1879    8.1820    8.6911 S   0  0  0  0  0  0  0  0  0  0  0  0
   32.0528    9.0749    7.0541 N   0  0  0  0  0  0  0  0  0  0  0  0
   32.7663   10.0447    6.4970 C   0  0  0  0  0  0  0  0  0  0  0  0
   33.7436    9.7008    5.6040 C   0  0  0  0  0  0  0  0  0  0  0  0
   34.6486   10.7256    4.9006 C   0  0  0  0  0  0  0  0  0  0  0  0
   34.3967   12.0645    5.2418 C   0  0  0  0  0  0  0  0  0  0  0  0
   33.4327   12.4136    6.1165 C   0  0  0  0  0  0  0  0  0  0  0  0
   32.5785   11.3792    6.7756 C   0  0  0  0  0  0  0  0  0  0  0  0
  1  2  1  0
  2  3  1  0
  2  4  1  0
  2  5  1  0
  5  6  1  0
  6  7  2  0
  6  8  1  0
  8  9  1  0
  9 10  2  0
 10 11  1  0
 11 12  2  0
 12 13  1  0
 13 14  2  0
  8 15  1  0
 15 16  2  0
 16 17  1  0
 17 18  1  0
 17 19  2  0
 19 20  1  0
 20 21  2  0
 21 22  1  0
 22 23  2  0
 23 24  1  0
 24 25  2  0
 14  9  1  0
 25 15  1  0
 25 20  1  0
A    1
 C1 
A    2
 C2 
A    3
 C3 
A    4
 C4 
A    5
 O1 
A    6
 C5 
A    7
 O2 
A    8
 N1 
A    9
 C6 
A   10
 C7 
A   11
 C8 
A   12
 C9 
A   13
 C10
A   14
 C11
A   15
 C12
A   16
 N2 
A   17
 C13
A   18
 S1 
A   19
 N3 
A   20
 C14
A   21
 C15
A   22
 C16
A   23
 C17
A   24
 C18
A   25
 C19
M  END
>  <ref_pdb>  (38) 
Ax0310a

>  <ref_mols>  (38) 
Ax0446a,Ax1080a,Ax0812a,Ax0719a,Ax1140a,Ax0528a,Ax0310a

>  <original SMILES>  (38) 
CC(C)(C)OC(=O)N(c1ccccc1)c1nc(S)nc2ccccc12

>  <rationale>  (38) 
info info set:bb_whole;hbond:S87+S105+G127; hydroph_interaction:P107+Y89+Y90+V84; 

>  <experiment>  (38) 
bb_whole

>  <cluster_label>  (38) 
3

>  <cluster_rank>  (38) 
2

>  <N_interactions>  (38) 
7

>  <∆∆G>  (38) 
-11.511835

>  <comRMSD>  (38) 
0.6428

>  <ROCS_TanimotoCombo>  (38) 
0.423

>  <ROCS_ShapeTanimoto>  (38) 
0.272

>  <ROCS_ColorTanimoto>  (38) 
0.152

$$$$
EN300_107669
     RDKit          3D

 16 16  0  0  0  0  0  0  0  0999 V2000
   30.1303    8.9851    8.8381 C   0  0  0  0  0  0  0  0  0  0  0  0
   30.9913    9.9153    7.9671 C   0  0  0  0  0  0  0  0  0  0  0  0
   31.9429    8.9812    7.2524 C   0  0  0  0  0  0  0  0  0  0  0  0
   32.9908    9.5412    6.3015 C   0  0  0  0  0  0  0  0  0  0  0  0
   32.9908   11.0631    6.1529 C   0  0  0  0  0  0  0  0  0  0  0  0
   34.1952   11.7943    5.1013 S   0  0  0  0  0  6  0  0  0  0  0  0
   33.4400   11.7651    3.6064 N   0  0  0  0  0  0  0  0  0  0  0  0
   35.3064   10.8817    4.9911 O   0  0  0  0  0  0  0  0  0  0  0  0
   34.3385   13.1852    5.4528 O   0  0  0  0  0  0  0  0  0  0  0  0
   32.0595   11.8649    6.8415 C   0  0  0  0  0  0  0  0  0  0  0  0
   31.0118   11.3119    7.7809 C   0  0  0  0  0  0  0  0  0  0  0  0
   30.1482   12.1281    8.4103 N   0  0  0  0  0  0  0  0  0  0  0  0
   30.3579   13.4010    8.9264 C   0  0  0  0  0  0  0  0  0  0  0  0
   31.5873   14.1513    9.0949 O   0  0  0  0  0  0  0  0  0  0  0  0
   29.1474   14.1910    9.4107 C   0  0  0  0  0  0  0  0  0  0  0  0
   28.3093   14.9817    8.0658 Cl  0  0  0  0  0  0  0  0  0  0  0  0
  1  2  1  0
  2  3  2  0
  3  4  1  0
  4  5  2  0
  5  6  1  0
  6  7  1  0
  6  8  2  0
  6  9  2  0
  5 10  1  0
 10 11  2  0
 11 12  1  0
 12 13  1  0
 13 14  2  0
 13 15  1  0
 15 16  1  0
 11  2  1  0
A    1
 C1 
A    2
 C2 
A    3
 C3 
A    4
 C4 
A    5
 C5 
A    6
 S1 
A    7
 N1 
A    8
 O1 
A    9
 O2 
A   10
 C6 
A   11
 C7 
A   12
 N2 
A   13
 C8 
A   14
 O3 
A   15
 C9 
A   16
CL1 
M  END
>  <ref_pdb>  (39) 
Ax0310a

>  <ref_mols>  (39) 
Ax0446a,Ax1080a,Ax0812a,Ax0719a,Ax1140a,Ax0528a,Ax0310a

>  <original SMILES>  (39) 
Cc1ccc(S(N)(=O)=O)cc1NC(=O)CCl

>  <rationale>  (39) 
info info set:sulfonimide_whole;halogenbond:E88; hbond:S87; hydroph_interaction:V124; 

>  <experiment>  (39) 
sulfonimide_whole

>  <cluster_label>  (39) 
7

>  <cluster_rank>  (39) 
2

>  <N_interactions>  (39) 
3

>  <∆∆G>  (39) 
-8.940783

>  <comRMSD>  (39) 
0.405766

>  <ROCS_TanimotoCombo>  (39) 
0.357

>  <ROCS_ShapeTanimoto>  (39) 
0.217

>  <ROCS_ColorTanimoto>  (39) 
0.14

$$$$
Z3714214241
     RDKit          3D

 17 18  0  0  0  0  0  0  0  0999 V2000
   34.7396    9.2064    4.2094 C   0  0  0  0  0  0  0  0  0  0  0  0
   34.1245    8.8980    5.4044 N   0  0  0  0  0  0  0  0  0  0  0  0
   33.1544    9.6002    6.1393 C   0  0  0  0  0  0  0  0  0  0  0  0
   33.0970   10.9809    6.1023 C   0  0  0  0  0  0  0  0  0  0  0  0
   32.1525   11.6963    6.8263 C   0  0  0  0  0  0  0  0  0  0  0  0
   31.2298   11.0176    7.6166 C   0  0  0  0  0  0  0  0  0  0  0  0
   30.2561   11.7289    8.3507 N   0  0  0  0  0  0  0  0  0  0  0  0
   29.5715   12.8676    7.9109 C   0  0  0  0  0  0  0  0  0  0  0  0
   29.6926   13.0934    6.5889 N   0  0  0  0  0  0  0  0  0  0  0  0
   29.0631   14.1461    6.0954 C   0  0  0  0  0  0  0  0  0  0  0  0
   28.3424   14.9887    6.8025 N   0  0  0  0  0  0  0  0  0  0  0  0
   28.2471   14.7568    8.0828 C   0  0  0  0  0  0  0  0  0  0  0  0
   27.4403   15.6703    9.0302 C   0  0  0  0  0  0  0  0  0  0  0  0
   28.7987   13.7705    8.6920 C   0  0  0  0  0  0  0  0  0  0  0  0
   28.2610   14.0396   10.4823 Br  0  0  0  0  0  0  0  0  0  0  0  0
   31.3400    9.6296    7.6109 C   0  0  0  0  0  0  0  0  0  0  0  0
   32.2660    8.9281    6.9026 N   0  0  0  0  0  0  0  0  0  0  0  0
  1  2  1  0
  2  3  1  0
  3  4  2  0
  4  5  1  0
  5  6  2  0
  6  7  1  0
  7  8  1  0
  8  9  2  0
  9 10  1  0
 10 11  2  0
 11 12  1  0
 12 13  1  0
 12 14  2  0
 14 15  1  0
  6 16  1  0
 16 17  2  0
 17  3  1  0
 14  8  1  0
A    1
 C1 
A    2
 N1 
A    3
 C2 
A    4
 C3 
A    5
 C4 
A    6
 C5 
A    7
 N2 
A    8
 C6 
A    9
 N3 
A   10
 C7 
A   11
 N4 
A   12
 C8 
A   13
 C9 
A   14
 C10
A   15
BR1 
A   16
 C11
A   17
 N5 
M  END
>  <ref_pdb>  (40) 
Ax0310a

>  <ref_mols>  (40) 
Ax0446a,Ax1080a,Ax0812a,Ax0719a,Ax1140a,Ax0528a,Ax0310a

>  <original SMILES>  (40) 
CNc1ccc(Nc2ncnc(C)c2Br)cn1

>  <rationale>  (40) 
info info set:screening_pocket;halogenbond:S125+D39; hbond:S105+S125; hydroph_interaction:Y89+Y90+H21; pistack:H21; 

>  <experiment>  (40) 
screening_pocket

>  <cluster_label>  (40) 
18

>  <cluster_rank>  (40) 
3

>  <N_interactions>  (40) 
8

>  <∆∆G>  (40) 
-3.191017

>  <comRMSD>  (40) 
0.567545

>  <ROCS_TanimotoCombo>  (40) 
0.628

>  <ROCS_ShapeTanimoto>  (40) 
0.229

>  <ROCS_ColorTanimoto>  (40) 
0.399

$$$$
Z2057627275
     RDKit          3D

 19 20  0  0  0  0  0  0  0  0999 V2000
   28.9133   16.7688    8.2932 C   0  0  0  0  0  0  0  0  0  0  0  0
   28.4325   15.7558    7.4777 O   0  0  0  0  0  0  0  0  0  0  0  0
   27.7600   14.9690    8.2676 C   0  0  1  0  0  0  0  0  0  0  0  0
   27.8206   13.6112    7.6712 C   0  0  0  0  0  0  0  0  0  0  0  0
   28.8542   12.9666    8.5299 C   0  0  1  0  0  0  0  0  0  0  0  0
   30.0043   12.4226    7.6682 C   0  0  0  0  0  0  0  0  0  0  0  0
   30.3853   13.1499    6.4960 O   0  0  0  0  0  0  0  0  0  0  0  0
   30.3844   11.2854    8.2662 N   0  0  0  0  0  0  0  0  0  0  0  0
   31.3416   10.7543    7.5068 C   0  0  0  0  0  0  0  0  0  0  0  0
   32.2296   11.6621    6.7135 C   0  0  0  0  0  0  0  0  0  0  0  0
   33.1941   11.0820    5.9291 C   0  0  0  0  0  0  0  0  0  0  0  0
   33.2713    9.5546    5.9449 C   0  0  0  0  0  0  0  0  0  0  0  0
   34.3462    8.9223    5.0663 C   0  0  0  0  0  0  0  0  0  0  0  0
   32.4327    8.7644    6.7026 N   0  0  0  0  0  0  0  0  0  0  0  0
   31.5145    9.4080    7.4396 C   0  0  0  0  0  0  0  0  0  0  0  0
   30.6847    8.6389    8.1820 O   0  0  0  0  0  0  0  0  0  0  0  0
   29.3772   13.8292    9.5939 N   0  0  0  0  0  0  0  0  0  0  0  0
   30.8003   14.1960    9.5495 C   0  0  0  0  0  0  0  0  0  0  0  0
   28.5173   14.9889    9.5758 C   0  0  0  0  0  0  0  0  0  0  0  0
  1  2  1  0
  3  2  1  6
  3  4  1  0
  4  5  1  0
  5  6  1  6
  6  7  2  0
  6  8  1  0
  8  9  1  0
  9 10  2  0
 10 11  1  0
 11 12  2  0
 12 13  1  0
 12 14  1  0
 14 15  2  0
 15 16  1  0
  5 17  1  0
 17 18  1  0
 17 19  1  0
 19  3  1  0
 15  9  1  0
A    1
 C1 
A    2
 O1 
A    3
 C2 
A    4
 C3 
A    5
 C4 
A    6
 C5 
A    7
 O2 
A    8
 N1 
A    9
 C6 
A   10
 C7 
A   11
 C8 
A   12
 C9 
A   13
 C10
A   14
 N2 
A   15
 C11
A   16
 O3 
A   17
 N3 
A   18
 C12
A   19
 C13
M  END
>  <ref_pdb>  (41) 
Ax0310a

>  <ref_mols>  (41) 
Ax0446a,Ax1080a,Ax0812a,Ax0719a,Ax1140a,Ax0528a,Ax0310a

>  <original SMILES>  (41) 
CO[C@H]1C[C@@H](C(=O)Nc2ccc(C)nc2O)N(C)C1

>  <rationale>  (41) 
info info set:screening_pocket;hbond:S87+S105+S125; saltbridge:D39; 

>  <experiment>  (41) 
screening_pocket

>  <cluster_label>  (41) 
19

>  <cluster_rank>  (41) 
3

>  <N_interactions>  (41) 
4

>  <∆∆G>  (41) 
-2.620226

>  <comRMSD>  (41) 
0.55574

>  <ROCS_TanimotoCombo>  (41) 
0.631

>  <ROCS_ShapeTanimoto>  (41) 
0.248

>  <ROCS_ColorTanimoto>  (41) 
0.383

$$$$
EN300_6511692
     RDKit          3D

 15 15  0  0  0  0  0  0  0  0999 V2000
   34.8319    7.1539    3.3327 C   0  0  0  0  0  0  0  0  0  0  0  0
   35.3871    8.0817    4.4235 C   0  0  0  0  0  0  0  0  0  0  0  0
   34.5769    9.2892    4.4446 N   0  0  0  0  0  0  0  0  0  0  0  0
   33.5981    9.7043    5.3930 C   0  0  0  0  0  0  0  0  0  0  0  0
   32.9133    8.9133    6.2684 N   0  0  0  0  0  0  0  0  0  0  0  0
   31.9660    9.4749    7.0910 C   0  0  0  0  0  0  0  0  0  0  0  0
   31.6410   10.9268    7.0862 C   0  0  0  0  0  0  0  0  0  0  0  0
   30.5770   11.3667    8.0260 C   0  0  0  0  0  0  0  0  0  0  0  0
   30.1582   10.6262    8.8749 O   0  0  0  0  0  0  0  0  0  0  0  0
   30.2167   12.6558    7.7263 O   0  0  0  0  0  0  0  0  0  0  0  0
   29.1887   13.3071    8.5082 C   0  0  0  0  0  0  0  0  0  0  0  0
   28.4329   14.3588    7.6598 C   0  0  0  0  0  0  0  0  0  0  0  0
   32.3101   11.7575    6.2438 C   0  0  0  0  0  0  0  0  0  0  0  0
   33.3604   11.2151    5.3100 C   0  0  0  0  0  0  0  0  0  0  0  0
   34.2152   12.2407    4.2225 Cl  0  0  0  0  0  0  0  0  0  0  0  0
  1  2  1  0
  2  3  1  0
  3  4  1  0
  4  5  2  0
  5  6  1  0
  6  7  2  0
  7  8  1  0
  8  9  2  0
  8 10  1  0
 10 11  1  0
 11 12  1  0
  7 13  1  0
 13 14  2  0
 14 15  1  0
 14  4  1  0
A    1
 C1 
A    2
 C2 
A    3
 N1 
A    4
 C3 
A    5
 N2 
A    6
 C4 
A    7
 C5 
A    8
 C6 
A    9
 O1 
A   10
 O2 
A   11
 C7 
A   12
 C8 
A   13
 C9 
A   14
 C10
A   15
CL1 
M  END
>  <ref_pdb>  (42) 
Ax0310a

>  <ref_mols>  (42) 
Ax0446a,Ax1080a,Ax0812a,Ax0719a,Ax1140a,Ax0528a,Ax0310a

>  <original SMILES>  (42) 
CCNc1ncc(C(=O)OCC)cc1Cl

>  <rationale>  (42) 
info info set:bb_densepocket2;hydroph_interaction:P107+E106; 

>  <experiment>  (42) 
bb_densepocket2

>  <cluster_label>  (42) 
4

>  <cluster_rank>  (42) 
3

>  <N_interactions>  (42) 
2

>  <∆∆G>  (42) 
-3.906067

>  <comRMSD>  (42) 
0.909196

>  <ROCS_TanimotoCombo>  (42) 
0.63

>  <ROCS_ShapeTanimoto>  (42) 
0.234

>  <ROCS_ColorTanimoto>  (42) 
0.397

$$$$
Z8820654813
     RDKit          3D

 20 22  0  0  0  0  0  0  0  0999 V2000
   28.3528   14.1792    5.2413 C   0  0  0  0  0  0  0  0  0  0  0  0
   28.4278   15.0278    6.3796 O   0  0  0  0  0  0  0  0  0  0  0  0
   28.0287   14.4039    7.4572 C   0  0  0  0  0  0  0  0  0  0  0  0
   26.8642   14.5551    8.4451 C   0  0  0  0  0  0  0  0  0  0  0  0
   26.7332   13.6014    9.6373 C   0  0  0  0  0  0  0  0  0  0  0  0
   25.6621   13.5480   10.7221 C   0  0  0  0  0  0  0  0  0  0  0  0
   27.6274   12.7091    9.7667 N   0  0  0  0  0  0  0  0  0  0  0  0
   28.6004   12.6071    8.8689 C   0  0  0  0  0  0  0  0  0  0  0  0
   28.8296   13.4030    7.7480 C   0  0  0  0  0  0  0  0  0  0  0  0
   30.0580   12.8513    7.1046 C   0  0  0  0  0  0  0  0  0  0  0  0
   30.2758   11.6024    7.7895 N   0  0  0  0  0  0  0  0  0  0  0  0
   31.2134   10.7905    7.2476 C   0  0  0  0  0  0  0  0  0  0  0  0
   31.3696    9.3080    7.5578 C   0  0  0  0  0  0  0  0  0  0  0  0
   32.3332    8.5730    6.9344 N   0  0  0  0  0  0  0  0  0  0  0  0
   33.1567    9.2649    5.9963 C   0  0  0  0  0  0  0  0  0  0  0  0
   34.1877    8.7526    5.2268 N   0  0  0  0  0  0  0  0  0  0  0  0
   34.7260    9.7618    4.4590 C   0  0  0  0  0  0  0  0  0  0  0  0
   34.0109   10.8789    4.7686 C   0  0  0  0  0  0  0  0  0  0  0  0
   33.0480   10.5938    5.7017 C   0  0  0  0  0  0  0  0  0  0  0  0
   32.0796   11.3899    6.3183 C   0  0  0  0  0  0  0  0  0  0  0  0
  1  2  1  0
  2  3  1  0
  3  4  2  0
  4  5  1  0
  5  6  1  0
  5  7  2  0
  7  8  1  0
  8  9  2  0
  9 10  1  0
 10 11  1  0
 11 12  1  0
 12 13  2  0
 13 14  1  0
 14 15  2  0
 15 16  1  0
 16 17  1  0
 17 18  2  0
 18 19  1  0
 19 20  2  0
  9  3  1  0
 20 12  1  0
 19 15  1  0
A    1
 C1 
A    2
 O1 
A    3
 C2 
A    4
 C3 
A    5
 C4 
A    6
 C5 
A    7
 N1 
A    8
 C6 
A    9
 C7 
A   10
 C8 
A   11
 N2 
A   12
 C9 
A   13
 C10
A   14
 N3 
A   15
 C11
A   16
 N4 
A   17
 C12
A   18
 C13
A   19
 C14
A   20
 C15
M  END
>  <ref_pdb>  (43) 
Ax0310a

>  <ref_mols>  (43) 
Ax0446a,Ax1080a,Ax0812a,Ax0719a,Ax1140a,Ax0528a,Ax0310a

>  <original SMILES>  (43) 
COc1cc(C)ncc1CNc1cnc2[nH]ccc2c1

>  <rationale>  (43) 
info info set:screening_pocket;hbond:S105+S125; hydroph_interaction:P107+Y89+N19; pistack:Y90; 

>  <experiment>  (43) 
screening_pocket

>  <cluster_label>  (43) 
13

>  <cluster_rank>  (43) 
3

>  <N_interactions>  (43) 
6

>  <∆∆G>  (43) 
-0.411458

>  <comRMSD>  (43) 
0.737383

>  <ROCS_TanimotoCombo>  (43) 
0.633

>  <ROCS_ShapeTanimoto>  (43) 
0.241

>  <ROCS_ColorTanimoto>  (43) 
0.393

$$$$
Z910841134
     RDKit          3D

 16 16  0  0  0  0  0  0  0  0999 V2000
   28.0742   14.2312    8.9555 C   0  0  0  0  0  0  0  0  0  0  0  0
   29.2432   14.5463    8.0888 C   0  0  0  0  0  0  0  0  0  0  0  0
   29.8160   13.2156    7.5223 C   0  0  0  0  0  0  0  0  0  0  0  0
   29.4178   12.7483    6.2770 O   0  0  0  0  0  0  0  0  0  0  0  0
   30.7237   12.5688    8.2587 N   0  0  0  0  0  0  0  0  0  0  0  0
   31.3612   13.4799    8.9895 C   0  0  0  0  0  0  0  0  0  0  0  0
   31.4720   11.4948    7.6714 C   0  0  0  0  0  0  0  0  0  0  0  0
   30.9554   10.1012    7.7391 C   0  0  0  0  0  0  0  0  0  0  0  0
   29.8429    9.7545    8.3416 F   0  0  0  0  0  0  0  0  0  0  0  0
   31.7252    9.0684    7.1008 C   0  0  0  0  0  0  0  0  0  0  0  0
   32.9991    9.3309    6.3642 C   0  0  0  0  0  0  0  0  0  0  0  0
   33.4307   10.6471    6.3641 C   0  0  0  0  0  0  0  0  0  0  0  0
   32.7090   11.6829    7.0057 C   0  0  0  0  0  0  0  0  0  0  0  0
   33.3327   12.9115    6.9383 C   0  0  0  0  0  0  0  0  0  0  0  0
   33.4952   13.6500    7.9011 O   0  0  0  0  0  0  0  0  0  0  0  0
   33.7847   13.2182    5.7200 O   0  0  0  0  0  0  0  0  0  0  0  0
  1  2  1  0
  2  3  1  0
  3  4  2  0
  3  5  1  0
  5  6  1  0
  5  7  1  0
  7  8  2  0
  8  9  1  0
  8 10  1  0
 10 11  2  0
 11 12  1  0
 12 13  2  0
 13 14  1  0
 14 15  2  0
 14 16  1  0
 13  7  1  0
A    1
 C1 
A    2
 C2 
A    3
 C3 
A    4
 O1 
A    5
 N1 
A    6
 C4 
A    7
 C5 
A    8
 C6 
A    9
 F1 
A   10
 C7 
A   11
 C8 
A   12
 C9 
A   13
 C10
A   14
 C11
A   15
 O2 
A   16
 O3 
M  END
>  <ref_pdb>  (44) 
Ax0310a

>  <ref_mols>  (44) 
Ax0446a,Ax1080a,Ax0812a,Ax0719a,Ax1140a,Ax0528a,Ax0310a

>  <original SMILES>  (44) 
CCC(=O)N(C)c1c(F)cccc1C(=O)O

>  <rationale>  (44) 
info info set:3d;halogenbond:C110; hbond:G127; 

>  <experiment>  (44) 
3d

>  <cluster_label>  (44) 
2

>  <cluster_rank>  (44) 
3

>  <N_interactions>  (44) 
2

>  <∆∆G>  (44) 
-3.357941

>  <comRMSD>  (44) 
0.748709

>  <ROCS_TanimotoCombo>  (44) 
0.334

>  <ROCS_ShapeTanimoto>  (44) 
0.221

>  <ROCS_ColorTanimoto>  (44) 
0.113

$$$$
Z2060926323
     RDKit          3D

 16 17  0  0  0  0  0  0  0  0999 V2000
   30.2243   10.0231    8.5540 C   0  0  0  0  0  0  0  0  0  0  0  0
   31.2685   10.0870    7.5437 C   0  0  0  0  0  0  0  0  0  0  0  0
   31.9176    8.9487    7.2895 N   0  0  0  0  0  0  0  0  0  0  0  0
   32.8688    9.0438    6.3479 N   0  0  0  0  0  0  0  0  0  0  0  0
   32.7827   10.3579    6.0083 C   0  0  0  0  0  0  0  0  0  0  0  0
   31.8010   11.0684    6.7162 C   0  0  0  0  0  0  0  0  0  0  0  0
   31.5248   12.4204    6.5392 C   0  0  0  0  0  0  0  0  0  0  0  0
   30.3864   12.8697    6.4196 O   0  0  0  0  0  0  0  0  0  0  0  0
   32.6700   13.1853    6.5177 N   0  0  0  0  0  0  0  0  0  0  0  0
   33.1164   13.8351    5.2697 C   0  0  0  0  0  0  0  0  0  0  0  0
   34.4909   14.2660    5.6766 C   0  0  1  0  0  0  0  0  0  0  0  0
   34.4565   15.2844    6.5384 F   0  0  0  0  0  0  0  0  0  0  0  0
   34.9354   13.3221    6.5073 C   0  0  0  0  0  0  0  0  0  0  0  0
   33.8768   12.8135    7.2556 C   0  0  1  0  0  0  0  0  0  0  0  0
   33.7666   13.1978    8.5707 C   0  0  0  0  0  0  0  0  0  0  0  0
   33.5539   14.5591    8.7585 O   0  0  0  0  0  0  0  0  0  0  0  0
  1  2  1  0
  2  3  1  0
  3  4  1  0
  4  5  2  0
  5  6  1  0
  6  7  1  0
  7  8  2  0
  7  9  1  0
  9 10  1  0
 10 11  1  0
 11 12  1  1
 11 13  1  0
 13 14  1  0
 14 15  1  1
 15 16  1  0
  6  2  2  0
 14  9  1  0
A    1
 C1 
A    2
 C2 
A    3
 N1 
A    4
 N2 
A    5
 C3 
A    6
 C4 
A    7
 C5 
A    8
 O1 
A    9
 N3 
A   10
 C6 
A   11
 C7 
A   12
 F1 
A   13
 C8 
A   14
 C9 
A   15
 C10
A   16
 O2 
M  END
>  <ref_pdb>  (45) 
Ax0310a

>  <ref_mols>  (45) 
Ax0446a,Ax1080a,Ax0812a,Ax0719a,Ax1140a,Ax0528a,Ax0310a

>  <original SMILES>  (45) 
Cc1[nH]ncc1C(=O)N1C[C@@H](F)C[C@H]1CO

>  <rationale>  (45) 
info info set:3d;halogenbond:E85; hydroph_interaction:P107; 

>  <experiment>  (45) 
3d

>  <cluster_label>  (45) 
1

>  <cluster_rank>  (45) 
3

>  <N_interactions>  (45) 
2

>  <∆∆G>  (45) 
-2.826654

>  <comRMSD>  (45) 
0.923624

>  <ROCS_TanimotoCombo>  (45) 
0.335

>  <ROCS_ShapeTanimoto>  (45) 
0.2

>  <ROCS_ColorTanimoto>  (45) 
0.135

$$$$
Z4351154733
     RDKit          3D

 16 17  0  0  0  0  0  0  0  0999 V2000
   30.3910    8.8880    9.7447 C   0  0  0  0  0  0  0  0  0  0  0  0
   30.4963    8.4517    8.4653 C   0  0  0  0  0  0  0  0  0  0  0  0
   29.2248    7.8186    8.4075 C   0  0  0  0  0  0  0  0  0  0  0  0
   30.4759    9.5709    7.8162 N   0  0  0  0  0  0  0  0  0  0  0  0
   31.4849    9.9260    7.0922 C   0  0  0  0  0  0  0  0  0  0  0  0
   32.3997    9.0398    6.6292 N   0  0  0  0  0  0  0  0  0  0  0  0
   33.4033    9.4903    5.8549 C   0  0  0  0  0  0  0  0  0  0  0  0
   33.4823   10.9740    5.5423 C   0  0  0  0  0  0  0  0  0  0  0  0
   32.4148   11.8779    6.1238 C   0  0  0  0  0  0  0  0  0  0  0  0
   31.4309   11.3070    6.8911 C   0  0  0  0  0  0  0  0  0  0  0  0
   30.3344   11.9355    7.5239 N   0  0  0  0  0  0  0  0  0  0  0  0
   30.2940   13.1587    8.1090 C   0  0  0  0  0  0  0  0  0  0  0  0
   31.2027   13.9438    8.1306 O   0  0  0  0  0  0  0  0  0  0  0  0
   28.9989   13.5297    8.7904 C   0  0  0  0  0  0  0  0  0  0  0  0
   28.8081   14.6580    9.3317 C   0  0  0  0  0  0  0  0  0  0  0  0
   28.1227   14.6344    8.0596 C   0  0  0  0  0  0  0  0  0  0  0  0
  1  2  1  0
  2  3  1  0
  2  4  1  0
  4  5  1  0
  5  6  2  0
  6  7  1  0
  7  8  2  0
  8  9  1  0
  9 10  2  0
 10 11  1  0
 11 12  1  0
 12 13  2  0
 12 14  1  0
 14 15  1  0
 15 16  1  0
 10  5  1  0
 16 14  1  0
A    1
 C1 
A    2
 C2 
A    3
 C3 
A    4
 N1 
A    5
 C4 
A    6
 N2 
A    7
 C5 
A    8
 C6 
A    9
 C7 
A   10
 C8 
A   11
 N3 
A   12
 C9 
A   13
 O1 
A   14
 C10
A   15
 C11
A   16
 C12
M  END
>  <ref_pdb>  (46) 
Ax0310a

>  <ref_mols>  (46) 
Ax0446a,Ax1080a,Ax0812a,Ax0719a,Ax1140a,Ax0528a,Ax0310a

>  <original SMILES>  (46) 
CC(C)Nc1ncccc1NC(=O)C1CC1

>  <rationale>  (46) 
info info set:screening_pocket;hbond:S87+P107; hydroph_interaction:P107+Y90+D109; 

>  <experiment>  (46) 
screening_pocket

>  <cluster_label>  (46) 
11

>  <cluster_rank>  (46) 
3

>  <N_interactions>  (46) 
5

>  <∆∆G>  (46) 
-1.356348

>  <comRMSD>  (46) 
0.826773

>  <ROCS_TanimotoCombo>  (46) 
0.662

>  <ROCS_ShapeTanimoto>  (46) 
0.229

>  <ROCS_ColorTanimoto>  (46) 
0.433

$$$$
EN300_206684
     RDKit          3D

 15 15  0  0  0  0  0  0  0  0999 V2000
   38.6407   10.9880   11.5807 N   0  0  0  0  0  0  0  0  0  0  0  0
   37.7714   12.4051   11.8524 S   0  0  0  0  0  6  0  0  0  0  0  0
   36.6251   11.9645   12.6194 O   0  0  0  0  0  0  0  0  0  0  0  0
   38.6844   13.3686   12.4086 O   0  0  0  0  0  0  0  0  0  0  0  0
   37.2343   12.9215   10.2114 C   0  0  0  0  0  0  0  0  0  0  0  0
   35.8804   13.0836   10.1270 C   0  0  0  0  0  0  0  0  0  0  0  0
   35.1873   13.7121    8.8764 C   0  0  0  0  0  0  0  0  0  0  0  0
   33.8270   13.1968    8.8203 O   0  0  0  0  0  0  0  0  0  0  0  0
   33.1280   13.2124    7.5375 C   0  0  0  0  0  0  0  0  0  0  0  0
   32.5776   11.8358    7.3747 C   0  0  0  0  0  0  0  0  0  0  0  0
   33.1962   10.7612    6.5741 C   0  0  0  0  0  0  0  0  0  0  0  0
   32.6239    9.3676    6.5229 C   0  0  0  0  0  0  0  0  0  0  0  0
   31.3843    9.0610    7.3108 C   0  0  0  0  0  0  0  0  0  0  0  0
   30.7273   10.1805    8.0997 C   0  0  0  0  0  0  0  0  0  0  0  0
   31.3918   11.5448    8.0706 C   0  0  0  0  0  0  0  0  0  0  0  0
  1  2  1  0
  2  3  2  0
  2  4  2  0
  2  5  1  0
  5  6  1  0
  6  7  1  0
  7  8  1  0
  8  9  1  0
  9 10  1  0
 10 11  2  0
 11 12  1  0
 12 13  2  0
 13 14  1  0
 14 15  2  0
 15 10  1  0
A    1
 N1 
A    2
 S1 
A    3
 O1 
A    4
 O2 
A    5
 C1 
A    6
 C2 
A    7
 C3 
A    8
 O3 
A    9
 C4 
A   10
 C5 
A   11
 C6 
A   12
 C7 
A   13
 C8 
A   14
 C9 
A   15
 C10
M  END
>  <ref_pdb>  (47) 
Ax0310a

>  <ref_mols>  (47) 
Ax0446a,Ax1080a,Ax0812a,Ax0719a,Ax1140a,Ax0528a,Ax0310a

>  <original SMILES>  (47) 
NS(=O)(=O)CCCOCc1ccccc1

>  <rationale>  (47) 
info info set:sulfonimide_joint;hbond:G127+T126+G128; hydroph_interaction:V84; 

>  <experiment>  (47) 
sulfonimide_joint

>  <cluster_label>  (47) 
15

>  <cluster_rank>  (47) 
3

>  <N_interactions>  (47) 
4

>  <∆∆G>  (47) 
-6.71242

>  <comRMSD>  (47) 
0.645834

>  <ROCS_TanimotoCombo>  (47) 
0.343

>  <ROCS_ShapeTanimoto>  (47) 
0.207

>  <ROCS_ColorTanimoto>  (47) 
0.136

$$$$
Z1082767906
     RDKit          3D

 24 26  0  0  0  0  0  0  0  0999 V2000
   35.7854   11.5421    4.5337 C   0  0  0  0  0  0  0  0  0  0  0  0
   34.5001   11.2106    5.2595 C   0  0  0  0  0  0  0  0  0  0  0  0
   34.1489    9.5943    5.6821 S   0  0  0  0  0  0  0  0  0  0  0  0
   32.7272   10.0395    6.4738 C   0  0  0  0  0  0  0  0  0  0  0  0
   31.9876    9.1294    7.1171 N   0  0  0  0  0  0  0  0  0  0  0  0
   30.9036    9.6574    7.6666 C   0  0  0  0  0  0  0  0  0  0  0  0
   30.4991   10.9266    7.6044 N   0  0  0  0  0  0  0  0  0  0  0  0
   31.2926   11.8039    6.9235 C   0  0  0  0  0  0  0  0  0  0  0  0
   30.9452   13.1262    6.7639 O   0  0  0  0  0  0  0  0  0  0  0  0
   29.8372   13.5761    7.4095 C   0  0  0  0  0  0  0  0  0  0  0  0
   28.4959   13.5227    6.7559 C   0  0  0  0  0  0  0  0  0  0  0  0
   27.5290   14.0408    7.5820 C   0  0  0  0  0  0  0  0  0  0  0  0
   27.7902   14.5991    8.9742 C   0  0  0  0  0  0  0  0  0  0  0  0
   29.0606   14.5927    9.4768 C   0  0  0  0  0  0  0  0  0  0  0  0
   30.0643   14.0690    8.6598 C   0  0  0  0  0  0  0  0  0  0  0  0
   31.2956   14.0557    9.1253 O   0  0  0  0  0  0  0  0  0  0  0  0
   31.5550   15.0404   10.0565 C   0  0  0  0  0  0  0  0  0  0  0  0
   33.0081   14.8520   10.1141 C   0  0  0  0  0  0  0  0  0  0  0  0
   33.4405   13.7073    9.5391 F   0  0  0  0  0  0  0  0  0  0  0  0
   33.7036   15.8495    9.5700 F   0  0  0  0  0  0  0  0  0  0  0  0
   33.1851   14.8436   11.3888 F   0  0  0  0  0  0  0  0  0  0  0  0
   32.4766   11.3845    6.3541 C   0  0  0  0  0  0  0  0  0  0  0  0
   33.4983   12.0661    5.6637 C   0  0  0  0  0  0  0  0  0  0  0  0
   33.4641   13.5506    5.4381 C   0  0  0  0  0  0  0  0  0  0  0  0
  1  2  1  0
  2  3  1  0
  3  4  1  0
  4  5  2  0
  5  6  1  0
  6  7  2  0
  7  8  1  0
  8  9  1  0
  9 10  1  0
 10 11  2  0
 11 12  1  0
 12 13  2  0
 13 14  1  0
 14 15  2  0
 15 16  1  0
 16 17  1  0
 17 18  1  0
 18 19  1  0
 18 20  1  0
 18 21  1  0
  8 22  2  0
 22 23  1  0
 23 24  1  0
 23  2  2  0
 22  4  1  0
 15 10  1  0
A    1
 C1 
A    2
 C2 
A    3
 S1 
A    4
 C3 
A    5
 N1 
A    6
 C4 
A    7
 N2 
A    8
 C5 
A    9
 O1 
A   10
 C6 
A   11
 C7 
A   12
 C8 
A   13
 C9 
A   14
 C10
A   15
 C11
A   16
 O2 
A   17
 C12
A   18
 C13
A   19
 F1 
A   20
 F2 
A   21
 F3 
A   22
 C14
A   23
 C15
A   24
 C16
M  END
>  <ref_pdb>  (48) 
Ax0310a

>  <ref_mols>  (48) 
Ax0446a,Ax1080a,Ax0812a,Ax0719a,Ax1140a,Ax0528a,Ax0310a

>  <original SMILES>  (48) 
Cc1sc2ncnc(Oc3ccccc3OCC(F)(F)F)c2c1C

>  <rationale>  (48) 
info info set:screening_whole;halogenbond:G127; hbond:S87; hydroph_interaction:P107+Y89+Y90; 

>  <experiment>  (48) 
screening_whole

>  <cluster_label>  (48) 
14

>  <cluster_rank>  (48) 
3

>  <N_interactions>  (48) 
5

>  <∆∆G>  (48) 
-2.424555

>  <comRMSD>  (48) 
0.791127

>  <ROCS_TanimotoCombo>  (48) 
0.462

>  <ROCS_ShapeTanimoto>  (48) 
0.247

>  <ROCS_ColorTanimoto>  (48) 
0.215

$$$$
EN300_206714
     RDKit          3D

 19 20  0  0  0  0  0  0  0  0999 V2000
   35.6102   13.1811    6.3351 C   0  0  0  0  0  0  0  0  0  0  0  0
   35.0691   13.7964    7.6252 C   0  0  0  0  0  0  0  0  0  0  0  0
   34.7154   15.1476    7.1501 C   0  0  0  0  0  0  0  0  0  0  0  0
   36.0972   13.8964    8.5769 O   0  0  0  0  0  0  0  0  0  0  0  0
   35.6706   12.9183    9.5592 B   0  0  0  0  0  0  0  0  0  0  0  0
   36.7301   12.1931   10.5162 C   0  0  0  0  0  0  0  0  0  0  0  0
   36.3859   11.0278   11.4697 C   0  0  0  0  0  0  0  0  0  0  0  0
   37.2908   10.4203   12.2962 C   0  0  0  0  0  0  0  0  0  0  0  0
   38.7120   10.8991   12.2817 C   0  0  0  0  0  0  0  0  0  0  0  0
   39.0637   12.0241   11.3320 C   0  0  0  0  0  0  0  0  0  0  0  0
   40.7028   12.5513   11.2826 S   0  0  0  0  0  6  0  0  0  0  0  0
   41.5340   12.0439   12.6921 N   0  0  0  0  0  0  0  0  0  0  0  0
   41.3450   11.8910   10.1609 O   0  0  0  0  0  0  0  0  0  0  0  0
   40.7307   14.0397   11.1191 O   0  0  0  0  0  0  0  0  0  0  0  0
   38.1729   12.6606   10.4947 C   0  0  0  0  0  0  0  0  0  0  0  0
   34.2771   12.5193    9.2490 O   0  0  0  0  0  0  0  0  0  0  0  0
   33.8183   13.1430    8.3071 C   0  0  0  0  0  0  0  0  0  0  0  0
   33.0301   12.2887    7.3711 C   0  0  0  0  0  0  0  0  0  0  0  0
   32.8776   14.0773    9.0043 C   0  0  0  0  0  0  0  0  0  0  0  0
  1  2  1  0
  2  3  1  0
  2  4  1  0
  4  5  1  0
  5  6  1  0
  6  7  2  0
  7  8  1  0
  8  9  2  0
  9 10  1  0
 10 11  1  0
 11 12  1  0
 11 13  2  0
 11 14  2  0
 10 15  2  0
  5 16  1  0
 16 17  1  0
 17 18  1  0
 17 19  1  0
 17  2  1  0
 15  6  1  0
A    1
 C1 
A    2
 C2 
A    3
 C3 
A    4
 O1 
A    5
 B1 
A    6
 C4 
A    7
 C5 
A    8
 C6 
A    9
 C7 
A   10
 C8 
A   11
 S1 
A   12
 N1 
A   13
 O2 
A   14
 O3 
A   15
 C9 
A   16
 O4 
A   17
 C10
A   18
 C11
A   19
 C12
M  END
>  <ref_pdb>  (49) 
Ax0310a

>  <ref_mols>  (49) 
Ax0446a,Ax1080a,Ax0812a,Ax0719a,Ax1140a,Ax0528a,Ax0310a

>  <original SMILES>  (49) 
CC1(C)OB(c2cccc(S(N)(=O)=O)c2)OC1(C)C

>  <rationale>  (49) 
info info set:sulfonimide_joint;hbond:G127+E85+N129; hydroph_interaction:V84+E85+L100+L131; 

>  <experiment>  (49) 
sulfonimide_joint

>  <cluster_label>  (49) 
17

>  <cluster_rank>  (49) 
3

>  <N_interactions>  (49) 
8

>  <∆∆G>  (49) 
-2.019821

>  <comRMSD>  (49) 
0.713548

>  <ROCS_TanimotoCombo>  (49) 
0.329

>  <ROCS_ShapeTanimoto>  (49) 
0.213

>  <ROCS_ColorTanimoto>  (49) 
0.116

$$$$
Z1624949930
     RDKit          3D

 16 16  0  0  0  0  0  0  0  0999 V2000
   35.2527   14.5871    8.8935 C   0  0  0  0  0  0  0  0  0  0  0  0
   34.8673   14.1417    7.6530 N   0  0  0  0  0  0  0  0  0  0  0  0
   33.8275   13.1345    7.5922 C   0  0  0  0  0  0  0  0  0  0  0  0
   33.0822   12.7578    8.6494 O   0  0  0  0  0  0  0  0  0  0  0  0
   33.5392   12.3798    6.2704 C   0  0  0  0  0  0  0  0  0  0  0  0
   32.6843   11.2509    6.6199 N   0  0  0  0  0  0  0  0  0  0  0  0
   32.8186    9.9340    6.4105 C   0  0  0  0  0  0  0  0  0  0  0  0
   33.9972    9.3528    5.6498 C   0  0  0  0  0  0  0  0  0  0  0  0
   31.8582    9.1909    6.8977 N   0  0  0  0  0  0  0  0  0  0  0  0
   30.9533   10.0800    7.4498 N   0  0  0  0  0  0  0  0  0  0  0  0
   29.7215    9.7075    8.1843 C   0  0  0  0  0  0  0  0  0  0  0  0
   30.2396    9.3038    9.4201 C   0  0  0  0  0  0  0  0  0  0  0  0
   28.7339   10.8861    8.3262 C   0  0  0  0  0  0  0  0  0  0  0  0
   29.0808    8.3684    8.2521 C   0  0  0  0  0  0  0  0  0  0  0  0
   31.2827   11.3669    7.0126 C   0  0  0  0  0  0  0  0  0  0  0  0
   30.5987   12.3770    6.9456 O   0  0  0  0  0  0  0  0  0  0  0  0
  1  2  1  0
  2  3  1  0
  3  4  2  0
  3  5  1  0
  5  6  1  0
  6  7  1  0
  7  8  1  0
  7  9  2  0
  9 10  1  0
 10 11  1  0
 11 12  1  0
 11 13  1  0
 11 14  1  0
 10 15  1  0
 15 16  2  0
 15  6  1  0
A    1
 C1 
A    2
 N1 
A    3
 C2 
A    4
 O1 
A    5
 C3 
A    6
 N2 
A    7
 C4 
A    8
 C5 
A    9
 N3 
A   10
 N4 
A   11
 C6 
A   12
 C7 
A   13
 C8 
A   14
 C9 
A   15
 C10
A   16
 O2 
M  END
>  <ref_pdb>  (50) 
Ax0310a

>  <ref_mols>  (50) 
Ax0446a,Ax1080a,Ax0812a,Ax0719a,Ax1140a,Ax0528a,Ax0310a

>  <original SMILES>  (50) 
CNC(=O)Cn1c(C)nn(C(C)(C)C)c1=O

>  <rationale>  (50) 
info info set:3d;hbond:G127+E106; hydroph_interaction:V124; 

>  <experiment>  (50) 
3d

>  <cluster_label>  (50) 
6

>  <cluster_rank>  (50) 
3

>  <N_interactions>  (50) 
3

>  <∆∆G>  (50) 
-6.22998

>  <comRMSD>  (50) 
0.780161

>  <ROCS_TanimotoCombo>  (50) 
0.348

>  <ROCS_ShapeTanimoto>  (50) 
0.21

>  <ROCS_ColorTanimoto>  (50) 
0.138

$$$$
Z3044709108
     RDKit          3D

 20 21  0  0  0  0  0  0  0  0999 V2000
   29.8253    8.6367    8.5300 C   0  0  0  0  0  0  0  0  0  0  0  0
   31.2051    8.5824    8.1620 N   0  0  0  0  0  0  0  0  0  0  0  0
   31.8736    9.4482    7.2751 C   0  0  0  0  0  0  0  0  0  0  0  0
   32.7854    8.9013    6.4273 N   0  0  0  0  0  0  0  0  0  0  0  0
   33.5075    9.6433    5.5430 C   0  0  0  0  0  0  0  0  0  0  0  0
   34.5433    8.8934    4.6195 C   0  0  0  0  0  0  0  0  0  0  0  0
   33.3668   11.0114    5.4366 C   0  0  0  0  0  0  0  0  0  0  0  0
   32.3535   11.6095    6.3706 C   0  0  0  0  0  0  0  0  0  0  0  0
   31.6472   10.8328    7.2473 C   0  0  0  0  0  0  0  0  0  0  0  0
   30.6666   11.5830    8.1206 C   0  0  0  0  0  0  0  0  0  0  0  0
   29.9937   10.8899    8.8116 O   0  0  0  0  0  0  0  0  0  0  0  0
   30.6379   12.9806    8.0446 N   0  0  0  0  0  0  0  0  0  0  0  0
   29.7529   13.8786    8.8109 C   0  0  0  0  0  0  0  0  0  0  0  0
   28.4547   13.9588    8.0258 C   0  0  0  0  0  0  0  0  0  0  0  0
   27.6952   15.2012    8.3059 C   0  0  0  0  0  0  0  0  0  0  0  0
   26.5651   14.9698    7.4396 C   0  0  0  0  0  0  0  0  0  0  0  0
   26.6589   13.7188    6.6925 C   0  0  0  0  0  0  0  0  0  0  0  0
   25.6453   13.1846    5.6723 C   0  0  0  0  0  0  0  0  0  0  0  0
   27.8045   13.1861    7.1353 N   0  0  0  0  0  0  0  0  0  0  0  0
   28.3175   12.0117    6.7819 C   0  0  0  0  0  0  0  0  0  0  0  0
  1  2  1  0
  2  3  1  0
  3  4  2  0
  4  5  1  0
  5  6  1  0
  5  7  2  0
  7  8  1  0
  8  9  2  0
  9 10  1  0
 10 11  2  0
 10 12  1  0
 12 13  1  0
 13 14  1  0
 14 15  2  0
 15 16  1  0
 16 17  2  0
 17 18  1  0
 17 19  1  0
 19 20  1  0
  9  3  1  0
 19 14  1  0
A    1
 C1 
A    2
 N1 
A    3
 C2 
A    4
 N2 
A    5
 C3 
A    6
 C4 
A    7
 C5 
A    8
 C6 
A    9
 C7 
A   10
 C8 
A   11
 O1 
A   12
 N3 
A   13
 C9 
A   14
 C10
A   15
 C11
A   16
 C12
A   17
 C13
A   18
 C14
A   19
 N4 
A   20
 C15
M  END
>  <ref_pdb>  (51) 
Ax0310a

>  <ref_mols>  (51) 
Ax0446a,Ax1080a,Ax0812a,Ax0719a,Ax1140a,Ax0528a,Ax0310a

>  <original SMILES>  (51) 
CNc1nc(C)ccc1C(=O)NCc1ccc(C)n1C

>  <rationale>  (51) 
info info set:screening_pocket;hbond:S87+S105; hydroph_interaction:P107+Y89+Y90+H21; pication:H21; 

>  <experiment>  (51) 
screening_pocket

>  <cluster_label>  (51) 
12

>  <cluster_rank>  (51) 
3

>  <N_interactions>  (51) 
8

>  <∆∆G>  (51) 
-5.743045

>  <comRMSD>  (51) 
0.747566

>  <ROCS_TanimotoCombo>  (51) 
0.643

>  <ROCS_ShapeTanimoto>  (51) 
0.251

>  <ROCS_ColorTanimoto>  (51) 
0.392

$$$$
EN300_219365
     RDKit          3D

 15 16  0  0  0  0  0  0  0  0999 V2000
   34.8643   14.7244    8.0378 N   0  0  0  0  0  0  0  0  0  0  0  0
   33.4715   13.8896    8.4717 S   0  0  0  0  0  6  0  0  0  0  0  0
   33.9681   12.7412    9.1070 O   0  0  0  0  0  0  0  0  0  0  0  0
   32.5426   14.7614    9.1639 O   0  0  0  0  0  0  0  0  0  0  0  0
   32.9478   13.4737    6.8428 C   0  0  0  0  0  0  0  0  0  0  0  0
   33.2834   12.2291    6.3899 C   0  0  0  0  0  0  0  0  0  0  0  0
   34.3531   11.9833    5.5413 C   0  0  0  0  0  0  0  0  0  0  0  0
   34.6238   10.6922    5.1407 C   0  0  0  0  0  0  0  0  0  0  0  0
   33.7947    9.5363    5.5963 C   0  0  0  0  0  0  0  0  0  0  0  0
   32.7018    9.6942    6.4501 C   0  0  0  0  0  0  0  0  0  0  0  0
   32.3930   11.0984    6.8949 C   0  0  0  0  0  0  0  0  0  0  0  0
   31.4849   11.4072    7.6376 O   0  0  0  0  0  0  0  0  0  0  0  0
   30.6255   10.3555    8.1096 C   0  0  0  0  0  0  0  0  0  0  0  0
   31.1335    8.9199    7.9930 C   0  0  0  0  0  0  0  0  0  0  0  0
   31.9693    8.6328    6.8551 O   0  0  0  0  0  0  0  0  0  0  0  0
  1  2  1  0
  2  3  2  0
  2  4  2  0
  2  5  1  0
  5  6  1  0
  6  7  2  0
  7  8  1  0
  8  9  2  0
  9 10  1  0
 10 11  2  0
 11 12  1  0
 12 13  1  0
 13 14  1  0
 14 15  1  0
 11  6  1  0
 15 10  1  0
A    1
 N1 
A    2
 S1 
A    3
 O1 
A    4
 O2 
A    5
 C1 
A    6
 C2 
A    7
 C3 
A    8
 C4 
A    9
 C5 
A   10
 C6 
A   11
 C7 
A   12
 O3 
A   13
 C8 
A   14
 C9 
A   15
 O4 
M  END
>  <ref_pdb>  (52) 
Ax0310a

>  <ref_mols>  (52) 
Ax0446a,Ax1080a,Ax0812a,Ax0719a,Ax1140a,Ax0528a,Ax0310a

>  <original SMILES>  (52) 
NS(=O)(=O)Cc1cccc2c1OCCO2

>  <rationale>  (52) 
info info set:sulfonimide_whole;hbond:S87+G127+A86; 

>  <experiment>  (52) 
sulfonimide_whole

>  <cluster_label>  (52) 
5

>  <cluster_rank>  (52) 
3

>  <N_interactions>  (52) 
3

>  <∆∆G>  (52) 
-4.70811

>  <comRMSD>  (52) 
0.657785

>  <ROCS_TanimotoCombo>  (52) 
0.404

>  <ROCS_ShapeTanimoto>  (52) 
0.209

>  <ROCS_ColorTanimoto>  (52) 
0.196

$$$$
EN300_107837
     RDKit          3D

 16 16  0  0  0  0  0  0  0  0999 V2000
   33.4057   11.7013    3.5814 N   0  0  0  0  0  0  0  0  0  0  0  0
   34.1412   11.7386    5.0931 S   0  0  0  0  0  6  0  0  0  0  0  0
   34.3553   13.1228    5.4446 O   0  0  0  0  0  0  0  0  0  0  0  0
   35.2247   10.7826    5.0324 O   0  0  0  0  0  0  0  0  0  0  0  0
   32.9339   11.0947    6.1786 C   0  0  0  0  0  0  0  0  0  0  0  0
   32.8938    9.7123    6.3396 C   0  0  0  0  0  0  0  0  0  0  0  0
   31.9913    9.1279    7.1928 C   0  0  0  0  0  0  0  0  0  0  0  0
   31.0984    9.8865    7.9131 C   0  0  0  0  0  0  0  0  0  0  0  0
   30.1046    8.9432    8.9311 Cl  0  0  0  0  0  0  0  0  0  0  0  0
   31.0916   11.3030    7.7609 C   0  0  0  0  0  0  0  0  0  0  0  0
   30.1424   12.0567    8.5080 N   0  0  0  0  0  0  0  0  0  0  0  0
   30.3258   13.4171    8.7898 C   0  0  0  0  0  0  0  0  0  0  0  0
   31.3805   14.0219    8.6433 O   0  0  0  0  0  0  0  0  0  0  0  0
   29.2091   14.0622    9.2910 C   0  0  0  0  0  0  0  0  0  0  0  0
   28.4206   14.9276    7.9617 Cl  0  0  0  0  0  0  0  0  0  0  0  0
   32.0164   11.8657    6.8946 C   0  0  0  0  0  0  0  0  0  0  0  0
  1  2  1  0
  2  3  2  0
  2  4  2  0
  2  5  1  0
  5  6  2  0
  6  7  1  0
  7  8  2  0
  8  9  1  0
  8 10  1  0
 10 11  1  0
 11 12  1  0
 12 13  2  0
 12 14  1  0
 14 15  1  0
 10 16  2  0
 16  5  1  0
A    1
 N1 
A    2
 S1 
A    3
 O1 
A    4
 O2 
A    5
 C1 
A    6
 C2 
A    7
 C3 
A    8
 C4 
A    9
CL1 
A   10
 C5 
A   11
 N2 
A   12
 C6 
A   13
 O3 
A   14
 C7 
A   15
CL2 
A   16
 C8 
M  END
>  <ref_pdb>  (53) 
Ax0310a

>  <ref_mols>  (53) 
Ax0446a,Ax1080a,Ax0812a,Ax0719a,Ax1140a,Ax0528a,Ax0310a

>  <original SMILES>  (53) 
NS(=O)(=O)c1ccc(Cl)c(NC(=O)CCl)c1

>  <rationale>  (53) 
info info set:sulfonimide_whole;halogenbond:E88; hbond:S87+S125; 

>  <experiment>  (53) 
sulfonimide_whole

>  <cluster_label>  (53) 
7

>  <cluster_rank>  (53) 
3

>  <N_interactions>  (53) 
3

>  <∆∆G>  (53) 
-6.03163

>  <comRMSD>  (53) 
0.407871

>  <ROCS_TanimotoCombo>  (53) 
0.355

>  <ROCS_ShapeTanimoto>  (53) 
0.215

>  <ROCS_ColorTanimoto>  (53) 
0.14

$$$$
Z98003105
     RDKit          3D

 21 22  0  0  0  0  0  0  0  0999 V2000
   31.0043    8.8991    8.1588 N   0  0  0  0  0  0  0  0  0  0  0  0
   31.6662    9.4749    7.3829 C   0  0  0  0  0  0  0  0  0  0  0  0
   32.5343    8.7766    6.6437 N   0  0  0  0  0  0  0  0  0  0  0  0
   33.2887    9.4699    5.7617 C   0  0  0  0  0  0  0  0  0  0  0  0
   33.1911   10.8374    5.6083 C   0  0  0  0  0  0  0  0  0  0  0  0
   32.3287   11.5840    6.3299 N   0  0  0  0  0  0  0  0  0  0  0  0
   31.5851   10.8554    7.2055 C   0  0  0  0  0  0  0  0  0  0  0  0
   30.6504   11.4591    8.0218 C   0  0  0  0  0  0  0  0  0  0  0  0
   29.9757   10.7736    8.7510 O   0  0  0  0  0  0  0  0  0  0  0  0
   30.5663   12.8164    7.9070 O   0  0  0  0  0  0  0  0  0  0  0  0
   29.2363   13.1458    8.3297 C   0  0  0  0  0  0  0  0  0  0  0  0
   28.5095   13.9148    7.4288 C   0  0  0  0  0  0  0  0  0  0  0  0
   28.5621   15.1516    7.3748 O   0  0  0  0  0  0  0  0  0  0  0  0
   27.7196   13.1293    6.6189 N   0  0  0  0  0  0  0  0  0  0  0  0
   26.9312   13.5921    5.4829 C   0  0  0  0  0  0  0  0  0  0  0  0
   25.6277   14.3114    5.7045 C   0  0  0  0  0  0  0  0  0  0  0  0
   24.3474   13.5009    5.8732 C   0  0  0  0  0  0  0  0  0  0  0  0
   24.4780   13.6085    7.3659 C   0  0  0  0  0  0  0  0  0  0  0  0
   25.0276   12.3728    7.9926 C   0  0  0  0  0  0  0  0  0  0  0  0
   25.8592   11.6454    7.0156 C   0  0  0  0  0  0  0  0  0  0  0  0
   27.2852   11.9459    7.3135 C   0  0  0  0  0  0  0  0  0  0  0  0
  1  2  1  0
  2  3  2  0
  3  4  1  0
  4  5  2  0
  5  6  1  0
  6  7  2  0
  7  8  1  0
  8  9  2  0
  8 10  1  0
 10 11  1  0
 11 12  1  0
 12 13  2  0
 12 14  1  0
 14 15  1  0
 15 16  1  0
 16 17  1  0
 17 18  1  0
 18 19  1  0
 19 20  1  0
 20 21  1  0
  7  2  1  0
 21 14  1  0
A    1
 N1 
A    2
 C1 
A    3
 N2 
A    4
 C2 
A    5
 C3 
A    6
 N3 
A    7
 C4 
A    8
 C5 
A    9
 O1 
A   10
 O2 
A   11
 C6 
A   12
 C7 
A   13
 O3 
A   14
 N4 
A   15
 C8 
A   16
 C9 
A   17
 C10
A   18
 C11
A   19
 C12
A   20
 C13
A   21
 C14
M  END
>  <ref_pdb>  (54) 
Ax0310a

>  <ref_mols>  (54) 
Ax0446a,Ax1080a,Ax0812a,Ax0719a,Ax1140a,Ax0528a,Ax0310a

>  <original SMILES>  (54) 
Nc1nccnc1C(=O)OCC(=O)N1CCCCCCC1

>  <rationale>  (54) 
info info set:screening_pocket;hbond:S87+S105+G127; hydroph_interaction:Y89+H21+L22; 

>  <experiment>  (54) 
screening_pocket

>  <cluster_label>  (54) 
16

>  <cluster_rank>  (54) 
3

>  <N_interactions>  (54) 
7

>  <∆∆G>  (54) 
-3.190615

>  <comRMSD>  (54) 
0.634377

>  <ROCS_TanimotoCombo>  (54) 
0.644

>  <ROCS_ShapeTanimoto>  (54) 
0.231

>  <ROCS_ColorTanimoto>  (54) 
0.413

$$$$
Z3542299488
     RDKit          3D

 17 18  0  0  0  0  0  0  0  0999 V2000
   34.3057   12.2980    3.6084 C   0  0  0  0  0  0  0  0  0  0  0  0
   34.0231   11.0243    4.3598 C   0  0  0  0  0  0  0  0  0  0  0  0
   34.6816    9.7006    4.0880 C   0  0  0  0  0  0  0  0  0  0  0  0
   34.1187    8.7960    5.0096 N   0  0  0  0  0  0  0  0  0  0  0  0
   33.2104    9.4094    5.7974 C   0  0  0  0  0  0  0  0  0  0  0  0
   32.6092    8.6914    6.6906 N   0  0  0  0  0  0  0  0  0  0  0  0
   31.7473    9.4489    7.3693 C   0  0  0  0  0  0  0  0  0  0  0  0
   31.5168   10.7914    7.1787 C   0  0  0  0  0  0  0  0  0  0  0  0
   30.4995   11.3851    8.0839 C   0  0  0  0  0  0  0  0  0  0  0  0
   30.0356   10.6094    8.8707 O   0  0  0  0  0  0  0  0  0  0  0  0
   30.1734   12.7186    7.9699 N   0  0  0  0  0  0  0  0  0  0  0  0
   28.7939   13.1840    8.1205 C   0  0  2  0  0  0  0  0  0  0  0  0
   28.0337   12.7631    7.0441 C   0  0  0  0  0  0  0  0  0  0  0  0
   28.7523   14.6459    8.1307 C   0  0  0  0  0  0  0  0  0  0  0  0
   28.7313   15.9770    8.0657 N   0  0  0  0  0  0  0  0  0  0  0  0
   32.1971   11.5048    6.2034 C   0  0  0  0  0  0  0  0  0  0  0  0
   33.1109   10.7686    5.4510 C   0  0  0  0  0  0  0  0  0  0  0  0
  1  2  1  0
  2  3  2  0
  3  4  1  0
  4  5  1  0
  5  6  2  0
  6  7  1  0
  7  8  2  0
  8  9  1  0
  9 10  2  0
  9 11  1  0
 11 12  1  0
 12 13  1  6
 12 14  1  0
 14 15  3  0
  8 16  1  0
 16 17  2  0
 17  2  1  0
 17  5  1  0
A    1
 C1 
A    2
 C2 
A    3
 C3 
A    4
 N1 
A    5
 C4 
A    6
 N2 
A    7
 C5 
A    8
 C6 
A    9
 C7 
A   10
 O1 
A   11
 N3 
A   12
 C8 
A   13
 C9 
A   14
 C10
A   15
 N4 
A   16
 C11
A   17
 C12
M  END
>  <ref_pdb>  (55) 
Ax0310a

>  <ref_mols>  (55) 
Ax0446a,Ax1080a,Ax0812a,Ax0719a,Ax1140a,Ax0528a,Ax0310a

>  <original SMILES>  (55) 
Cc1c[nH]c2ncc(C(=O)N[C@H](C)C#N)cc12

>  <rationale>  (55) 
info info set:screening_pocket;hbond:S87+Y90+E88; hydroph_interaction:P107; 

>  <experiment>  (55) 
screening_pocket

>  <cluster_label>  (55) 
8

>  <cluster_rank>  (55) 
3

>  <N_interactions>  (55) 
5

>  <∆∆G>  (55) 
-4.845029

>  <comRMSD>  (55) 
0.593733

>  <ROCS_TanimotoCombo>  (55) 
0.704

>  <ROCS_ShapeTanimoto>  (55) 
0.259

>  <ROCS_ColorTanimoto>  (55) 
0.444

$$$$
Z2001735784
     RDKit          3D

 17 18  0  0  0  0  0  0  0  0999 V2000
   26.9658   15.4434    9.0333 C   0  0  0  0  0  0  0  0  0  0  0  0
   28.1084   14.8974    8.3932 C   0  0  0  0  0  0  0  0  0  0  0  0
   29.1641   14.3089    9.1938 C   0  0  0  0  0  0  0  0  0  0  0  0
   30.0811   13.9183    8.1359 C   0  0  0  0  0  0  0  0  0  0  0  0
   31.3734   13.2519    8.4035 C   0  0  0  0  0  0  0  0  0  0  0  0
   32.3900   13.8271    9.1609 O   0  0  0  0  0  0  0  0  0  0  0  0
   31.5621   12.0368    7.8456 N   0  0  0  0  0  0  0  0  0  0  0  0
   30.4449   11.3028    7.8996 C   0  0  0  0  0  0  0  0  0  0  0  0
   30.8775    9.9011    8.0448 C   0  0  0  0  0  0  0  0  0  0  0  0
   30.1570    9.0576    8.8125 O   0  0  0  0  0  0  0  0  0  0  0  0
   32.0252    9.5791    7.3515 N   0  0  0  0  0  0  0  0  0  0  0  0
   32.7200   10.6251    6.5563 C   0  0  0  0  0  0  0  0  0  0  0  0
   32.4191   11.9848    6.7867 C   0  0  0  0  0  0  0  0  0  0  0  0
   32.1405   12.8765    5.6546 C   0  0  0  0  0  0  0  0  0  0  0  0
   33.6677   12.7072    7.3193 C   0  0  0  0  0  0  0  0  0  0  0  0
   29.6082   14.2239    7.0365 O   0  0  0  0  0  0  0  0  0  0  0  0
   28.3665   14.8439    7.1071 N   0  0  0  0  0  0  0  0  0  0  0  0
  1  2  1  0
  2  3  1  0
  3  4  2  0
  4  5  1  0
  5  6  2  0
  5  7  1  0
  7  8  1  0
  8  9  1  0
  9 10  2  0
  9 11  1  0
 11 12  1  0
 12 13  1  0
 13 14  1  0
 13 15  1  0
  4 16  1  0
 16 17  1  0
 17  2  2  0
 13  7  1  0
A    1
 C1 
A    2
 C2 
A    3
 C3 
A    4
 C4 
A    5
 C5 
A    6
 O1 
A    7
 N1 
A    8
 C6 
A    9
 C7 
A   10
 O2 
A   11
 N2 
A   12
 C8 
A   13
 C9 
A   14
 C10
A   15
 C11
A   16
 O3 
A   17
 N3 
M  END
>  <ref_pdb>  (56) 
Ax0310a

>  <ref_mols>  (56) 
Ax0446a,Ax1080a,Ax0812a,Ax0719a,Ax1140a,Ax0528a,Ax0310a

>  <original SMILES>  (56) 
Cc1cc(C(=O)N2CC(=O)NCC2(C)C)on1

>  <rationale>  (56) 
info info set:3d;hbond:S87+S105+G127; hydroph_interaction:P107+Y89+Y90+H21; 

>  <experiment>  (56) 
3d

>  <cluster_label>  (56) 
9

>  <cluster_rank>  (56) 
3

>  <N_interactions>  (56) 
8

>  <∆∆G>  (56) 
-3.325174

>  <comRMSD>  (56) 
0.863595

>  <ROCS_TanimotoCombo>  (56) 
0.349

>  <ROCS_ShapeTanimoto>  (56) 
0.204

>  <ROCS_ColorTanimoto>  (56) 
0.145

$$$$
Z238750748
     RDKit          3D

 29 33  0  0  0  0  0  0  0  0999 V2000
   38.0649   12.9032    9.4436 C   0  0  0  0  0  0  0  0  0  0  0  0
   37.6253   13.8967    8.5185 O   0  0  0  0  0  0  0  0  0  0  0  0
   36.2234   13.7945    8.2172 C   0  0  0  0  0  0  0  0  0  0  0  0
   35.7672   14.2682    6.8614 C   0  0  0  0  0  0  0  0  0  0  0  0
   34.2657   14.1239    6.5607 C   0  0  0  0  0  0  0  0  0  0  0  0
   33.4188   13.5170    7.6881 C   0  0  0  0  0  0  0  0  0  0  0  0
   32.0307   13.2837    7.6093 N   0  0  0  0  0  0  0  0  0  0  0  0
   31.2443   13.9021    8.5432 C   0  0  0  0  0  0  0  0  0  0  0  0
   31.6148   14.4189    9.5945 O   0  0  0  0  0  0  0  0  0  0  0  0
   29.7923   13.9591    8.1395 C   0  0  0  0  0  0  0  0  0  0  0  0
   29.0600   14.7149    9.0197 C   0  0  0  0  0  0  0  0  0  0  0  0
   27.5958   14.8512    8.6697 C   0  0  0  0  0  0  0  0  0  0  0  0
   27.1299   14.1472    7.4325 C   0  0  0  0  0  0  0  0  0  0  0  0
   28.0470   13.3576    6.5908 C   0  0  0  0  0  0  0  0  0  0  0  0
   29.3699   13.2998    6.9871 C   0  0  0  0  0  0  0  0  0  0  0  0
   30.2561   12.5980    6.1863 N   0  0  0  0  0  0  0  0  0  0  0  0
   30.4212   13.4732    5.0267 C   0  0  0  0  0  0  0  0  0  0  0  0
   31.4641   12.1227    6.9323 C   0  0  2  0  0  0  0  0  0  0  0  0
   31.0319   10.9026    7.8766 C   0  0  0  0  0  0  0  0  0  0  0  0
   30.2288   10.8560    8.7550 O   0  0  0  0  0  0  0  0  0  0  0  0
   31.7574    9.7933    7.5145 N   0  0  0  0  0  0  0  0  0  0  0  0
   32.6016   10.0817    6.4783 C   0  0  0  0  0  0  0  0  0  0  0  0
   33.4511    9.2089    5.9060 C   0  0  0  0  0  0  0  0  0  0  0  0
   34.2453    9.6366    4.8579 C   0  0  0  0  0  0  0  0  0  0  0  0
   34.1568   10.9601    4.4105 C   0  0  0  0  0  0  0  0  0  0  0  0
   33.2732   11.8605    5.0183 C   0  0  0  0  0  0  0  0  0  0  0  0
   32.4948   11.4005    6.0655 C   0  0  0  0  0  0  0  0  0  0  0  0
   34.0034   13.1745    8.8228 C   0  0  0  0  0  0  0  0  0  0  0  0
   35.3208   13.2897    9.0812 C   0  0  0  0  0  0  0  0  0  0  0  0
  1  2  1  0
  2  3  1  0
  3  4  2  0
  4  5  1  0
  5  6  2  0
  6  7  1  0
  7  8  1  0
  8  9  2  0
  8 10  1  0
 10 11  2  0
 11 12  1  0
 12 13  2  0
 13 14  1  0
 14 15  2  0
 15 16  1  0
 16 17  1  0
 18 16  1  6
 18 19  1  0
 19 20  2  0
 19 21  1  0
 21 22  1  0
 22 23  2  0
 23 24  1  0
 24 25  2  0
 25 26  1  0
 26 27  2  0
  6 28  1  0
 28 29  2  0
 29  3  1  0
 18  7  1  0
 27 22  1  0
 15 10  1  0
 27 18  1  0
A    1
 C1 
A    2
 O1 
A    3
 C2 
A    4
 C3 
A    5
 C4 
A    6
 C5 
A    7
 N1 
A    8
 C6 
A    9
 O2 
A   10
 C7 
A   11
 C8 
A   12
 C9 
A   13
 C10
A   14
 C11
A   15
 C12
A   16
 N2 
A   17
 C13
A   18
 C14
A   19
 C15
A   20
 O3 
A   21
 N3 
A   22
 C16
A   23
 C17
A   24
 C18
A   25
 C19
A   26
 C20
A   27
 C21
A   28
 C22
A   29
 C23
M  END
>  <ref_pdb>  (57) 
Ax0310a

>  <ref_mols>  (57) 
Ax0446a,Ax1080a,Ax0812a,Ax0719a,Ax1140a,Ax0528a,Ax0310a

>  <original SMILES>  (57) 
COc1ccc(N2C(=O)c3ccccc3N(C)[C@]23C(=O)Nc2ccccc23)cc1

>  <rationale>  (57) 
info info set:screening_whole;hbond:S87+S105+E85; hydroph_interaction:P107+Y89+Y90+V84+E85; 

>  <experiment>  (57) 
screening_whole

>  <cluster_label>  (57) 
3

>  <cluster_rank>  (57) 
3

>  <N_interactions>  (57) 
10

>  <∆∆G>  (57) 
-5.013019

>  <comRMSD>  (57) 
0.739656

>  <ROCS_TanimotoCombo>  (57) 
0.466

>  <ROCS_ShapeTanimoto>  (57) 
0.291

>  <ROCS_ColorTanimoto>  (57) 
0.175

$$$$
Z168123244
     RDKit          3D

 19 20  0  0  0  0  0  0  0  0999 V2000
   31.3285    8.7762    7.9725 C   0  0  0  0  0  0  0  0  0  0  0  0
   31.8826    9.4694    7.1669 C   0  0  0  0  0  0  0  0  0  0  0  0
   32.7752    8.8593    6.3103 N   0  0  0  0  0  0  0  0  0  0  0  0
   33.4503    9.5996    5.3522 C   0  0  0  0  0  0  0  0  0  0  0  0
   34.4341    8.9579    4.3882 C   0  0  0  0  0  0  0  0  0  0  0  0
   34.5584    7.7238    3.6958 C   0  0  0  0  0  0  0  0  0  0  0  0
   35.5275    7.2942    2.8482 C   0  0  0  0  0  0  0  0  0  0  0  0
   36.6014    8.0011    2.4878 C   0  0  0  0  0  0  0  0  0  0  0  0
   36.6557    9.3858    3.1233 C   0  0  0  0  0  0  0  0  0  0  0  0
   35.5712    9.8961    4.0901 C   0  0  0  0  0  0  0  0  0  0  0  0
   33.2312   10.9850    5.2570 C   0  0  0  0  0  0  0  0  0  0  0  0
   32.3330   11.6352    6.1139 C   0  0  0  0  0  0  0  0  0  0  0  0
   31.6882   10.8465    7.0396 C   0  0  0  0  0  0  0  0  0  0  0  0
   30.7872   11.4446    7.9006 C   0  0  0  0  0  0  0  0  0  0  0  0
   30.3141   10.8107    8.8053 O   0  0  0  0  0  0  0  0  0  0  0  0
   30.5096   12.7502    7.6125 O   0  0  0  0  0  0  0  0  0  0  0  0
   29.5977   13.3584    8.5542 C   0  0  0  0  0  0  0  0  0  0  0  0
   28.9635   14.5553    8.0048 C   0  0  0  0  0  0  0  0  0  0  0  0
   28.4997   15.5166    7.5703 N   0  0  0  0  0  0  0  0  0  0  0  0
  1  2  1  0
  2  3  2  0
  3  4  1  0
  4  5  1  0
  5  6  2  0
  6  7  1  0
  7  8  2  0
  8  9  1  0
  9 10  2  0
  4 11  2  0
 11 12  1  0
 12 13  2  0
 13 14  1  0
 14 15  2  0
 14 16  1  0
 16 17  1  0
 17 18  1  0
 18 19  3  0
 13  2  1  0
 10  5  1  0
A    1
 C1 
A    2
 C2 
A    3
 N1 
A    4
 C3 
A    5
 C4 
A    6
 C5 
A    7
 C6 
A    8
 C7 
A    9
 C8 
A   10
 C9 
A   11
 C10
A   12
 C11
A   13
 C12
A   14
 C13
A   15
 O1 
A   16
 O2 
A   17
 C14
A   18
 C15
A   19
 N2 
M  END
>  <ref_pdb>  (58) 
Ax0310a

>  <ref_mols>  (58) 
Ax0446a,Ax1080a,Ax0812a,Ax0719a,Ax1140a,Ax0528a,Ax0310a

>  <original SMILES>  (58) 
Cc1nc(-c2ccccc2)ccc1C(=O)OCC#N

>  <rationale>  (58) 
info info set:screening_pocket;hydroph_interaction:P107+E106; 

>  <experiment>  (58) 
screening_pocket

>  <cluster_label>  (58) 
4

>  <cluster_rank>  (58) 
4

>  <N_interactions>  (58) 
2

>  <∆∆G>  (58) 
-4.231343

>  <comRMSD>  (58) 
0.969708

>  <ROCS_TanimotoCombo>  (58) 
0.631

>  <ROCS_ShapeTanimoto>  (58) 
0.243

>  <ROCS_ColorTanimoto>  (58) 
0.388

$$$$
EN300_28298107
     RDKit          3D

 23 24  0  0  0  0  0  0  0  0999 V2000
   35.2177   11.7187    4.4192 C   0  0  0  0  0  0  0  0  0  0  0  0
   34.1016   11.3221    5.3842 C   0  0  0  0  0  0  0  0  0  0  0  0
   33.7166    9.6735    5.6003 S   0  0  0  0  0  0  0  0  0  0  0  0
   32.4951   10.0013    6.7393 C   0  0  0  0  0  0  0  0  0  0  0  0
   31.8167    8.9805    7.2980 N   0  0  0  0  0  0  0  0  0  0  0  0
   30.8958    9.4135    8.1458 C   0  0  0  0  0  0  0  0  0  0  0  0
   30.6207   10.6885    8.4640 N   0  0  0  0  0  0  0  0  0  0  0  0
   31.3161   11.7107    7.9099 C   0  0  0  0  0  0  0  0  0  0  0  0
   31.0148   13.0947    8.2690 N   0  0  0  0  0  0  0  0  0  0  0  0
   31.7745   14.0941    9.0359 C   0  0  0  0  0  0  0  0  0  0  0  0
   31.1508   15.0842    9.4220 O   0  0  0  0  0  0  0  0  0  0  0  0
   33.2489   14.0776    9.4315 C   0  0  0  0  0  0  0  0  0  0  0  0
   33.9629   12.9978    9.3164 F   0  0  0  0  0  0  0  0  0  0  0  0
   34.0456   14.9306    8.7676 F   0  0  0  0  0  0  0  0  0  0  0  0
   33.3134   14.5557   10.6805 F   0  0  0  0  0  0  0  0  0  0  0  0
   29.8038   13.5704    7.9336 C   0  0  2  0  0  0  0  0  0  0  0  0
   28.6055   13.4159    8.8392 C   0  0  0  0  0  0  0  0  0  0  0  0
   29.0930   12.9308    6.7604 C   0  0  0  0  0  0  0  0  0  0  0  0
   29.5230   12.9351    5.6241 O   0  0  0  0  0  0  0  0  0  0  0  0
   27.9184   12.3373    7.0204 O   0  0  0  0  0  0  0  0  0  0  0  0
   32.3243   11.3629    6.9828 C   0  0  0  0  0  0  0  0  0  0  0  0
   33.3171   12.1513    6.1513 C   0  0  0  0  0  0  0  0  0  0  0  0
   33.4484   13.6322    6.1498 C   0  0  0  0  0  0  0  0  0  0  0  0
  1  2  1  0
  2  3  1  0
  3  4  1  0
  4  5  2  0
  5  6  1  0
  6  7  2  0
  7  8  1  0
  8  9  1  0
  9 10  1  0
 10 11  2  0
 10 12  1  0
 12 13  1  0
 12 14  1  0
 12 15  1  0
  9 16  1  0
 16 17  1  1
 16 18  1  0
 18 19  2  0
 18 20  1  0
  8 21  2  0
 21 22  1  0
 22 23  1  0
 22  2  2  0
 21  4  1  0
A    1
 C1 
A    2
 C2 
A    3
 S1 
A    4
 C3 
A    5
 N1 
A    6
 C4 
A    7
 N2 
A    8
 C5 
A    9
 N3 
A   10
 C6 
A   11
 O1 
A   12
 C7 
A   13
 F1 
A   14
 F2 
A   15
 F3 
A   16
 C8 
A   17
 C9 
A   18
 C10
A   19
 O2 
A   20
 O3 
A   21
 C11
A   22
 C12
A   23
 C13
M  END
>  <ref_pdb>  (59) 
Ax0310a

>  <ref_mols>  (59) 
Ax0446a,Ax1080a,Ax0812a,Ax0719a,Ax1140a,Ax0528a,Ax0310a

>  <original SMILES>  (59) 
Cc1sc2ncnc(N(C(=O)C(F)(F)F)[C@H](C)C(=O)O)c2c1C

>  <rationale>  (59) 
info info set:bb_whole;halogenbond:E85+G127; hbond:S87; saltbridge:H21; 

>  <experiment>  (59) 
bb_whole

>  <cluster_label>  (59) 
1

>  <cluster_rank>  (59) 
4

>  <N_interactions>  (59) 
4

>  <∆∆G>  (59) 
-1.607427

>  <comRMSD>  (59) 
0.739467

>  <ROCS_TanimotoCombo>  (59) 
0.416

>  <ROCS_ShapeTanimoto>  (59) 
0.253

>  <ROCS_ColorTanimoto>  (59) 
0.162

$$$$
Z1344149943
     RDKit          3D

 23 25  0  0  0  0  0  0  0  0999 V2000
   31.9280   13.0519    6.8737 C   0  0  0  0  0  0  0  0  0  0  0  0
   32.2260   11.5863    6.6489 C   0  0  0  0  0  0  0  0  0  0  0  0
   31.3915   10.6346    7.4313 C   0  0  0  0  0  0  0  0  0  0  0  0
   30.3605   11.2922    8.3169 C   0  0  0  0  0  0  0  0  0  0  0  0
   30.6427   12.3778    8.7808 O   0  0  0  0  0  0  0  0  0  0  0  0
   29.1605   10.7444    8.5609 N   0  0  0  0  0  0  0  0  0  0  0  0
   28.2039   11.6719    8.6868 C   0  0  0  0  0  0  0  0  0  0  0  0
   27.6091   12.2801    7.4653 C   0  0  0  0  0  0  0  0  0  0  0  0
   28.0220   13.6313    7.4115 N   0  0  0  0  0  0  0  0  0  0  0  0
   28.4722   14.1709    6.2830 C   0  0  0  0  0  0  0  0  0  0  0  0
   28.7965   15.3849    6.5002 N   0  0  0  0  0  0  0  0  0  0  0  0
   28.5754   15.7153    7.7958 N   0  0  0  0  0  0  0  0  0  0  0  0
   28.1007   14.6517    8.3457 C   0  0  0  0  0  0  0  0  0  0  0  0
   27.6777   14.4720    9.8049 C   0  0  0  0  0  0  0  0  0  0  0  0
   31.6170    9.2974    7.2907 C   0  0  0  0  0  0  0  0  0  0  0  0
   30.9943    8.4350    7.8924 O   0  0  0  0  0  0  0  0  0  0  0  0
   32.5661    8.8412    6.4494 N   0  0  0  0  0  0  0  0  0  0  0  0
   33.3296    9.6878    5.7155 C   0  0  0  0  0  0  0  0  0  0  0  0
   34.3806    9.0515    4.7706 C   0  0  0  0  0  0  0  0  0  0  0  0
   35.2201   10.0306    3.9624 C   0  0  0  0  0  0  0  0  0  0  0  0
   34.9715   11.5051    4.1434 C   0  0  0  0  0  0  0  0  0  0  0  0
   34.0077   11.9725    5.0131 C   0  0  0  0  0  0  0  0  0  0  0  0
   33.2002   11.1017    5.7815 C   0  0  0  0  0  0  0  0  0  0  0  0
  1  2  1  0
  2  3  2  0
  3  4  1  0
  4  5  2  0
  4  6  1  0
  6  7  1  0
  7  8  1  0
  8  9  1  0
  9 10  1  0
 10 11  2  0
 11 12  1  0
 12 13  2  0
 13 14  1  0
  3 15  1  0
 15 16  1  0
 15 17  2  0
 17 18  1  0
 18 19  2  0
 19 20  1  0
 20 21  2  0
 21 22  1  0
 22 23  2  0
 23  2  1  0
 13  9  1  0
 23 18  1  0
A    1
 C1 
A    2
 C2 
A    3
 C3 
A    4
 C4 
A    5
 O1 
A    6
 N1 
A    7
 C5 
A    8
 C6 
A    9
 N2 
A   10
 C7 
A   11
 N3 
A   12
 N4 
A   13
 C8 
A   14
 C9 
A   15
 C10
A   16
 O2 
A   17
 N5 
A   18
 C11
A   19
 C12
A   20
 C13
A   21
 C14
A   22
 C15
A   23
 C16
M  END
>  <ref_pdb>  (60) 
Ax0310a

>  <ref_mols>  (60) 
Ax0446a,Ax1080a,Ax0812a,Ax0719a,Ax1140a,Ax0528a,Ax0310a

>  <original SMILES>  (60) 
Cc1c(C(=O)NCCn2cnnc2C)c(O)nc2ccccc12

>  <rationale>  (60) 
info info set:screening_pocket;hbond:S105+G127+P107; hydroph_interaction:Y90; 

>  <experiment>  (60) 
screening_pocket

>  <cluster_label>  (60) 
11

>  <cluster_rank>  (60) 
4

>  <N_interactions>  (60) 
4

>  <∆∆G>  (60) 
-3.041789

>  <comRMSD>  (60) 
0.634156

>  <ROCS_TanimotoCombo>  (60) 
0.643

>  <ROCS_ShapeTanimoto>  (60) 
0.288

>  <ROCS_ColorTanimoto>  (60) 
0.355

$$$$
Z108673192
     RDKit          3D

 16 17  0  0  0  0  0  0  0  0999 V2000
   29.8229   11.0652    8.8106 O   0  0  0  0  0  0  0  0  0  0  0  0
   30.3085   11.8351    8.0707 C   0  0  0  0  0  0  0  0  0  0  0  0
   31.3450   11.3150    7.3975 C   0  0  0  0  0  0  0  0  0  0  0  0
   32.3686   11.9682    6.7657 C   0  0  0  0  0  0  0  0  0  0  0  0
   33.3267   11.1897    6.1172 C   0  0  0  0  0  0  0  0  0  0  0  0
   34.6104   12.0283    5.3254 Cl  0  0  0  0  0  0  0  0  0  0  0  0
   33.2454    9.6527    6.1071 C   0  0  0  0  0  0  0  0  0  0  0  0
   32.2003    9.0422    6.7704 C   0  0  0  0  0  0  0  0  0  0  0  0
   31.2540    9.7866    7.4082 C   0  0  0  0  0  0  0  0  0  0  0  0
   30.2461    9.1767    8.0406 F   0  0  0  0  0  0  0  0  0  0  0  0
   29.8128   13.0890    7.8418 N   0  0  0  0  0  0  0  0  0  0  0  0
   28.9965   13.6363    8.9325 C   0  0  0  0  0  0  0  0  0  0  0  0
   28.6278   14.9485    8.7485 C   0  0  0  0  0  0  0  0  0  0  0  0
   28.8125   15.4681    7.4387 O   0  0  0  0  0  0  0  0  0  0  0  0
   28.6087   14.5224    6.3895 C   0  0  0  0  0  0  0  0  0  0  0  0
   29.2568   13.3236    6.5223 C   0  0  0  0  0  0  0  0  0  0  0  0
  1  2  2  0
  2  3  1  0
  3  4  2  0
  4  5  1  0
  5  6  1  0
  5  7  2  0
  7  8  1  0
  8  9  2  0
  9 10  1  0
  2 11  1  0
 11 12  1  0
 12 13  1  0
 13 14  1  0
 14 15  1  0
 15 16  1  0
  9  3  1  0
 16 11  1  0
A    1
 O1 
A    2
 C1 
A    3
 C2 
A    4
 C3 
A    5
 C4 
A    6
CL1 
A    7
 C5 
A    8
 C6 
A    9
 C7 
A   10
 F1 
A   11
 N1 
A   12
 C8 
A   13
 C9 
A   14
 O2 
A   15
 C10
A   16
 C11
M  END
>  <ref_pdb>  (61) 
Ax0310a

>  <ref_mols>  (61) 
Ax0446a,Ax1080a,Ax0812a,Ax0719a,Ax1140a,Ax0528a,Ax0310a

>  <original SMILES>  (61) 
O=C(c1cc(Cl)ccc1F)N1CCOCC1

>  <rationale>  (61) 
info info set:3d;halogenbond:C110; hbond:S87; 

>  <experiment>  (61) 
3d

>  <cluster_label>  (61) 
2

>  <cluster_rank>  (61) 
4

>  <N_interactions>  (61) 
2

>  <∆∆G>  (61) 
-4.200743

>  <comRMSD>  (61) 
0.841773

>  <ROCS_TanimotoCombo>  (61) 
0.303

>  <ROCS_ShapeTanimoto>  (61) 
0.199

>  <ROCS_ColorTanimoto>  (61) 
0.104

$$$$
EN300_1167129
     RDKit          3D

 15 15  0  0  0  0  0  0  0  0999 V2000
   33.1331   14.9466    9.4110 C   0  0  0  0  0  0  0  0  0  0  0  0
   33.8205   13.8131    8.2252 S   0  0  0  0  0  6  0  0  0  0  0  0
   33.1865   13.7984    6.9195 O   0  0  0  0  0  0  0  0  0  0  0  0
   33.8460   12.6482    8.9954 O   0  0  0  0  0  0  0  0  0  0  0  0
   35.3678   14.4782    8.0247 N   0  0  0  0  0  0  0  0  0  0  0  0
   36.5278   13.8000    8.6794 C   0  0  0  0  0  0  0  0  0  0  0  0
   36.2262   13.2258    9.8976 C   0  0  0  0  0  0  0  0  0  0  0  0
   37.2230   12.2550   10.3467 N   0  0  0  0  0  0  0  0  0  0  0  0
   36.7009   11.5836   11.5382 C   0  0  0  0  0  0  0  0  0  0  0  0
   37.6162   10.7174   12.0527 C   0  0  0  0  0  0  0  0  0  0  0  0
   38.8419   11.3535   12.5056 C   0  0  0  0  0  0  0  0  0  0  0  0
   38.5661   12.4845   13.4851 C   0  0  0  0  0  0  0  0  0  0  0  0
   39.7853   13.0797   13.9206 O   0  0  0  0  0  0  0  0  0  0  0  0
   39.4980   11.9079   11.2519 C   0  0  0  0  0  0  0  0  0  0  0  0
   38.5399   12.8809   10.5627 C   0  0  0  0  0  0  0  0  0  0  0  0
  1  2  1  0
  2  3  2  0
  2  4  2  0
  2  5  1  0
  5  6  1  0
  6  7  1  0
  7  8  1  0
  8  9  1  0
  9 10  1  0
 10 11  1  0
 11 12  1  0
 12 13  1  0
 11 14  1  0
 14 15  1  0
 15  8  1  0
A    1
 C1 
A    2
 S1 
A    3
 O1 
A    4
 O2 
A    5
 N1 
A    6
 C2 
A    7
 C3 
A    8
 N2 
A    9
 C4 
A   10
 C5 
A   11
 C6 
A   12
 C7 
A   13
 O3 
A   14
 C8 
A   15
 C9 
M  END
>  <ref_pdb>  (62) 
Ax0310a

>  <ref_mols>  (62) 
Ax0446a,Ax1080a,Ax0812a,Ax0719a,Ax1140a,Ax0528a,Ax0310a

>  <original SMILES>  (62) 
CS(=O)(=O)NCCN1CCC(CO)CC1

>  <rationale>  (62) 
info info set:sulfonimide_whole;hbond:G127+F83; hydroph_interaction:L100+L131; 

>  <experiment>  (62) 
sulfonimide_whole

>  <cluster_label>  (62) 
15

>  <cluster_rank>  (62) 
4

>  <N_interactions>  (62) 
5

>  <∆∆G>  (62) 
-4.095492

>  <comRMSD>  (62) 
0.748173

>  <ROCS_TanimotoCombo>  (62) 
0.324

>  <ROCS_ShapeTanimoto>  (62) 
0.179

>  <ROCS_ColorTanimoto>  (62) 
0.144

$$$$
Z52596195
     RDKit          3D

 27 30  0  0  0  0  0  0  0  0999 V2000
   35.7494   11.8886    3.8369 C   0  0  0  0  0  0  0  0  0  0  0  0
   34.8485   11.5634    4.5616 C   0  0  0  0  0  0  0  0  0  0  0  0
   34.4062    9.9354    4.8412 S   0  0  0  0  0  0  0  0  0  0  0  0
   33.1732   10.4427    5.9000 C   0  0  0  0  0  0  0  0  0  0  0  0
   32.3769    9.5692    6.5323 N   0  0  0  0  0  0  0  0  0  0  0  0
   31.4840   10.1944    7.3207 C   0  0  0  0  0  0  0  0  0  0  0  0
   30.5525    9.6608    8.1161 C   0  0  0  0  0  0  0  0  0  0  0  0
   30.9133    8.4624    8.7415 N   0  0  0  0  0  0  0  0  0  0  0  0
   30.3131    8.5908    9.8270 C   0  0  0  0  0  0  0  0  0  0  0  0
   30.5565    7.4937   10.4534 C   0  0  0  0  0  0  0  0  0  0  0  0
   29.6886    6.9598    9.6168 C   0  0  0  0  0  0  0  0  0  0  0  0
   30.0677    7.6020    8.3645 C   0  0  0  0  0  0  0  0  0  0  0  0
   31.4012   11.4891    7.4374 N   0  0  0  0  0  0  0  0  0  0  0  0
   32.0629   12.2146    6.9093 C   0  0  0  0  0  0  0  0  0  0  0  0
   31.7634   13.5046    7.2104 O   0  0  0  0  0  0  0  0  0  0  0  0
   30.4431   13.6860    7.6081 C   0  0  0  0  0  0  0  0  0  0  0  0
   29.4356   13.2984    6.6966 C   0  0  0  0  0  0  0  0  0  0  0  0
   28.0905   13.4809    7.0229 C   0  0  0  0  0  0  0  0  0  0  0  0
   27.7959   14.0460    8.2534 C   0  0  0  0  0  0  0  0  0  0  0  0
   28.7779   14.4181    9.1487 C   0  0  0  0  0  0  0  0  0  0  0  0
   30.1164   14.2516    8.8560 C   0  0  0  0  0  0  0  0  0  0  0  0
   31.1770   14.6704    9.8223 C   0  0  0  0  0  0  0  0  0  0  0  0
   30.7730   15.4391   10.8859 N   0  0  0  0  0  0  0  0  0  0  0  0
   32.3426   14.3484    9.6711 O   0  0  0  0  0  0  0  0  0  0  0  0
   33.0810   11.8120    6.0419 C   0  0  0  0  0  0  0  0  0  0  0  0
   34.0392   12.4474    5.2763 C   0  0  0  0  0  0  0  0  0  0  0  0
   34.1630   13.9413    5.2518 C   0  0  0  0  0  0  0  0  0  0  0  0
  1  2  1  0
  2  3  1  0
  3  4  1  0
  4  5  2  0
  5  6  1  0
  6  7  1  0
  7  8  1  0
  8  9  1  0
  9 10  1  0
 10 11  1  0
 11 12  1  0
  6 13  2  0
 13 14  1  0
 14 15  1  0
 15 16  1  0
 16 17  2  0
 17 18  1  0
 18 19  2  0
 19 20  1  0
 20 21  2  0
 21 22  1  0
 22 23  1  0
 22 24  2  0
 14 25  2  0
 25 26  1  0
 26 27  1  0
 26  2  2  0
 25  4  1  0
 12  8  1  0
 21 16  1  0
A    1
 C1 
A    2
 C2 
A    3
 S1 
A    4
 C3 
A    5
 N1 
A    6
 C4 
A    7
 C5 
A    8
 N2 
A    9
 C6 
A   10
 C7 
A   11
 C8 
A   12
 C9 
A   13
 N3 
A   14
 C10
A   15
 O1 
A   16
 C11
A   17
 C12
A   18
 C13
A   19
 C14
A   20
 C15
A   21
 C16
A   22
 C17
A   23
 N4 
A   24
 O2 
A   25
 C18
A   26
 C19
A   27
 C20
M  END
>  <ref_pdb>  (63) 
Ax0310a

>  <ref_mols>  (63) 
Ax0446a,Ax1080a,Ax0812a,Ax0719a,Ax1140a,Ax0528a,Ax0310a

>  <original SMILES>  (63) 
Cc1sc2nc(CN3CCCC3)nc(Oc3ccccc3C(N)=O)c2c1C

>  <rationale>  (63) 
info info set:screening_whole;hbond:S87+G127+Q95; hydroph_interaction:Y90+V124+D109+V132; pistack:H21; 

>  <experiment>  (63) 
screening_whole

>  <cluster_label>  (63) 
18

>  <cluster_rank>  (63) 
4

>  <N_interactions>  (63) 
8

>  <∆∆G>  (63) 
-0.008227

>  <comRMSD>  (63) 
0.993976

>  <ROCS_TanimotoCombo>  (63) 
0.461

>  <ROCS_ShapeTanimoto>  (63) 
0.272

>  <ROCS_ColorTanimoto>  (63) 
0.189

$$$$
Z55729775
     RDKit          3D

 21 24  0  0  0  0  0  0  0  0999 V2000
   32.3412    8.0816    7.0973 O   0  0  0  0  0  0  0  0  0  0  0  0
   32.0257    9.2172    7.1404 C   0  0  0  0  0  0  0  0  0  0  0  0
   30.9551    9.6228    7.8159 N   0  0  0  0  0  0  0  0  0  0  0  0
   30.7583   10.9115    8.2441 N   0  0  0  0  0  0  0  0  0  0  0  0
   31.5352   11.8415    7.7914 C   0  0  0  0  0  0  0  0  0  0  0  0
   31.1532   13.1909    8.3483 C   0  0  0  0  0  0  0  0  0  0  0  0
   31.8389   13.9772    9.2257 N   0  0  0  0  0  0  0  0  0  0  0  0
   31.0709   15.0913    9.4383 N   0  0  0  0  0  0  0  0  0  0  0  0
   29.9821   14.9581    8.6952 C   0  0  0  0  0  0  0  0  0  0  0  0
   30.0374   13.7817    8.0295 N   0  0  0  0  0  0  0  0  0  0  0  0
   29.0912   13.2957    7.1737 C   0  0  0  0  0  0  0  0  0  0  0  0
   27.7282   13.1634    7.8087 C   0  0  0  0  0  0  0  0  0  0  0  0
   27.2396   14.5970    7.6860 C   0  0  0  0  0  0  0  0  0  0  0  0
   27.7540   15.2611    8.9471 C   0  0  0  0  0  0  0  0  0  0  0  0
   28.9286   15.8463    8.5572 C   0  0  0  0  0  0  0  0  0  0  0  0
   32.6334   11.5990    6.8146 C   0  0  0  0  0  0  0  0  0  0  0  0
   33.4240   12.5974    6.2251 C   0  0  0  0  0  0  0  0  0  0  0  0
   34.4197   12.2348    5.3234 C   0  0  0  0  0  0  0  0  0  0  0  0
   34.6624   10.7807    4.9652 C   0  0  0  0  0  0  0  0  0  0  0  0
   33.8457    9.8388    5.5835 C   0  0  0  0  0  0  0  0  0  0  0  0
   32.8564   10.2389    6.4900 C   0  0  0  0  0  0  0  0  0  0  0  0
  1  2  2  0
  2  3  1  0
  3  4  1  0
  4  5  2  0
  5  6  1  0
  6  7  2  0
  7  8  1  0
  8  9  2  0
  9 10  1  0
 10 11  1  0
 11 12  1  0
 12 13  1  0
 13 14  1  0
 14 15  1  0
  5 16  1  0
 16 17  2  0
 17 18  1  0
 18 19  2  0
 19 20  1  0
 20 21  2  0
 21  2  1  0
 10  6  1  0
 21 16  1  0
 15  9  1  0
A    1
 O1 
A    2
 C1 
A    3
 N1 
A    4
 N2 
A    5
 C2 
A    6
 C3 
A    7
 N3 
A    8
 N4 
A    9
 C4 
A   10
 N5 
A   11
 C5 
A   12
 C6 
A   13
 C7 
A   14
 C8 
A   15
 C9 
A   16
 C10
A   17
 C11
A   18
 C12
A   19
 C13
A   20
 C14
A   21
 C15
M  END
>  <ref_pdb>  (64) 
Ax0310a

>  <ref_mols>  (64) 
Ax0446a,Ax1080a,Ax0812a,Ax0719a,Ax1140a,Ax0528a,Ax0310a

>  <original SMILES>  (64) 
O=c1[nH]nc(-c2nnc3n2CCCCC3)c2ccccc12

>  <rationale>  (64) 
info info set:screening_whole;hbond:S87+E106; hydroph_interaction:Y89+Y90; 

>  <experiment>  (64) 
screening_whole

>  <cluster_label>  (64) 
6

>  <cluster_rank>  (64) 
4

>  <N_interactions>  (64) 
4

>  <∆∆G>  (64) 
-4.380585

>  <comRMSD>  (64) 
0.438316

>  <ROCS_TanimotoCombo>  (64) 
0.459

>  <ROCS_ShapeTanimoto>  (64) 
0.253

>  <ROCS_ColorTanimoto>  (64) 
0.206

$$$$
Z1343739145
     RDKit          3D

 24 26  0  0  0  0  0  0  0  0999 V2000
   30.1743   14.8040    9.7560 C   0  0  0  0  0  0  0  0  0  0  0  0
   29.1880   14.8801    8.6135 C   0  0  0  0  0  0  0  0  0  0  0  0
   28.7401   15.9725    8.0859 N   0  0  0  0  0  0  0  0  0  0  0  0
   27.9078   15.5003    7.1035 O   0  0  0  0  0  0  0  0  0  0  0  0
   27.8389   14.1638    7.0263 C   0  0  0  0  0  0  0  0  0  0  0  0
   26.9460   13.3939    5.9601 C   0  0  0  0  0  0  0  0  0  0  0  0
   28.6101   13.7402    7.9437 C   0  0  0  0  0  0  0  0  0  0  0  0
   28.8470   12.4126    8.2271 C   0  0  0  0  0  0  0  0  0  0  0  0
   30.1644   12.1562    7.8778 N   0  0  0  0  0  0  0  0  0  0  0  0
   30.3015   12.4875    6.4881 C   0  0  0  0  0  0  0  0  0  0  0  0
   30.7531   10.9851    8.1716 C   0  0  0  0  0  0  0  0  0  0  0  0
   30.4452   10.2138    9.0556 O   0  0  0  0  0  0  0  0  0  0  0  0
   31.8414   10.5851    7.2890 C   0  0  0  0  0  0  0  0  0  0  0  0
   31.9422    9.1437    7.0676 C   0  0  0  0  0  0  0  0  0  0  0  0
   30.9869    8.3638    7.7882 O   0  0  0  0  0  0  0  0  0  0  0  0
   32.8291    8.6033    6.2788 N   0  0  0  0  0  0  0  0  0  0  0  0
   33.6943    9.3886    5.6361 C   0  0  0  0  0  0  0  0  0  0  0  0
   34.7318    8.7124    4.6725 C   0  0  0  0  0  0  0  0  0  0  0  0
   35.7264    9.6684    3.9517 C   0  0  0  0  0  0  0  0  0  0  0  0
   35.5327   11.1502    4.3094 C   0  0  0  0  0  0  0  0  0  0  0  0
   34.5997   11.6644    5.1585 C   0  0  0  0  0  0  0  0  0  0  0  0
   33.6898   10.8891    5.8179 C   0  0  0  0  0  0  0  0  0  0  0  0
   32.7292   11.4447    6.6753 C   0  0  0  0  0  0  0  0  0  0  0  0
   32.6868   12.9239    6.8921 C   0  0  0  0  0  0  0  0  0  0  0  0
  1  2  1  0
  2  3  2  0
  3  4  1  0
  4  5  1  0
  5  6  1  0
  5  7  2  0
  7  8  1  0
  8  9  1  0
  9 10  1  0
  9 11  1  0
 11 12  2  0
 11 13  1  0
 13 14  2  0
 14 15  1  0
 14 16  1  0
 16 17  2  0
 17 18  1  0
 18 19  2  0
 19 20  1  0
 20 21  2  0
 21 22  1  0
 22 23  2  0
 23 24  1  0
  7  2  1  0
 23 13  1  0
 22 17  1  0
A    1
 C1 
A    2
 C2 
A    3
 N1 
A    4
 O1 
A    5
 C3 
A    6
 C4 
A    7
 C5 
A    8
 C6 
A    9
 N2 
A   10
 C7 
A   11
 C8 
A   12
 O2 
A   13
 C9 
A   14
 C10
A   15
 O3 
A   16
 N3 
A   17
 C11
A   18
 C12
A   19
 C13
A   20
 C14
A   21
 C15
A   22
 C16
A   23
 C17
A   24
 C18
M  END
>  <ref_pdb>  (65) 
Ax0310a

>  <ref_mols>  (65) 
Ax0446a,Ax1080a,Ax0812a,Ax0719a,Ax1140a,Ax0528a,Ax0310a

>  <original SMILES>  (65) 
Cc1noc(C)c1CN(C)C(=O)c1c(O)nc2ccccc2c1C

>  <rationale>  (65) 
info info set:screening_pocket;hbond:S87+S105+Y90; hydroph_interaction:P107+Y89+Y90; pication:H21; 

>  <experiment>  (65) 
screening_pocket

>  <cluster_label>  (65) 
12

>  <cluster_rank>  (65) 
4

>  <N_interactions>  (65) 
7

>  <∆∆G>  (65) 
-2.951507

>  <comRMSD>  (65) 
0.793115

>  <ROCS_TanimotoCombo>  (65) 
0.656

>  <ROCS_ShapeTanimoto>  (65) 
0.299

>  <ROCS_ColorTanimoto>  (65) 
0.357

$$$$
Z963454974
     RDKit          3D

 18 20  0  0  0  0  0  0  0  0999 V2000
   27.9541   13.4568   10.3610 N   0  0  0  0  0  0  0  0  0  0  0  0
   28.6080   13.0286    9.1202 C   0  0  0  0  0  0  0  0  0  0  0  0
   29.4472   14.0993    8.5702 C   0  0  0  0  0  0  0  0  0  0  0  0
   30.8989   13.7370    8.6609 C   0  0  0  0  0  0  0  0  0  0  0  0
   31.6767   14.4243    9.3067 O   0  0  0  0  0  0  0  0  0  0  0  0
   31.3420   12.6640    8.0535 N   0  0  0  0  0  0  0  0  0  0  0  0
   32.2194   12.6515    7.0387 C   0  0  0  0  0  0  0  0  0  0  0  0
   32.3839   11.2032    6.8509 C   0  0  0  0  0  0  0  0  0  0  0  0
   33.5291   10.6120    6.0852 C   0  0  0  0  0  0  0  0  0  0  0  0
   33.3293    9.0960    6.1907 C   0  0  0  0  0  0  0  0  0  0  0  0
   32.1338    8.5135    6.9838 C   0  0  0  0  0  0  0  0  0  0  0  0
   31.1733    9.1936    7.6088 C   0  0  0  0  0  0  0  0  0  0  0  0
   31.3814   10.6056    7.4788 C   0  0  0  0  0  0  0  0  0  0  0  0
   30.5099   11.4504    8.0293 C   0  0  0  0  0  0  0  0  0  0  0  0
   29.2088   15.3387    9.3304 C   0  0  0  0  0  0  0  0  0  0  0  0
   28.1481   15.9004    8.5534 C   0  0  0  0  0  0  0  0  0  0  0  0
   27.6086   14.7302    7.6743 C   0  0  0  0  0  0  0  0  0  0  0  0
   28.7849   14.2133    7.2036 C   0  0  0  0  0  0  0  0  0  0  0  0
  1  2  3  0
  2  3  1  0
  3  4  1  0
  4  5  2  0
  4  6  1  0
  6  7  1  0
  7  8  1  0
  8  9  2  0
  9 10  1  0
 10 11  2  0
 11 12  1  0
 12 13  2  0
 13 14  1  0
  3 15  1  0
 15 16  1  0
 16 17  1  0
 17 18  1  0
 18  3  1  0
 14  6  1  0
 13  8  1  0
A    1
 N1 
A    2
 C1 
A    3
 C2 
A    4
 C3 
A    5
 O1 
A    6
 N2 
A    7
 C4 
A    8
 C5 
A    9
 C6 
A   10
 C7 
A   11
 C8 
A   12
 C9 
A   13
 C10
A   14
 C11
A   15
 C12
A   16
 C13
A   17
 C14
A   18
 C15
M  END
>  <ref_pdb>  (66) 
Ax0310a

>  <ref_mols>  (66) 
Ax0446a,Ax1080a,Ax0812a,Ax0719a,Ax1140a,Ax0528a,Ax0310a

>  <original SMILES>  (66) 
N#CC1(C(=O)N2Cc3ccccc3C2)CCCC1

>  <rationale>  (66) 
info info set:3d;hbond:S87+H21; hydroph_interaction:Y89+Y90; 

>  <experiment>  (66) 
3d

>  <cluster_label>  (66) 
7

>  <cluster_rank>  (66) 
4

>  <N_interactions>  (66) 
4

>  <∆∆G>  (66) 
-2.039936

>  <comRMSD>  (66) 
0.741072

>  <ROCS_TanimotoCombo>  (66) 
0.317

>  <ROCS_ShapeTanimoto>  (66) 
0.205

>  <ROCS_ColorTanimoto>  (66) 
0.111

$$$$
EN300_39484
     RDKit          3D

 20 21  0  0  0  0  0  0  0  0999 V2000
   41.3691   12.1660   12.7585 N   0  0  0  0  0  0  0  0  0  0  0  0
   40.9741   12.6306   11.1811 S   0  0  0  0  0  6  0  0  0  0  0  0
   41.7149   11.7245   10.3213 O   0  0  0  0  0  0  0  0  0  0  0  0
   41.0548   14.0625   11.0926 O   0  0  0  0  0  0  0  0  0  0  0  0
   39.2745   12.1978   11.1654 C   0  0  0  0  0  0  0  0  0  0  0  0
   38.8427   11.2414   12.1332 C   0  0  0  0  0  0  0  0  0  0  0  0
   37.4214   10.8675   12.1158 C   0  0  0  0  0  0  0  0  0  0  0  0
   36.3220   11.4293   11.1301 C   0  0  0  0  0  0  0  0  0  0  0  0
   36.8703   12.4006   10.2076 C   0  0  0  0  0  0  0  0  0  0  0  0
   35.9702   13.0722    9.1636 N   0  0  0  0  0  0  0  0  0  0  0  0
   34.5188   13.1804    8.8803 C   0  0  0  0  0  0  0  0  0  0  0  0
   33.6444   13.4285    9.6684 O   0  0  0  0  0  0  0  0  0  0  0  0
   34.1073   12.9502    7.5058 O   0  0  0  0  0  0  0  0  0  0  0  0
   33.1043   11.9303    7.3770 C   0  0  0  0  0  0  0  0  0  0  0  0
   33.3603   10.7403    6.6743 C   0  0  0  0  0  0  0  0  0  0  0  0
   32.3881    9.5772    6.5908 C   0  0  0  0  0  0  0  0  0  0  0  0
   31.1320    9.7807    7.2835 C   0  0  0  0  0  0  0  0  0  0  0  0
   30.8107   11.0745    7.9988 C   0  0  0  0  0  0  0  0  0  0  0  0
   31.8901   12.1529    8.0087 C   0  0  0  0  0  0  0  0  0  0  0  0
   38.3864   12.7671   10.2464 C   0  0  0  0  0  0  0  0  0  0  0  0
  1  2  1  0
  2  3  2  0
  2  4  2  0
  2  5  1  0
  5  6  2  0
  6  7  1  0
  7  8  2  0
  8  9  1  0
  9 10  1  0
 10 11  1  0
 11 12  2  0
 11 13  1  0
 13 14  1  0
 14 15  2  0
 15 16  1  0
 16 17  2  0
 17 18  1  0
 18 19  2  0
  9 20  2  0
 20  5  1  0
 19 14  1  0
A    1
 N1 
A    2
 S1 
A    3
 O1 
A    4
 O2 
A    5
 C1 
A    6
 C2 
A    7
 C3 
A    8
 C4 
A    9
 C5 
A   10
 N2 
A   11
 C6 
A   12
 O3 
A   13
 O4 
A   14
 C7 
A   15
 C8 
A   16
 C9 
A   17
 C10
A   18
 C11
A   19
 C12
A   20
 C13
M  END
>  <ref_pdb>  (67) 
Ax0310a

>  <ref_mols>  (67) 
Ax0446a,Ax1080a,Ax0812a,Ax0719a,Ax1140a,Ax0528a,Ax0310a

>  <original SMILES>  (67) 
NS(=O)(=O)c1cccc(NC(=O)Oc2ccccc2)c1

>  <rationale>  (67) 
info info set:sulfonimide_whole;hbond:G127+N129; hydroph_interaction:L100+L131; 

>  <experiment>  (67) 
sulfonimide_whole

>  <cluster_label>  (67) 
17

>  <cluster_rank>  (67) 
4

>  <N_interactions>  (67) 
4

>  <∆∆G>  (67) 
-1.022937

>  <comRMSD>  (67) 
0.930229

>  <ROCS_TanimotoCombo>  (67) 
0.413

>  <ROCS_ShapeTanimoto>  (67) 
0.251

>  <ROCS_ColorTanimoto>  (67) 
0.162

$$$$
EN300_317907
     RDKit          3D

 13 13  0  0  0  0  0  0  0  0999 V2000
   30.5331    8.9279    8.5753 C   0  0  0  0  0  0  0  0  0  0  0  0
   31.2100    9.8557    7.6476 C   0  0  0  0  0  0  0  0  0  0  0  0
   30.8935   11.0883    7.4525 N   0  0  0  0  0  0  0  0  0  0  0  0
   31.8082   11.4798    6.5333 N   0  0  0  0  0  0  0  0  0  0  0  0
   31.9909   12.8742    6.2886 C   0  0  0  0  0  0  0  0  0  0  0  0
   33.3650   13.3484    6.6616 C   0  0  0  0  0  0  0  0  0  0  0  0
   33.6023   13.7918    8.3721 S   0  0  0  0  0  6  0  0  0  0  0  0
   34.9410   14.7462    8.0902 N   0  0  0  0  0  0  0  0  0  0  0  0
   34.0785   12.7252    9.1493 O   0  0  0  0  0  0  0  0  0  0  0  0
   32.5025   14.5492    8.9337 O   0  0  0  0  0  0  0  0  0  0  0  0
   32.7591   10.5033    6.3488 C   0  0  0  0  0  0  0  0  0  0  0  0
   33.8352   10.5906    5.7791 O   0  0  0  0  0  0  0  0  0  0  0  0
   32.2583    9.3840    6.9373 O   0  0  0  0  0  0  0  0  0  0  0  0
  1  2  1  0
  2  3  2  0
  3  4  1  0
  4  5  1  0
  5  6  1  0
  6  7  1  0
  7  8  1  0
  7  9  2  0
  7 10  2  0
  4 11  1  0
 11 12  2  0
 11 13  1  0
 13  2  1  0
A    1
 C1 
A    2
 C2 
A    3
 N1 
A    4
 N2 
A    5
 C3 
A    6
 C4 
A    7
 S1 
A    8
 N3 
A    9
 O1 
A   10
 O2 
A   11
 C5 
A   12
 O3 
A   13
 O4 
M  END
>  <ref_pdb>  (68) 
Ax0310a

>  <ref_mols>  (68) 
Ax0446a,Ax1080a,Ax0812a,Ax0719a,Ax1140a,Ax0528a,Ax0310a

>  <original SMILES>  (68) 
Cc1nn(CCS(N)(=O)=O)c(=O)o1

>  <rationale>  (68) 
info info set:sulfonimide_whole;hbond:S87+G127+A86; hydroph_interaction:V124; 

>  <experiment>  (68) 
sulfonimide_whole

>  <cluster_label>  (68) 
5

>  <cluster_rank>  (68) 
4

>  <N_interactions>  (68) 
4

>  <∆∆G>  (68) 
-5.999694

>  <comRMSD>  (68) 
0.549096

>  <ROCS_TanimotoCombo>  (68) 
0.369

>  <ROCS_ShapeTanimoto>  (68) 
0.194

>  <ROCS_ColorTanimoto>  (68) 
0.175

$$$$
Z2164393927
     RDKit          3D

 16 16  0  0  0  0  0  0  0  0999 V2000
   28.5920   15.8879    7.5926 N   0  0  0  0  0  0  0  0  0  0  0  0
   28.8947   14.7128    8.1964 C   0  0  0  0  0  0  0  0  0  0  0  0
   29.3326   13.4336    8.8199 C   0  0  0  0  0  0  0  0  0  0  0  0
   30.2940   12.7887    7.9495 N   0  0  0  0  0  0  0  0  0  0  0  0
   30.6013   11.4617    8.0674 C   0  0  0  0  0  0  0  0  0  0  0  0
   30.1217   10.4791    8.9550 O   0  0  0  0  0  0  0  0  0  0  0  0
   31.5861   10.8530    7.1519 C   0  0  0  0  0  0  0  0  0  0  0  0
   31.9477    9.3363    7.2284 C   0  0  0  0  0  0  0  0  0  0  0  0
   32.8161    8.6719    6.4693 N   0  0  0  0  0  0  0  0  0  0  0  0
   33.4628    9.3447    5.5154 C   0  0  0  0  0  0  0  0  0  0  0  0
   33.2713   10.8209    5.2493 C   0  0  0  0  0  0  0  0  0  0  0  0
   34.0260   11.3189    4.2091 C   0  0  0  0  0  0  0  0  0  0  0  0
   35.3645   11.1225    4.3605 F   0  0  0  0  0  0  0  0  0  0  0  0
   33.8403   12.6581    4.0566 F   0  0  0  0  0  0  0  0  0  0  0  0
   33.7018   10.7703    3.0048 F   0  0  0  0  0  0  0  0  0  0  0  0
   32.3832   11.5500    6.0275 C   0  0  0  0  0  0  0  0  0  0  0  0
  1  2  3  0
  2  3  1  0
  3  4  1  0
  4  5  1  0
  5  6  2  0
  5  7  1  0
  7  8  2  0
  8  9  1  0
  9 10  2  0
 10 11  1  0
 11 12  1  0
 12 13  1  0
 12 14  1  0
 12 15  1  0
 11 16  2  0
 16  7  1  0
A    1
 N1 
A    2
 C1 
A    3
 C2 
A    4
 N2 
A    5
 C3 
A    6
 O1 
A    7
 C4 
A    8
 C5 
A    9
 N3 
A   10
 C6 
A   11
 C7 
A   12
 C8 
A   13
 F1 
A   14
 F2 
A   15
 F3 
A   16
 C9 
M  END
>  <ref_pdb>  (69) 
Ax0310a

>  <ref_mols>  (69) 
Ax0446a,Ax1080a,Ax0812a,Ax0719a,Ax1140a,Ax0528a,Ax0310a

>  <original SMILES>  (69) 
N#CCNC(=O)c1cncc(C(F)(F)F)c1

>  <rationale>  (69) 
info info set:screening_pocket;hbond:S87+Y90+E88; hydroph_interaction:P107; 

>  <experiment>  (69) 
screening_pocket

>  <cluster_label>  (69) 
8

>  <cluster_rank>  (69) 
4

>  <N_interactions>  (69) 
5

>  <∆∆G>  (69) 
-1.632535

>  <comRMSD>  (69) 
0.475227

>  <ROCS_TanimotoCombo>  (69) 
0.675

>  <ROCS_ShapeTanimoto>  (69) 
0.235

>  <ROCS_ColorTanimoto>  (69) 
0.44

$$$$
EN300_26665158
     RDKit          3D

 19 20  0  0  0  0  0  0  0  0999 V2000
   28.5777   15.1023    7.1948 C   0  0  0  0  0  0  0  0  0  0  0  0
   28.7276   14.6556    8.6161 C   0  0  0  0  0  0  0  0  0  0  0  0
   27.4736   15.0845    9.3399 C   0  0  0  0  0  0  0  0  0  0  0  0
   29.9789   15.2103    9.2765 C   0  0  0  0  0  0  0  0  0  0  0  0
   28.8516   13.2556    8.5362 O   0  0  0  0  0  0  0  0  0  0  0  0
   29.8545   12.8245    7.7601 C   0  0  0  0  0  0  0  0  0  0  0  0
   30.2394   13.3937    6.7596 O   0  0  0  0  0  0  0  0  0  0  0  0
   30.3489   11.6892    8.2644 N   0  0  0  0  0  0  0  0  0  0  0  0
   31.2767   10.9047    7.6631 C   0  0  0  0  0  0  0  0  0  0  0  0
   31.2458    9.4379    7.7489 C   0  0  0  0  0  0  0  0  0  0  0  0
   30.0526    8.6206    8.6819 Cl  0  0  0  0  0  0  0  0  0  0  0  0
   32.1147    8.6020    7.1142 N   0  0  0  0  0  0  0  0  0  0  0  0
   33.0323    9.1684    6.3736 C   0  0  0  0  0  0  0  0  0  0  0  0
   33.1636   10.5329    6.2890 N   0  0  0  0  0  0  0  0  0  0  0  0
   34.1019   11.2621    5.6284 C   0  0  0  0  0  0  0  0  0  0  0  0
   35.1008   10.7816    4.9109 O   0  0  0  0  0  0  0  0  0  0  0  0
   33.8860   12.5351    5.8020 N   0  0  0  0  0  0  0  0  0  0  0  0
   32.7686   12.6479    6.6036 N   0  0  0  0  0  0  0  0  0  0  0  0
   32.3373   11.4410    6.8950 C   0  0  0  0  0  0  0  0  0  0  0  0
  1  2  1  0
  2  3  1  0
  2  4  1  0
  2  5  1  0
  5  6  1  0
  6  7  2  0
  6  8  1  0
  8  9  1  0
  9 10  2  0
 10 11  1  0
 10 12  1  0
 12 13  2  0
 13 14  1  0
 14 15  1  0
 15 16  1  0
 15 17  2  0
 17 18  1  0
 18 19  2  0
 19  9  1  0
 19 14  1  0
A    1
 C1 
A    2
 C2 
A    3
 C3 
A    4
 C4 
A    5
 O1 
A    6
 C5 
A    7
 O2 
A    8
 N1 
A    9
 C6 
A   10
 C7 
A   11
CL1 
A   12
 N2 
A   13
 C8 
A   14
 N3 
A   15
 C9 
A   16
 O3 
A   17
 N4 
A   18
 N5 
A   19
 C10
M  END
>  <ref_pdb>  (70) 
Ax0310a

>  <ref_mols>  (70) 
Ax0446a,Ax1080a,Ax0812a,Ax0719a,Ax1140a,Ax0528a,Ax0310a

>  <original SMILES>  (70) 
CC(C)(C)OC(=O)Nc1c(Cl)ncn2c(O)nnc12

>  <rationale>  (70) 
info info set:bb_whole;hbond:S87+S125+G127; hydroph_interaction:Y90+H21; 

>  <experiment>  (70) 
bb_whole

>  <cluster_label>  (70) 
9

>  <cluster_rank>  (70) 
4

>  <N_interactions>  (70) 
6

>  <∆∆G>  (70) 
-4.391066

>  <comRMSD>  (70) 
0.472442

>  <ROCS_TanimotoCombo>  (70) 
0.425

>  <ROCS_ShapeTanimoto>  (70) 
0.258

>  <ROCS_ColorTanimoto>  (70) 
0.167

$$$$
EN300_6717071
     RDKit          3D

 34 39  0  0  0  0  0  0  0  0999 V2000
   30.3428    8.6671    9.8363 N   0  0  0  0  0  0  0  0  0  0  0  0
   30.2937    8.2994    8.4677 C   0  0  0  0  0  0  0  0  0  0  0  0
   31.6490    8.3887    7.9075 C   0  0  0  0  0  0  0  0  0  0  0  0
   31.9974    9.7060    7.4989 N   0  0  0  0  0  0  0  0  0  0  0  0
   31.3046   10.7543    7.9504 C   0  0  0  0  0  0  0  0  0  0  0  0
   30.4660   10.7232    8.8187 O   0  0  0  0  0  0  0  0  0  0  0  0
   31.6288   12.0468    7.2614 C   0  0  1  0  0  0  0  0  0  0  0  0
   30.4670   12.4726    6.5106 N   0  0  0  0  0  0  0  0  0  0  0  0
   29.6093   13.2904    7.2008 C   0  0  0  0  0  0  0  0  0  0  0  0
   28.1304   13.4028    6.7578 C   0  0  0  0  0  0  0  0  0  0  0  0
   27.2571   14.3227    7.5238 C   0  0  0  0  0  0  0  0  0  0  0  0
   27.7518   15.0418    8.6101 C   0  0  0  0  0  0  0  0  0  0  0  0
   29.1019   14.8724    8.9416 C   0  0  0  0  0  0  0  0  0  0  0  0
   29.9985   14.0531    8.2821 C   0  0  0  0  0  0  0  0  0  0  0  0
   31.4737   14.0033    8.7057 C   0  0  0  0  0  0  0  0  0  0  0  0
   31.8869   14.9134    9.5193 N   0  0  0  0  0  0  0  0  0  0  0  0
   33.2478   14.9511    9.6623 C   0  0  0  0  0  0  0  0  0  0  0  0
   33.7315   16.0072    9.9149 O   0  0  0  0  0  0  0  0  0  0  0  0
   34.1892   13.7836    9.3401 C   0  0  0  0  0  0  0  0  0  0  0  0
   35.6649   13.5858    9.8458 C   0  0  0  0  0  0  0  0  0  0  0  0
   36.6908   13.7280    8.9139 C   0  0  0  0  0  0  0  0  0  0  0  0
   38.0406   13.5556    9.2817 C   0  0  0  0  0  0  0  0  0  0  0  0
   38.3996   13.2395   10.5815 C   0  0  0  0  0  0  0  0  0  0  0  0
   39.6717   13.0745   10.9523 F   0  0  0  0  0  0  0  0  0  0  0  0
   37.4566   13.0925   11.5200 C   0  0  0  0  0  0  0  0  0  0  0  0
   36.1506   13.2616   11.1791 C   0  0  0  0  0  0  0  0  0  0  0  0
   33.6349   12.9002    8.5269 N   0  0  0  0  0  0  0  0  0  0  0  0
   32.2954   13.0790    8.1150 N   0  0  0  0  0  0  0  0  0  0  0  0
   32.5587   11.4892    6.2220 C   0  0  0  0  0  0  0  0  0  0  0  0
   33.1824   12.1588    5.1955 C   0  0  0  0  0  0  0  0  0  0  0  0
   34.0086   11.4288    4.3496 C   0  0  0  0  0  0  0  0  0  0  0  0
   34.1970   10.0547    4.5486 C   0  0  0  0  0  0  0  0  0  0  0  0
   33.5596    9.3974    5.5881 C   0  0  0  0  0  0  0  0  0  0  0  0
   32.7442   10.1194    6.4111 C   0  0  0  0  0  0  0  0  0  0  0  0
  1  2  3  0
  2  3  1  0
  3  4  1  0
  4  5  1  0
  5  6  2  0
  5  7  1  0
  7  8  1  6
  8  9  1  0
  9 10  2  0
 10 11  1  0
 11 12  2  0
 12 13  1  0
 13 14  2  0
 14 15  1  0
 15 16  2  0
 16 17  1  0
 17 18  2  0
 17 19  1  0
 19 20  1  0
 20 21  2  0
 21 22  1  0
 22 23  2  0
 23 24  1  0
 23 25  1  0
 25 26  2  0
 19 27  2  0
 27 28  1  0
  7 29  1  0
 29 30  2  0
 30 31  1  0
 31 32  2  0
 32 33  1  0
 33 34  2  0
 34  4  1  0
 28  7  1  0
 34 29  1  0
 14  9  1  0
 28 15  1  0
 26 20  1  0
A    1
 N1 
A    2
 C1 
A    3
 C2 
A    4
 N2 
A    5
 C3 
A    6
 O1 
A    7
 C4 
A    8
 N3 
A    9
 C5 
A   10
 C6 
A   11
 C7 
A   12
 C8 
A   13
 C9 
A   14
 C10
A   15
 C11
A   16
 N4 
A   17
 C12
A   18
 O2 
A   19
 C13
A   20
 C14
A   21
 C15
A   22
 C16
A   23
 C17
A   24
 F1 
A   25
 C18
A   26
 C19
A   27
 N5 
A   28
 N6 
A   29
 C20
A   30
 C21
A   31
 C22
A   32
 C23
A   33
 C24
A   34
 C25
M  END
>  <ref_pdb>  (71) 
Ax0310a

>  <ref_mols>  (71) 
Ax0446a,Ax1080a,Ax0812a,Ax0719a,Ax1140a,Ax0528a,Ax0310a

>  <original SMILES>  (71) 
N#CCN1C(=O)[C@]2(Nc3ccccc3-c3nc(=O)c(-c4ccc(F)cc4)nn32)c2ccccc21

>  <rationale>  (71) 
info info set:bb_whole;hbond:S87+S125+G127; hydroph_interaction:P107+Y89+Y90+V84+E85; 

>  <experiment>  (71) 
bb_whole

>  <cluster_label>  (71) 
3

>  <cluster_rank>  (71) 
4

>  <N_interactions>  (71) 
10

>  <∆∆G>  (71) 
-2.189792

>  <comRMSD>  (71) 
0.831449

>  <ROCS_TanimotoCombo>  (71) 
0.422

>  <ROCS_ShapeTanimoto>  (71) 
0.289

>  <ROCS_ColorTanimoto>  (71) 
0.133

$$$$
EN300_6722885
     RDKit          3D

 17 18  0  0  0  0  0  0  0  0999 V2000
   34.1837    8.8734    5.3732 O   0  0  0  0  0  0  0  0  0  0  0  0
   33.1339    9.5277    6.0782 C   0  0  0  0  0  0  0  0  0  0  0  0
   33.0796   10.8424    5.8514 N   0  0  0  0  0  0  0  0  0  0  0  0
   32.0827   11.4860    6.4961 C   0  0  0  0  0  0  0  0  0  0  0  0
   31.0778   10.7862    7.4183 C   0  0  0  0  0  0  0  0  0  0  0  0
   29.9993   11.3898    8.1089 N   0  0  0  0  0  0  0  0  0  0  0  0
   30.0113   12.8420    8.1625 C   0  0  0  0  0  0  0  0  0  0  0  0
   29.0658   13.6264    7.2892 C   0  0  0  0  0  0  0  0  0  0  0  0
   27.6480   13.1884    7.3720 C   0  0  0  0  0  0  0  0  0  0  0  0
   27.4311   12.2772    6.4954 C   0  0  0  0  0  0  0  0  0  0  0  0
   26.2106   11.6865    6.2690 C   0  0  0  0  0  0  0  0  0  0  0  0
   25.1699   12.0690    7.0457 C   0  0  0  0  0  0  0  0  0  0  0  0
   25.3655   13.0347    8.0136 C   0  0  0  0  0  0  0  0  0  0  0  0
   26.6289   13.6172    8.1803 C   0  0  0  0  0  0  0  0  0  0  0  0
   31.3579    9.4230    7.4924 C   0  0  0  0  0  0  0  0  0  0  0  0
   30.5928    8.5927    8.2618 O   0  0  0  0  0  0  0  0  0  0  0  0
   32.3400    8.7851    6.8631 N   0  0  0  0  0  0  0  0  0  0  0  0
  1  2  1  0
  2  3  2  0
  3  4  1  0
  4  5  2  0
  5  6  1  0
  6  7  1  0
  7  8  1  0
  8  9  1  0
  9 10  2  0
 10 11  1  0
 11 12  2  0
 12 13  1  0
 13 14  2  0
  5 15  1  0
 15 16  1  0
 15 17  2  0
 17  2  1  0
 14  9  1  0
A    1
 O1 
A    2
 C1 
A    3
 N1 
A    4
 C2 
A    5
 C3 
A    6
 N2 
A    7
 C4 
A    8
 C5 
A    9
 C6 
A   10
 C7 
A   11
 C8 
A   12
 C9 
A   13
 C10
A   14
 C11
A   15
 C12
A   16
 O2 
A   17
 N3 
M  END
>  <ref_pdb>  (72) 
Ax0310a

>  <ref_mols>  (72) 
Ax0446a,Ax1080a,Ax0812a,Ax0719a,Ax1140a,Ax0528a,Ax0310a

>  <original SMILES>  (72) 
Oc1ncc(NCCc2ccccc2)c(O)n1

>  <rationale>  (72) 
info info set:bb_densepocket2;hbond:S105+G127; hydroph_interaction:P107+Y89+Y90+H21+L22; 

>  <experiment>  (72) 
bb_densepocket2

>  <cluster_label>  (72) 
16

>  <cluster_rank>  (72) 
4

>  <N_interactions>  (72) 
7

>  <∆∆G>  (72) 
-3.535581

>  <comRMSD>  (72) 
0.582502

>  <ROCS_TanimotoCombo>  (72) 
0.619

>  <ROCS_ShapeTanimoto>  (72) 
0.234

>  <ROCS_ColorTanimoto>  (72) 
0.385

$$$$
Z56826073
     RDKit          3D

 18 20  0  0  0  0  0  0  0  0999 V2000
   35.5604   13.7639    9.7623 C   0  0  0  0  0  0  0  0  0  0  0  0
   35.4157   13.7980    8.3448 N   0  0  0  0  0  0  0  0  0  0  0  0
   34.0153   14.5022    7.8298 S   0  0  0  0  0  6  0  0  0  0  0  0
   33.5822   15.1962    9.0417 O   0  0  0  0  0  0  0  0  0  0  0  0
   34.2000   15.0515    6.5152 O   0  0  0  0  0  0  0  0  0  0  0  0
   32.9447   13.1589    7.6722 C   0  0  0  0  0  0  0  0  0  0  0  0
   31.6485   13.1405    8.4271 C   0  0  0  0  0  0  0  0  0  0  0  0
   30.6444   11.9325    8.4413 C   0  0  0  0  0  0  0  0  0  0  0  0
   31.3729   11.0219    7.6803 C   0  0  0  0  0  0  0  0  0  0  0  0
   32.5393   11.0814    6.9964 C   0  0  0  0  0  0  0  0  0  0  0  0
   32.8677    9.9066    6.3841 C   0  0  0  0  0  0  0  0  0  0  0  0
   33.9272    9.6811    5.5173 C   0  0  0  0  0  0  0  0  0  0  0  0
   34.7640   10.7323    5.2718 C   0  0  0  0  0  0  0  0  0  0  0  0
   34.5454   11.9579    5.9347 C   0  0  0  0  0  0  0  0  0  0  0  0
   33.3580   12.1358    6.8778 C   0  0  0  0  0  0  0  0  0  0  0  0
   31.9253    9.0528    6.9031 C   0  0  0  0  0  0  0  0  0  0  0  0
   32.0625    7.9203    6.9571 O   0  0  0  0  0  0  0  0  0  0  0  0
   30.9004    9.7513    7.4851 N   0  0  0  0  0  0  0  0  0  0  0  0
  1  2  1  0
  2  3  1  0
  3  4  2  0
  3  5  2  0
  3  6  1  0
  6  7  2  0
  7  8  1  0
  8  9  2  0
  9 10  1  0
 10 11  2  0
 11 12  1  0
 12 13  2  0
 13 14  1  0
 14 15  2  0
 11 16  1  0
 16 17  2  0
 16 18  1  0
 15  6  1  0
 18  9  1  0
 15 10  1  0
A    1
 C1 
A    2
 N1 
A    3
 S1 
A    4
 O1 
A    5
 O2 
A    6
 C2 
A    7
 C3 
A    8
 C4 
A    9
 C5 
A   10
 C6 
A   11
 C7 
A   12
 C8 
A   13
 C9 
A   14
 C10
A   15
 C11
A   16
 C12
A   17
 O3 
A   18
 N2 
M  END
>  <ref_pdb>  (73) 
Ax0310a

>  <ref_mols>  (73) 
Ax0446a,Ax1080a,Ax0812a,Ax0719a,Ax1140a,Ax0528a,Ax0310a

>  <original SMILES>  (73) 
CNS(=O)(=O)c1ccc2c3c(cccc13)C(=O)N2

>  <rationale>  (73) 
info info set:3d;hbond:G127+E106; 

>  <experiment>  (73) 
3d

>  <cluster_label>  (73) 
6

>  <cluster_rank>  (73) 
5

>  <N_interactions>  (73) 
2

>  <∆∆G>  (73) 
-1.918587

>  <comRMSD>  (73) 
0.963765

>  <ROCS_TanimotoCombo>  (73) 
0.366

>  <ROCS_ShapeTanimoto>  (73) 
0.211

>  <ROCS_ColorTanimoto>  (73) 
0.155

$$$$
Z45515797
     RDKit          3D

 17 18  0  0  0  0  0  0  0  0999 V2000
   31.5474   13.8840    7.4089 O   0  0  0  0  0  0  0  0  0  0  0  0
   30.6501   13.0994    8.1169 S   0  0  0  0  0  6  0  0  0  0  0  0
   30.5904   13.3091    9.5181 O   0  0  0  0  0  0  0  0  0  0  0  0
   31.3472   11.5794    7.5392 C   0  0  0  0  0  0  0  0  0  0  0  0
   32.3926   11.8167    6.5447 C   0  0  0  0  0  0  0  0  0  0  0  0
   33.1815   10.9204    5.8570 C   0  0  0  0  0  0  0  0  0  0  0  0
   32.9391    9.6241    6.1590 C   0  0  0  0  0  0  0  0  0  0  0  0
   33.7025    8.7735    5.4971 F   0  0  0  0  0  0  0  0  0  0  0  0
   31.8974    9.0738    7.1651 C   0  0  0  0  0  0  0  0  0  0  0  0
   31.0479   10.1239    7.9024 C   0  0  0  0  0  0  0  0  0  0  0  0
   30.1421    9.7251    8.7812 F   0  0  0  0  0  0  0  0  0  0  0  0
   29.0958   13.2767    7.5026 N   0  0  0  0  0  0  0  0  0  0  0  0
   28.8018   14.3805    6.8231 C   0  0  0  0  0  0  0  0  0  0  0  0
   28.7780   15.4725    7.6877 C   0  0  0  0  0  0  0  0  0  0  0  0
   27.8626   15.4274    8.6723 O   0  0  0  0  0  0  0  0  0  0  0  0
   28.0616   14.2125    9.3710 C   0  0  0  0  0  0  0  0  0  0  0  0
   28.1909   13.1350    8.4857 C   0  0  0  0  0  0  0  0  0  0  0  0
  1  2  2  0
  2  3  2  0
  2  4  1  0
  4  5  2  0
  5  6  1  0
  6  7  2  0
  7  8  1  0
  7  9  1  0
  9 10  2  0
 10 11  1  0
  2 12  1  0
 12 13  1  0
 13 14  1  0
 14 15  1  0
 15 16  1  0
 16 17  1  0
 10  4  1  0
 17 12  1  0
A    1
 O1 
A    2
 S1 
A    3
 O2 
A    4
 C1 
A    5
 C2 
A    6
 C3 
A    7
 C4 
A    8
 F1 
A    9
 C5 
A   10
 C6 
A   11
 F2 
A   12
 N1 
A   13
 C7 
A   14
 C8 
A   15
 O3 
A   16
 C9 
A   17
 C10
M  END
>  <ref_pdb>  (74) 
Ax0310a

>  <ref_mols>  (74) 
Ax0446a,Ax1080a,Ax0812a,Ax0719a,Ax1140a,Ax0528a,Ax0310a

>  <original SMILES>  (74) 
O=S(=O)(c1ccc(F)cc1F)N1CCOCC1

>  <rationale>  (74) 
info info set:3d;halogenbond:C110; hbond:S87; 

>  <experiment>  (74) 
3d

>  <cluster_label>  (74) 
2

>  <cluster_rank>  (74) 
5

>  <N_interactions>  (74) 
2

>  <∆∆G>  (74) 
-0.378576

>  <comRMSD>  (74) 
0.931613

>  <ROCS_TanimotoCombo>  (74) 
0.319

>  <ROCS_ShapeTanimoto>  (74) 
0.21

>  <ROCS_ColorTanimoto>  (74) 
0.109

$$$$
EN300_7530327
     RDKit          3D

 15 15  0  0  0  0  0  0  0  0999 V2000
   40.5232   12.5516   13.7681 C   0  0  0  0  0  0  0  0  0  0  0  0
   40.1816   12.8498   12.4433 C   0  0  0  0  0  0  0  0  0  0  0  0
   41.1015   13.7357   11.7672 O   0  0  0  0  0  0  0  0  0  0  0  0
   39.0373   12.2986   11.8927 N   0  0  0  0  0  0  0  0  0  0  0  0
   38.3771   11.2059   12.5817 C   0  0  0  0  0  0  0  0  0  0  0  0
   37.0442   11.2411   12.2551 C   0  0  0  0  0  0  0  0  0  0  0  0
   36.7495   11.4209   10.9126 C   0  0  0  0  0  0  0  0  0  0  0  0
   37.2307   12.5423   10.2015 C   0  0  1  0  0  0  0  0  0  0  0  0
   36.2930   13.5250    9.4511 C   0  0  0  0  0  0  0  0  0  0  0  0
   34.8960   13.0124    9.3039 N   0  0  0  0  0  0  0  0  0  0  0  0
   33.7926   13.4453    8.0612 S   0  0  0  0  0  6  0  0  0  0  0  0
   32.9808   12.0013    7.3474 C   0  0  0  0  0  0  0  0  0  0  0  0
   32.7510   14.0773    8.8205 O   0  0  0  0  0  0  0  0  0  0  0  0
   34.4958   14.0949    6.9893 O   0  0  0  0  0  0  0  0  0  0  0  0
   38.1206   13.2279   11.2272 C   0  0  0  0  0  0  0  0  0  0  0  0
  1  2  1  0
  2  3  2  0
  2  4  1  0
  4  5  1  0
  5  6  1  0
  6  7  1  0
  7  8  1  0
  8  9  1  1
  9 10  1  0
 10 11  1  0
 11 12  1  0
 11 13  2  0
 11 14  2  0
  8 15  1  0
 15  4  1  0
A    1
 C1 
A    2
 C2 
A    3
 O1 
A    4
 N1 
A    5
 C3 
A    6
 C4 
A    7
 C5 
A    8
 C6 
A    9
 C7 
A   10
 N2 
A   11
 S1 
A   12
 C8 
A   13
 O2 
A   14
 O3 
A   15
 C9 
M  END
>  <ref_pdb>  (75) 
Ax0310a

>  <ref_mols>  (75) 
Ax0446a,Ax1080a,Ax0812a,Ax0719a,Ax1140a,Ax0528a,Ax0310a

>  <original SMILES>  (75) 
CC(=O)N1CCC[C@@H](CNS(C)(=O)=O)C1

>  <rationale>  (75) 
info info set:sulfonimide_whole;hbond:S87+G127; hydroph_interaction:L100+I82; 

>  <experiment>  (75) 
sulfonimide_whole

>  <cluster_label>  (75) 
15

>  <cluster_rank>  (75) 
5

>  <N_interactions>  (75) 
5

>  <∆∆G>  (75) 
-3.718898

>  <comRMSD>  (75) 
0.905002

>  <ROCS_TanimotoCombo>  (75) 
0.309

>  <ROCS_ShapeTanimoto>  (75) 
0.186

>  <ROCS_ColorTanimoto>  (75) 
0.123

$$$$
Z2055842473
     RDKit          3D

 18 19  0  0  0  0  0  0  0  0999 V2000
   30.3735    8.0544    8.6419 C   0  0  0  0  0  0  0  0  0  0  0  0
   30.6520    8.5976    7.3810 O   0  0  0  0  0  0  0  0  0  0  0  0
   31.5556    9.6099    7.5403 C   0  0  1  0  0  0  0  0  0  0  0  0
   32.4864    9.9088    6.4385 C   0  0  0  0  0  0  0  0  0  0  0  0
   32.9372   11.3280    6.6494 C   0  0  1  0  0  0  0  0  0  0  0  0
   33.5145   12.1427    5.4549 C   0  0  0  0  0  0  0  0  0  0  0  0
   34.4160   12.8630    5.8715 O   0  0  0  0  0  0  0  0  0  0  0  0
   31.7871   11.9144    7.2602 N   0  0  0  0  0  0  0  0  0  0  0  0
   31.9096   13.1604    7.8930 C   0  0  0  0  0  0  0  0  0  0  0  0
   32.9191   13.7633    8.2251 O   0  0  0  0  0  0  0  0  0  0  0  0
   30.5251   13.6617    8.1629 C   0  0  0  0  0  0  0  0  0  0  0  0
   29.7807   13.6670    6.8405 C   0  0  0  0  0  0  0  0  0  0  0  0
   28.3582   14.1447    6.7453 C   0  0  0  0  0  0  0  0  0  0  0  0
   27.7559   14.5933    8.0735 C   0  0  0  0  0  0  0  0  0  0  0  0
   28.5420   14.5148    9.2389 C   0  0  0  0  0  0  0  0  0  0  0  0
   27.9922   14.9304   10.7456 Cl  0  0  0  0  0  0  0  0  0  0  0  0
   29.9462   14.0536    9.2953 C   0  0  0  0  0  0  0  0  0  0  0  0
   30.8792   10.9353    7.8017 C   0  0  0  0  0  0  0  0  0  0  0  0
  1  2  1  0
  3  2  1  6
  3  4  1  0
  4  5  1  0
  5  6  1  6
  6  7  1  0
  5  8  1  0
  8  9  1  0
  9 10  2  0
  9 11  1  0
 11 12  2  0
 12 13  1  0
 13 14  2  0
 14 15  1  0
 15 16  1  0
 15 17  2  0
  8 18  1  0
 18  3  1  0
 17 11  1  0
A    1
 C1 
A    2
 O1 
A    3
 C2 
A    4
 C3 
A    5
 C4 
A    6
 C5 
A    7
 O2 
A    8
 N1 
A    9
 C6 
A   10
 O3 
A   11
 C7 
A   12
 C8 
A   13
 C9 
A   14
 C10
A   15
 C11
A   16
CL1 
A   17
 C12
A   18
 C13
M  END
>  <ref_pdb>  (76) 
Ax0310a

>  <ref_mols>  (76) 
Ax0446a,Ax1080a,Ax0812a,Ax0719a,Ax1140a,Ax0528a,Ax0310a

>  <original SMILES>  (76) 
CO[C@H]1C[C@@H](CO)N(C(=O)c2cccc(Cl)c2)C1

>  <rationale>  (76) 
info info set:3d;halogenbond:D39; hbond:S87+G127; hydroph_interaction:Y89; 

>  <experiment>  (76) 
3d

>  <cluster_label>  (76) 
18

>  <cluster_rank>  (76) 
5

>  <N_interactions>  (76) 
4

>  <∆∆G>  (76) 
-3.357122

>  <comRMSD>  (76) 
0.604477

>  <ROCS_TanimotoCombo>  (76) 
0.326

>  <ROCS_ShapeTanimoto>  (76) 
0.217

>  <ROCS_ColorTanimoto>  (76) 
0.109

$$$$
EN300_82953
     RDKit          3D

 11 11  0  0  0  0  0  0  0  0999 V2000
   30.4477    8.4492    9.1326 C   0  0  0  0  0  0  0  0  0  0  0  0
   30.3827    9.2437    7.9758 N   0  0  0  0  0  0  0  0  0  0  0  0
   31.4836    9.7076    7.2881 C   0  0  0  0  0  0  0  0  0  0  0  0
   32.3242    8.8604    6.6262 N   0  0  0  0  0  0  0  0  0  0  0  0
   33.3632    9.3841    5.9402 C   0  0  0  0  0  0  0  0  0  0  0  0
   33.6174   10.8855    5.9056 C   0  0  0  0  0  0  0  0  0  0  0  0
   32.7343   11.6667    6.6072 C   0  0  0  0  0  0  0  0  0  0  0  0
   31.6839   11.0757    7.2860 C   0  0  0  0  0  0  0  0  0  0  0  0
   30.8229   12.1083    7.9890 C   0  0  0  0  0  0  0  0  0  0  0  0
   29.4862   12.0442    7.7482 N   0  0  0  0  0  0  0  0  0  0  0  0
   31.2673   12.9647    8.7224 O   0  0  0  0  0  0  0  0  0  0  0  0
  1  2  1  0
  2  3  1  0
  3  4  2  0
  4  5  1  0
  5  6  2  0
  6  7  1  0
  7  8  2  0
  8  9  1  0
  9 10  1  0
  9 11  2  0
  8  3  1  0
A    1
 C1 
A    2
 N1 
A    3
 C2 
A    4
 N2 
A    5
 C3 
A    6
 C4 
A    7
 C5 
A    8
 C6 
A    9
 C7 
A   10
 N3 
A   11
 O1 
M  END
>  <ref_pdb>  (77) 
Ax0310a

>  <ref_mols>  (77) 
Ax0446a,Ax1080a,Ax0812a,Ax0719a,Ax1140a,Ax0528a,Ax0310a

>  <original SMILES>  (77) 
CNc1ncccc1C(N)=O

>  <rationale>  (77) 
info info set:bb_densepocket2;hbond:G127+P107; 

>  <experiment>  (77) 
bb_densepocket2

>  <cluster_label>  (77) 
11

>  <cluster_rank>  (77) 
5

>  <N_interactions>  (77) 
2

>  <∆∆G>  (77) 
-4.527532

>  <comRMSD>  (77) 
0.819452

>  <ROCS_TanimotoCombo>  (77) 
0.613

>  <ROCS_ShapeTanimoto>  (77) 
0.214

>  <ROCS_ColorTanimoto>  (77) 
0.399

$$$$
Z1375235618
     RDKit          3D

 19 20  0  0  0  0  0  0  0  0999 V2000
   32.0536   12.9871    6.0083 C   0  0  0  0  0  0  0  0  0  0  0  0
   32.1143   11.5222    6.3543 C   0  0  0  0  0  0  0  0  0  0  0  0
   33.1936   10.8555    5.6435 N   0  0  0  0  0  0  0  0  0  0  0  0
   33.3028    9.4823    5.9202 C   0  0  0  0  0  0  0  0  0  0  0  0
   34.3597    8.7791    5.2218 O   0  0  0  0  0  0  0  0  0  0  0  0
   32.4029    8.8082    6.8572 N   0  0  0  0  0  0  0  0  0  0  0  0
   31.4365    9.4933    7.4701 C   0  0  0  0  0  0  0  0  0  0  0  0
   30.7224    8.6900    8.2879 O   0  0  0  0  0  0  0  0  0  0  0  0
   31.0983   10.9626    7.3386 C   0  0  0  0  0  0  0  0  0  0  0  0
   30.0642   11.6856    7.9709 N   0  0  0  0  0  0  0  0  0  0  0  0
   28.9596   11.0212    8.4534 C   0  0  0  0  0  0  0  0  0  0  0  0
   28.8792    9.5725    8.5961 O   0  0  0  0  0  0  0  0  0  0  0  0
   27.7143   11.7060    8.9250 C   0  0  0  0  0  0  0  0  0  0  0  0
   28.0919   12.9522    8.2072 C   0  0  0  0  0  0  0  0  0  0  0  0
   27.6198   13.0398    6.8347 C   0  0  0  0  0  0  0  0  0  0  0  0
   27.9577   14.2357    6.0821 C   0  0  0  0  0  0  0  0  0  0  0  0
   28.7036   15.1555    6.8097 C   0  0  0  0  0  0  0  0  0  0  0  0
   29.1249   15.0695    8.0772 N   0  0  0  0  0  0  0  0  0  0  0  0
   28.8159   13.9754    8.7566 C   0  0  0  0  0  0  0  0  0  0  0  0
  1  2  1  0
  2  3  2  0
  3  4  1  0
  4  5  1  0
  4  6  2  0
  6  7  1  0
  7  8  1  0
  7  9  2  0
  9 10  1  0
 10 11  1  0
 11 12  2  0
 11 13  1  0
 13 14  1  0
 14 15  2  0
 15 16  1  0
 16 17  2  0
 17 18  1  0
 18 19  2  0
  9  2  1  0
 19 14  1  0
A    1
 C1 
A    2
 C2 
A    3
 N1 
A    4
 C3 
A    5
 O1 
A    6
 N2 
A    7
 C4 
A    8
 O2 
A    9
 C5 
A   10
 N3 
A   11
 C6 
A   12
 O3 
A   13
 C7 
A   14
 C8 
A   15
 C9 
A   16
 C10
A   17
 C11
A   18
 N4 
A   19
 C12
M  END
>  <ref_pdb>  (78) 
Ax0310a

>  <ref_mols>  (78) 
Ax0446a,Ax1080a,Ax0812a,Ax0719a,Ax1140a,Ax0528a,Ax0310a

>  <original SMILES>  (78) 
Cc1nc(O)nc(O)c1NC(=O)Cc1cccnc1

>  <rationale>  (78) 
info info set:screening_pocket;hbond:S87+S105+C110; hydroph_interaction:Y89; 

>  <experiment>  (78) 
screening_pocket

>  <cluster_label>  (78) 
16

>  <cluster_rank>  (78) 
5

>  <N_interactions>  (78) 
4

>  <∆∆G>  (78) 
-3.495724

>  <comRMSD>  (78) 
0.621095

>  <ROCS_TanimotoCombo>  (78) 
0.673

>  <ROCS_ShapeTanimoto>  (78) 
0.255

>  <ROCS_ColorTanimoto>  (78) 
0.418

$$$$
EN300_6760189
     RDKit          3D

 15 16  0  0  0  0  0  0  0  0999 V2000
   34.8307   14.8950    7.9188 N   0  0  0  0  0  0  0  0  0  0  0  0
   33.9804   13.4661    8.1082 S   0  0  0  0  0  6  0  0  0  0  0  0
   34.0293   12.9335    6.7645 O   0  0  0  0  0  0  0  0  0  0  0  0
   34.5777   12.8377    9.2226 O   0  0  0  0  0  0  0  0  0  0  0  0
   32.3011   13.8531    8.6293 C   0  0  0  0  0  0  0  0  0  0  0  0
   31.9145   14.9737    9.3076 N   0  0  0  0  0  0  0  0  0  0  0  0
   30.5974   15.0053    9.5044 N   0  0  0  0  0  0  0  0  0  0  0  0
   29.7187   13.6854    8.9163 S   0  0  0  0  0  0  0  0  0  0  0  0
   31.1434   12.9481    8.3614 C   0  0  0  0  0  0  0  0  0  0  0  0
   31.4545   11.5973    7.7277 C   0  0  0  0  0  0  0  0  0  0  0  0
   32.4594   11.6196    6.6382 C   0  0  0  0  0  0  0  0  0  0  0  0
   32.8635   10.2680    6.0276 C   0  0  0  0  0  0  0  0  0  0  0  0
   32.1432    9.0597    6.6571 C   0  0  0  0  0  0  0  0  0  0  0  0
   31.2087    9.2640    7.6620 C   0  0  0  0  0  0  0  0  0  0  0  0
   30.8499   10.4525    8.1984 C   0  0  0  0  0  0  0  0  0  0  0  0
  1  2  1  0
  2  3  2  0
  2  4  2  0
  2  5  1  0
  5  6  1  0
  6  7  2  0
  7  8  1  0
  8  9  1  0
  9 10  1  0
 10 11  2  0
 11 12  1  0
 12 13  2  0
 13 14  1  0
 14 15  2  0
  9  5  2  0
 15 10  1  0
A    1
 N1 
A    2
 S1 
A    3
 O1 
A    4
 O2 
A    5
 C1 
A    6
 N2 
A    7
 N3 
A    8
 S2 
A    9
 C2 
A   10
 C3 
A   11
 C4 
A   12
 C5 
A   13
 C6 
A   14
 C7 
A   15
 C8 
M  END
>  <ref_pdb>  (79) 
Ax0310a

>  <ref_mols>  (79) 
Ax0446a,Ax1080a,Ax0812a,Ax0719a,Ax1140a,Ax0528a,Ax0310a

>  <original SMILES>  (79) 
NS(=O)(=O)c1nnsc1-c1ccccc1

>  <rationale>  (79) 
info info set:sulfonimide_whole;hbond:S87+G127+A86; hydroph_interaction:P107; 

>  <experiment>  (79) 
sulfonimide_whole

>  <cluster_label>  (79) 
5

>  <cluster_rank>  (79) 
5

>  <N_interactions>  (79) 
4

>  <∆∆G>  (79) 
-4.500111

>  <comRMSD>  (79) 
0.590884

>  <ROCS_TanimotoCombo>  (79) 
0.356

>  <ROCS_ShapeTanimoto>  (79) 
0.196

>  <ROCS_ColorTanimoto>  (79) 
0.16

$$$$
EN300_23819
     RDKit          3D

 18 19  0  0  0  0  0  0  0  0999 V2000
   39.1578   10.6787   10.7269 C   0  0  0  0  0  0  0  0  0  0  0  0
   39.0484   11.0384   12.2018 C   0  0  2  0  0  0  0  0  0  0  0  0
   37.5517   10.9760   12.4322 C   0  0  0  0  0  0  0  0  0  0  0  0
   37.3131   11.9878   11.4098 C   0  0  0  0  0  0  0  0  0  0  0  0
   36.0235   11.9801   10.7439 C   0  0  0  0  0  0  0  0  0  0  0  0
   36.0057   13.1757    9.7322 C   0  0  0  0  0  0  0  0  0  0  0  0
   34.5628   13.6177    8.7268 S   0  0  0  0  0  6  0  0  0  0  0  0
   35.1525   14.6955    7.5763 N   0  0  0  0  0  0  0  0  0  0  0  0
   33.5823   14.3110    9.5185 O   0  0  0  0  0  0  0  0  0  0  0  0
   33.8697   12.5272    8.0845 O   0  0  0  0  0  0  0  0  0  0  0  0
   37.1898   14.0100    9.5521 C   0  0  0  0  0  0  0  0  0  0  0  0
   38.4320   13.9490   10.2074 C   0  0  0  0  0  0  0  0  0  0  0  0
   38.4560   12.8721   11.2171 C   0  0  0  0  0  0  0  0  0  0  0  0
   39.3437   12.4544   12.0828 N   0  0  0  0  0  0  0  0  0  0  0  0
   40.4376   12.9975   12.6657 C   0  0  0  0  0  0  0  0  0  0  0  0
   41.2526   13.8019   11.9552 O   0  0  0  0  0  0  0  0  0  0  0  0
   40.7583   12.7132   14.1245 C   0  0  0  0  0  0  0  0  0  0  0  0
   42.1941   11.6874   14.2766 Cl  0  0  0  0  0  0  0  0  0  0  0  0
  2  1  1  6
  2  3  1  0
  3  4  1  0
  4  5  2  0
  5  6  1  0
  6  7  1  0
  7  8  1  0
  7  9  2  0
  7 10  2  0
  6 11  2  0
 11 12  1  0
 12 13  2  0
 13 14  1  0
 14 15  1  0
 15 16  2  0
 15 17  1  0
 17 18  1  0
 14  2  1  0
 13  4  1  0
A    1
 C1 
A    2
 C2 
A    3
 C3 
A    4
 C4 
A    5
 C5 
A    6
 C6 
A    7
 S1 
A    8
 N1 
A    9
 O1 
A   10
 O2 
A   11
 C7 
A   12
 C8 
A   13
 C9 
A   14
 N2 
A   15
 C10
A   16
 O3 
A   17
 C11
A   18
CL1 
M  END
>  <ref_pdb>  (80) 
Ax0310a

>  <ref_mols>  (80) 
Ax0446a,Ax1080a,Ax0812a,Ax0719a,Ax1140a,Ax0528a,Ax0310a

>  <original SMILES>  (80) 
C[C@@H]1Cc2cc(S(N)(=O)=O)ccc2N1C(=O)CCl

>  <rationale>  (80) 
info info set:sulfonimide_whole;hbond:G127+E85; hydroph_interaction:V84+E85+L100+L131; 

>  <experiment>  (80) 
sulfonimide_whole

>  <cluster_label>  (80) 
17

>  <cluster_rank>  (80) 
5

>  <N_interactions>  (80) 
7

>  <∆∆G>  (80) 
-2.674577

>  <comRMSD>  (80) 
0.870788

>  <ROCS_TanimotoCombo>  (80) 
0.31

>  <ROCS_ShapeTanimoto>  (80) 
0.189

>  <ROCS_ColorTanimoto>  (80) 
0.121

$$$$
Z2057686868
     RDKit          3D

 18 19  0  0  0  0  0  0  0  0999 V2000
   34.9993   10.8461    4.8365 N   0  0  0  0  0  0  0  0  0  0  0  0
   34.0417   10.8321    5.4951 C   0  0  0  0  0  0  0  0  0  0  0  0
   32.8500   10.7517    6.3942 C   0  0  0  0  0  0  0  0  0  0  0  0
   32.1997   11.8146    6.8813 C   0  0  0  0  0  0  0  0  0  0  0  0
   31.0729   11.6153    7.7434 C   0  0  0  0  0  0  0  0  0  0  0  0
   30.4051   12.6413    8.2521 C   0  0  0  0  0  0  0  0  0  0  0  0
   29.9181   13.5965    7.3572 N   0  0  0  0  0  0  0  0  0  0  0  0
   29.1960   13.3143    6.2411 C   0  0  0  0  0  0  0  0  0  0  0  0
   27.8107   13.4134    6.6747 C   0  0  1  0  0  0  0  0  0  0  0  0
   27.2454   12.1965    6.7660 F   0  0  0  0  0  0  0  0  0  0  0  0
   27.8987   14.0223    7.9864 C   0  0  0  0  0  0  0  0  0  0  0  0
   29.1870   14.5447    8.1322 C   0  0  1  0  0  0  0  0  0  0  0  0
   29.5799   14.7097    9.5920 C   0  0  0  0  0  0  0  0  0  0  0  0
   30.8033   15.4307    9.7347 O   0  0  0  0  0  0  0  0  0  0  0  0
   30.6882   10.3132    8.0513 C   0  0  0  0  0  0  0  0  0  0  0  0
   31.3473    9.2170    7.5524 C   0  0  0  0  0  0  0  0  0  0  0  0
   32.4257    9.4901    6.7250 C   0  0  0  0  0  0  0  0  0  0  0  0
   33.1061    8.5123    6.2149 F   0  0  0  0  0  0  0  0  0  0  0  0
  1  2  3  0
  2  3  1  0
  3  4  2  0
  4  5  1  0
  5  6  1  0
  6  7  1  0
  7  8  1  0
  8  9  1  0
  9 10  1  1
  9 11  1  0
 11 12  1  0
 12 13  1  1
 13 14  1  0
  5 15  2  0
 15 16  1  0
 16 17  2  0
 17 18  1  0
 17  3  1  0
 12  7  1  0
A    1
 N1 
A    2
 C1 
A    3
 C2 
A    4
 C3 
A    5
 C4 
A    6
 C5 
A    7
 N2 
A    8
 C6 
A    9
 C7 
A   10
 F1 
A   11
 C8 
A   12
 C9 
A   13
 C10
A   14
 O1 
A   15
 C11
A   16
 C12
A   17
 C13
A   18
 F2 
M  END
>  <ref_pdb>  (81) 
Ax0310a

>  <ref_mols>  (81) 
Ax0446a,Ax1080a,Ax0812a,Ax0719a,Ax1140a,Ax0528a,Ax0310a

>  <original SMILES>  (81) 
N#Cc1cc(CN2C[C@@H](F)C[C@H]2CO)ccc1F

>  <rationale>  (81) 
info info set:3d;halogenbond:S105+P107; hbond:S87; pication:H21; 

>  <experiment>  (81) 
3d

>  <cluster_label>  (81) 
12

>  <cluster_rank>  (81) 
5

>  <N_interactions>  (81) 
4

>  <∆∆G>  (81) 
-3.987594

>  <comRMSD>  (81) 
0.568536

>  <ROCS_TanimotoCombo>  (81) 
0.328

>  <ROCS_ShapeTanimoto>  (81) 
0.22

>  <ROCS_ColorTanimoto>  (81) 
0.107

$$$$
EN300_279345
     RDKit          3D

 13 14  0  0  0  0  0  0  0  0999 V2000
   28.7640   13.4196    9.1771 N   0  0  0  0  0  0  0  0  0  0  0  0
   30.0031   13.9535    8.2069 S   0  0  0  0  0  6  0  0  0  0  0  0
   30.8780   14.7118    9.0757 O   0  0  0  0  0  0  0  0  0  0  0  0
   29.2667   14.5267    7.1131 O   0  0  0  0  0  0  0  0  0  0  0  0
   30.8764   12.5167    7.6231 C   0  0  0  0  0  0  0  0  0  0  0  0
   31.9033   12.7374    6.5667 C   0  0  0  0  0  0  0  0  0  0  0  0
   32.5872   11.6630    6.0899 C   0  0  0  0  0  0  0  0  0  0  0  0
   32.2669   10.3312    6.6581 C   0  0  0  0  0  0  0  0  0  0  0  0
   32.6921    9.1185    6.4615 N   0  0  0  0  0  0  0  0  0  0  0  0
   31.9614    8.3590    7.3432 N   0  0  0  0  0  0  0  0  0  0  0  0
   31.1226    9.0909    8.0410 N   0  0  0  0  0  0  0  0  0  0  0  0
   31.3172   10.3310    7.6055 N   0  0  0  0  0  0  0  0  0  0  0  0
   30.5895   11.3603    8.1302 N   0  0  0  0  0  0  0  0  0  0  0  0
  1  2  1  0
  2  3  2  0
  2  4  2  0
  2  5  1  0
  5  6  1  0
  6  7  2  0
  7  8  1  0
  8  9  2  0
  9 10  1  0
 10 11  2  0
 11 12  1  0
 12 13  1  0
 13  5  2  0
 12  8  1  0
A    1
 N1 
A    2
 S1 
A    3
 O1 
A    4
 O2 
A    5
 C1 
A    6
 C2 
A    7
 C3 
A    8
 C4 
A    9
 N2 
A   10
 N3 
A   11
 N4 
A   12
 N5 
A   13
 N6 
M  END
>  <ref_pdb>  (82) 
Ax0310a

>  <ref_mols>  (82) 
Ax0446a,Ax1080a,Ax0812a,Ax0719a,Ax1140a,Ax0528a,Ax0310a

>  <original SMILES>  (82) 
NS(=O)(=O)c1ccc2nnnn2n1

>  <rationale>  (82) 
info info set:sulfonimide_whole;hbond:S87+S125+G127+E88; hydroph_interaction:P107; 

>  <experiment>  (82) 
sulfonimide_whole

>  <cluster_label>  (82) 
8

>  <cluster_rank>  (82) 
5

>  <N_interactions>  (82) 
5

>  <∆∆G>  (82) 
-1.668027

>  <comRMSD>  (82) 
0.452461

>  <ROCS_TanimotoCombo>  (82) 
0.355

>  <ROCS_ShapeTanimoto>  (82) 
0.199

>  <ROCS_ColorTanimoto>  (82) 
0.156

$$$$
Z425224490
     RDKit          3D

 23 26  0  0  0  0  0  0  0  0999 V2000
   30.6061   12.7300    6.1912 O   0  0  0  0  0  0  0  0  0  0  0  0
   30.2458   12.6341    7.3625 C   0  0  0  0  0  0  0  0  0  0  0  0
   30.6965   11.6696    8.2084 N   0  0  0  0  0  0  0  0  0  0  0  0
   31.3767   10.6809    7.6638 N   0  0  0  0  0  0  0  0  0  0  0  0
   31.1587    9.3566    7.8020 C   0  0  0  0  0  0  0  0  0  0  0  0
   32.0418    8.6879    7.1017 N   0  0  0  0  0  0  0  0  0  0  0  0
   32.8334    9.6555    6.4958 C   0  0  0  0  0  0  0  0  0  0  0  0
   33.9218    9.5367    5.6323 C   0  0  0  0  0  0  0  0  0  0  0  0
   34.5126   10.7201    5.2102 C   0  0  0  0  0  0  0  0  0  0  0  0
   34.1185   12.0007    5.5655 C   0  0  0  0  0  0  0  0  0  0  0  0
   33.0277   12.1344    6.4210 C   0  0  0  0  0  0  0  0  0  0  0  0
   32.4243   10.9353    6.8545 C   0  0  0  0  0  0  0  0  0  0  0  0
   29.3080   13.5570    7.9346 C   0  0  0  0  0  0  0  0  0  0  0  0
   28.1529   13.5607    7.2637 C   0  0  0  0  0  0  0  0  0  0  0  0
   27.0484   14.5180    7.7728 C   0  0  0  0  0  0  0  0  0  0  0  0
   27.2137   15.3147    8.8607 C   0  0  0  0  0  0  0  0  0  0  0  0
   28.4251   15.1982    9.4301 C   0  0  0  0  0  0  0  0  0  0  0  0
   29.4598   14.3951    9.0338 C   0  0  0  0  0  0  0  0  0  0  0  0
   30.5852   14.5751    9.8347 N   0  0  0  0  0  0  0  0  0  0  0  0
   30.6373   14.6617   11.2168 C   0  0  0  0  0  0  0  0  0  0  0  0
   32.0709   14.9199   11.4668 C   0  0  0  0  0  0  0  0  0  0  0  0
   32.7211   14.9417   10.1284 C   0  0  0  0  0  0  0  0  0  0  0  0
   31.7935   14.7200    9.2246 N   0  0  0  0  0  0  0  0  0  0  0  0
  1  2  2  0
  2  3  1  0
  3  4  1  0
  4  5  1  0
  5  6  2  0
  6  7  1  0
  7  8  2  0
  8  9  1  0
  9 10  2  0
 10 11  1  0
 11 12  2  0
  2 13  1  0
 13 14  2  0
 14 15  1  0
 15 16  2  0
 16 17  1  0
 17 18  2  0
 18 19  1  0
 19 20  1  0
 20 21  2  0
 21 22  1  0
 22 23  2  0
 12  4  1  0
 18 13  1  0
 23 19  1  0
 12  7  1  0
A    1
 O1 
A    2
 C1 
A    3
 N1 
A    4
 N2 
A    5
 C2 
A    6
 N3 
A    7
 C3 
A    8
 C4 
A    9
 C5 
A   10
 C6 
A   11
 C7 
A   12
 C8 
A   13
 C9 
A   14
 C10
A   15
 C11
A   16
 C12
A   17
 C13
A   18
 C14
A   19
 N4 
A   20
 C15
A   21
 C16
A   22
 C17
A   23
 N5 
M  END
>  <ref_pdb>  (83) 
Ax0310a

>  <ref_mols>  (83) 
Ax0446a,Ax1080a,Ax0812a,Ax0719a,Ax1140a,Ax0528a,Ax0310a

>  <original SMILES>  (83) 
O=C(Nn1cnc2ccccc21)c1ccccc1-n1cccn1

>  <rationale>  (83) 
info info set:screening_whole;hbond:S87+S125+G127; hydroph_interaction:Y89+Y90+H21+V84; 

>  <experiment>  (83) 
screening_whole

>  <cluster_label>  (83) 
9

>  <cluster_rank>  (83) 
5

>  <N_interactions>  (83) 
8

>  <∆∆G>  (83) 
-7.184718

>  <comRMSD>  (83) 
0.532872

>  <ROCS_TanimotoCombo>  (83) 
0.459

>  <ROCS_ShapeTanimoto>  (83) 
0.255

>  <ROCS_ColorTanimoto>  (83) 
0.204

$$$$
EN300_1873712
     RDKit          3D

 18 18  0  0  0  0  0  0  0  0999 V2000
   27.3932   14.2520    9.5153 C   0  0  0  0  0  0  0  0  0  0  0  0
   28.0635   14.2014    8.3204 C   0  0  0  0  0  0  0  0  0  0  0  0
   28.9017   15.2383    8.1164 C   0  0  0  0  0  0  0  0  0  0  0  0
   27.2342   14.0734    7.0562 C   0  0  0  0  0  0  0  0  0  0  0  0
   28.7528   12.9809    8.4440 O   0  0  0  0  0  0  0  0  0  0  0  0
   29.6554   12.7272    7.5295 C   0  0  0  0  0  0  0  0  0  0  0  0
   29.5374   12.8496    6.3217 O   0  0  0  0  0  0  0  0  0  0  0  0
   30.7259   12.3201    8.2077 N   0  0  0  0  0  0  0  0  0  0  0  0
   31.8176   11.6367    7.5389 C   0  0  0  0  0  0  0  0  0  0  0  0
   33.0607   12.4989    7.3928 C   0  0  0  0  0  0  0  0  0  0  0  0
   33.5975   13.6716    8.5843 S   0  0  0  0  0  6  0  0  0  0  0  0
   34.6304   14.6842    7.7278 N   0  0  0  0  0  0  0  0  0  0  0  0
   34.4351   12.9487    9.4440 O   0  0  0  0  0  0  0  0  0  0  0  0
   32.4652   14.4393    9.0676 O   0  0  0  0  0  0  0  0  0  0  0  0
   31.5481   11.6799    6.1079 C   0  0  0  0  0  0  0  0  0  0  0  0
   32.6906   10.8073    5.6115 C   0  0  0  0  0  0  0  0  0  0  0  0
   32.5637    9.5812    6.4516 C   0  0  0  0  0  0  0  0  0  0  0  0
   31.6766   10.0823    7.5640 C   0  0  0  0  0  0  0  0  0  0  0  0
  1  2  1  0
  2  3  1  0
  2  4  1  0
  2  5  1  0
  5  6  1  0
  6  7  2  0
  6  8  1  0
  8  9  1  0
  9 10  1  0
 10 11  1  0
 11 12  1  0
 11 13  2  0
 11 14  2  0
  9 15  1  0
 15 16  1  0
 16 17  1  0
 17 18  1  0
 18  9  1  0
A    1
 C1 
A    2
 C2 
A    3
 C3 
A    4
 C4 
A    5
 O1 
A    6
 C5 
A    7
 O2 
A    8
 N1 
A    9
 C6 
A   10
 C7 
A   11
 S1 
A   12
 N2 
A   13
 O3 
A   14
 O4 
A   15
 C8 
A   16
 C9 
A   17
 C10
A   18
 C11
M  END
>  <ref_pdb>  (84) 
Ax0310a

>  <ref_mols>  (84) 
Ax0446a,Ax1080a,Ax0812a,Ax0719a,Ax1140a,Ax0528a,Ax0310a

>  <original SMILES>  (84) 
CC(C)(C)OC(=O)NC1(CS(N)(=O)=O)CCCC1

>  <rationale>  (84) 
info info set:sulfonimide_whole;hbond:S87+S125+G127+E85; hydroph_interaction:P107+Y89+Y90; 

>  <experiment>  (84) 
sulfonimide_whole

>  <cluster_label>  (84) 
3

>  <cluster_rank>  (84) 
5

>  <N_interactions>  (84) 
8

>  <∆∆G>  (84) 
-5.42522

>  <comRMSD>  (84) 
0.899133

>  <ROCS_TanimotoCombo>  (84) 
0.377

>  <ROCS_ShapeTanimoto>  (84) 
0.208

>  <ROCS_ColorTanimoto>  (84) 
0.169

$$$$
EN300_228917
     RDKit          3D

 25 27  0  0  0  0  0  0  0  0999 V2000
   28.3511   17.0988    9.0627 C   0  0  0  0  0  0  0  0  0  0  0  0
   27.3675   16.0870    9.3409 C   0  0  0  0  0  0  0  0  0  0  0  0
   27.1535   15.5364   10.7212 C   0  0  0  0  0  0  0  0  0  0  0  0
   28.1007   15.0671    8.7563 C   0  0  0  0  0  0  0  0  0  0  0  0
   27.4545   14.1747    7.7252 C   0  0  0  0  0  0  0  0  0  0  0  0
   28.3979   13.1136    7.3016 C   0  0  0  0  0  0  0  0  0  0  0  0
   29.7123   13.2265    7.9884 C   0  0  0  0  0  0  0  0  0  0  0  0
   30.4932   12.1259    7.5876 C   0  0  0  0  0  0  0  0  0  0  0  0
   29.9104   10.9271    8.1871 C   0  0  0  0  0  0  0  0  0  0  0  0
   30.5128    9.6063    8.0027 C   0  0  0  0  0  0  0  0  0  0  0  0
   29.7439    8.6463    8.8435 C   0  0  0  0  0  0  0  0  0  0  0  0
   29.1573    7.6043    8.3063 F   0  0  0  0  0  0  0  0  0  0  0  0
   30.6214    8.1993    9.7496 F   0  0  0  0  0  0  0  0  0  0  0  0
   28.7736    9.2817    9.5242 F   0  0  0  0  0  0  0  0  0  0  0  0
   31.6875    9.6359    7.1687 N   0  0  0  0  0  0  0  0  0  0  0  0
   32.4051    8.6730    6.8033 N   0  0  0  0  0  0  0  0  0  0  0  0
   33.3998    9.1845    6.0731 C   0  0  0  0  0  0  0  0  0  0  0  0
   33.2382   10.6693    6.0060 C   0  0  0  0  0  0  0  0  0  0  0  0
   34.2247   11.5684    5.2801 C   0  0  0  0  0  0  0  0  0  0  0  0
   33.9894   12.6470    4.7735 O   0  0  0  0  0  0  0  0  0  0  0  0
   35.4856   11.0952    5.2642 O   0  0  0  0  0  0  0  0  0  0  0  0
   32.1325   10.9066    6.6862 C   0  0  0  0  0  0  0  0  0  0  0  0
   31.5444   12.0975    6.8971 N   0  0  0  0  0  0  0  0  0  0  0  0
   30.2012   14.1040    8.8785 C   0  0  0  0  0  0  0  0  0  0  0  0
   29.3724   15.0398    9.2671 C   0  0  0  0  0  0  0  0  0  0  0  0
  1  2  1  0
  2  3  1  0
  2  4  1  0
  4  5  2  0
  5  6  1  0
  6  7  2  0
  7  8  1  0
  8  9  1  0
  9 10  2  0
 10 11  1  0
 11 12  1  0
 11 13  1  0
 11 14  1  0
 10 15  1  0
 15 16  1  0
 16 17  2  0
 17 18  1  0
 18 19  1  0
 19 20  2  0
 19 21  1  0
 18 22  2  0
 22 23  1  0
  7 24  1  0
 24 25  2  0
 25  4  1  0
 23  8  2  0
 22 15  1  0
A    1
 C1 
A    2
 C2 
A    3
 C3 
A    4
 C4 
A    5
 C5 
A    6
 C6 
A    7
 C7 
A    8
 C8 
A    9
 C9 
A   10
 C10
A   11
 C11
A   12
 F1 
A   13
 F2 
A   14
 F3 
A   15
 N1 
A   16
 N2 
A   17
 C12
A   18
 C13
A   19
 C14
A   20
 O1 
A   21
 O2 
A   22
 C15
A   23
 N3 
A   24
 C16
A   25
 C17
M  END
>  <ref_pdb>  (85) 
Ax0310a

>  <ref_mols>  (85) 
Ax0446a,Ax1080a,Ax0812a,Ax0719a,Ax1140a,Ax0528a,Ax0310a

>  <original SMILES>  (85) 
CC(C)c1ccc(-c2cc(C(F)(F)F)n3ncc(C(=O)O)c3n2)cc1

>  <rationale>  (85) 
info info set:bb_whole;halogenbond:T126; hbond:S87+G127; hydroph_interaction:Y89+Y90+H21+D39; 

>  <experiment>  (85) 
bb_whole

>  <cluster_label>  (85) 
7

>  <cluster_rank>  (85) 
5

>  <N_interactions>  (85) 
8

>  <∆∆G>  (85) 
-0.347927

>  <comRMSD>  (85) 
0.971669

>  <ROCS_TanimotoCombo>  (85) 
0.415

>  <ROCS_ShapeTanimoto>  (85) 
0.263

>  <ROCS_ColorTanimoto>  (85) 
0.153

$$$$
Z324800370
     RDKit          3D

 21 23  0  0  0  0  0  0  0  0999 V2000
   37.2074   10.3462    0.4836 C   0  0  0  0  0  0  0  0  0  0  0  0
   36.3802    9.9862    1.7295 C   0  0  0  0  0  0  0  0  0  0  0  0
   36.8769    8.7638    2.4863 C   0  0  0  0  0  0  0  0  0  0  0  0
   36.1070    8.3563    3.7239 C   0  0  0  0  0  0  0  0  0  0  0  0
   34.8910    9.2102    4.1274 C   0  0  0  0  0  0  0  0  0  0  0  0
   34.2264    8.8304    5.2561 N   0  0  0  0  0  0  0  0  0  0  0  0
   33.3282    9.6344    5.9207 C   0  0  0  0  0  0  0  0  0  0  0  0
   33.4105   10.9721    5.8355 N   0  0  0  0  0  0  0  0  0  0  0  0
   32.5197   11.7293    6.4919 C   0  0  0  0  0  0  0  0  0  0  0  0
   31.4058   11.1376    7.3363 C   0  0  0  0  0  0  0  0  0  0  0  0
   30.4410   11.9266    8.0368 N   0  0  0  0  0  4  0  0  0  0  0  0
   30.8866   12.8161    8.7678 O   0  0  0  0  0  0  0  0  0  0  0  0
   29.3174   11.9815    7.5229 O   0  0  0  0  0  1  0  0  0  0  0  0
   31.4529    9.6354    7.3299 C   0  0  0  0  0  0  0  0  0  0  0  0
   30.4829    8.9460    8.0522 N   0  0  0  0  0  0  0  0  0  0  0  0
   30.8118    8.1020    8.9800 C   0  0  0  0  0  0  0  0  0  0  0  0
   30.1679    8.0307   10.2650 C   0  0  0  0  0  0  0  0  0  0  0  0
   29.7039    7.0101    9.4142 C   0  0  0  0  0  0  0  0  0  0  0  0
   32.4003    8.9720    6.6375 N   0  0  0  0  0  0  0  0  0  0  0  0
   34.5539   10.3048    3.3257 C   0  0  0  0  0  0  0  0  0  0  0  0
   35.2569   10.6930    2.1696 C   0  0  0  0  0  0  0  0  0  0  0  0
  1  2  1  0
  2  3  2  0
  3  4  1  0
  4  5  2  0
  5  6  1  0
  6  7  1  0
  7  8  2  0
  8  9  1  0
  9 10  2  0
 10 11  1  0
 11 12  2  0
 11 13  1  0
 10 14  1  0
 14 15  1  0
 15 16  1  0
 16 17  1  0
 17 18  1  0
 14 19  2  0
  5 20  1  0
 20 21  2  0
 21  2  1  0
 19  7  1  0
 18 16  1  0
M  CHG  2  11   1  13  -1
A    1
 C1 
A    2
 C2 
A    3
 C3 
A    4
 C4 
A    5
 C5 
A    6
 N1 
A    7
 C6 
A    8
 N2 
A    9
 C7 
A   10
 C8 
A   11
 N3 
A   12
 O1 
A   13
 O2 
A   14
 C9 
A   15
 N4 
A   16
 C10
A   17
 C11
A   18
 C12
A   19
 N5 
A   20
 C13
A   21
 C14
M  END
>  <ref_pdb>  (86) 
Ax0310a

>  <ref_mols>  (86) 
Ax0446a,Ax1080a,Ax0812a,Ax0719a,Ax1140a,Ax0528a,Ax0310a

>  <original SMILES>  (86) 
Cc1ccc(Nc2ncc([N+](=O)[O-])c(NC3CC3)n2)cc1

>  <rationale>  (86) 
info info set:screening_pocket;hbond:S105+G127+P107; hydroph_interaction:V124+D109; 

>  <experiment>  (86) 
screening_pocket

>  <cluster_label>  (86) 
11

>  <cluster_rank>  (86) 
6

>  <N_interactions>  (86) 
5

>  <∆∆G>  (86) 
-0.93309

>  <comRMSD>  (86) 
0.652126

>  <ROCS_TanimotoCombo>  (86) 
0.627

>  <ROCS_ShapeTanimoto>  (86) 
0.255

>  <ROCS_ColorTanimoto>  (86) 
0.372

$$$$
Z94598474
     RDKit          3D

 17 18  0  0  0  0  0  0  0  0999 V2000
   30.7161   13.2590    9.3643 O   0  0  0  0  0  0  0  0  0  0  0  0
   30.7965   13.0988    7.9441 S   0  0  0  0  0  6  0  0  0  0  0  0
   31.7527   13.8504    7.2505 O   0  0  0  0  0  0  0  0  0  0  0  0
   31.4372   11.5419    7.4065 C   0  0  0  0  0  0  0  0  0  0  0  0
   32.3986   11.7255    6.4240 C   0  0  0  0  0  0  0  0  0  0  0  0
   33.0660   10.4922    5.8521 C   0  0  0  0  0  0  0  0  0  0  0  0
   33.9992   10.6169    4.9017 F   0  0  0  0  0  0  0  0  0  0  0  0
   32.7067    9.2370    6.3148 C   0  0  0  0  0  0  0  0  0  0  0  0
   31.7390    9.0734    7.2995 C   0  0  0  0  0  0  0  0  0  0  0  0
   31.0548   10.2873    7.8895 C   0  0  0  0  0  0  0  0  0  0  0  0
   30.1481   10.0898    8.8215 F   0  0  0  0  0  0  0  0  0  0  0  0
   29.2045   13.3106    7.3272 N   0  0  0  0  0  0  0  0  0  0  0  0
   28.8180   14.4412    6.8080 C   0  0  0  0  0  0  0  0  0  0  0  0
   28.8360   15.5372    7.8663 C   0  0  0  0  0  0  0  0  0  0  0  0
   27.8045   15.3189    8.7530 N   0  0  0  0  0  0  0  0  0  0  0  0
   28.1648   14.1097    9.4223 C   0  0  0  0  0  0  0  0  0  0  0  0
   28.2491   12.9672    8.4053 C   0  0  0  0  0  0  0  0  0  0  0  0
  1  2  2  0
  2  3  2  0
  2  4  1  0
  4  5  2  0
  5  6  1  0
  6  7  1  0
  6  8  2  0
  8  9  1  0
  9 10  2  0
 10 11  1  0
  2 12  1  0
 12 13  1  0
 13 14  1  0
 14 15  1  0
 15 16  1  0
 16 17  1  0
 10  4  1  0
 17 12  1  0
A    1
 O1 
A    2
 S1 
A    3
 O2 
A    4
 C1 
A    5
 C2 
A    6
 C3 
A    7
 F1 
A    8
 C4 
A    9
 C5 
A   10
 C6 
A   11
 F2 
A   12
 N1 
A   13
 C7 
A   14
 C8 
A   15
 N2 
A   16
 C9 
A   17
 C10
M  END
>  <ref_pdb>  (87) 
Ax0310a

>  <ref_mols>  (87) 
Ax0446a,Ax1080a,Ax0812a,Ax0719a,Ax1140a,Ax0528a,Ax0310a

>  <original SMILES>  (87) 
O=S(=O)(c1cc(F)ccc1F)N1CCNCC1

>  <rationale>  (87) 
info info set:3d;halogenbond:C110; hbond:S87; 

>  <experiment>  (87) 
3d

>  <cluster_label>  (87) 
2

>  <cluster_rank>  (87) 
6

>  <N_interactions>  (87) 
2

>  <∆∆G>  (87) 
-0.308329

>  <comRMSD>  (87) 
0.713969

>  <ROCS_TanimotoCombo>  (87) 
0.312

>  <ROCS_ShapeTanimoto>  (87) 
0.214

>  <ROCS_ColorTanimoto>  (87) 
0.098

$$$$
EN300_244391
     RDKit          3D

 15 15  0  0  0  0  0  0  0  0999 V2000
   40.6094   11.5640   14.3778 C   0  0  0  0  0  0  0  0  0  0  0  0
   40.1732   12.8546   14.0404 O   0  0  0  0  0  0  0  0  0  0  0  0
   39.1392   12.8675   13.0604 C   0  0  0  0  0  0  0  0  0  0  0  0
   37.8500   12.4952   13.5211 C   0  0  0  0  0  0  0  0  0  0  0  0
   36.9769   12.5836   12.4673 C   0  0  0  0  0  0  0  0  0  0  0  0
   37.1682   12.9732   11.0628 C   0  0  0  0  0  0  0  0  0  0  0  0
   35.9773   12.9959   10.1397 C   0  0  0  0  0  0  0  0  0  0  0  0
   36.0908   13.5157    8.9107 N   0  0  0  0  0  0  0  0  0  0  0  0
   34.5889   13.7801    8.1994 S   0  0  0  0  0  6  0  0  0  0  0  0
   34.2355   15.1228    9.2507 C   0  0  0  0  0  0  0  0  0  0  0  0
   34.7460   14.1695    6.8185 O   0  0  0  0  0  0  0  0  0  0  0  0
   33.6484   12.7512    8.5908 O   0  0  0  0  0  0  0  0  0  0  0  0
   38.4337   13.3027   10.6912 C   0  0  0  0  0  0  0  0  0  0  0  0
   39.4932   13.2523   11.7498 C   0  0  0  0  0  0  0  0  0  0  0  0
   40.8120   13.5943   11.4305 N   0  0  0  0  0  0  0  0  0  0  0  0
  1  2  1  0
  2  3  1  0
  3  4  2  0
  4  5  1  0
  5  6  2  0
  6  7  1  0
  7  8  1  0
  8  9  1  0
  9 10  1  0
  9 11  2  0
  9 12  2  0
  6 13  1  0
 13 14  2  0
 14 15  1  0
 14  3  1  0
A    1
 C1 
A    2
 O1 
A    3
 C2 
A    4
 C3 
A    5
 C4 
A    6
 C5 
A    7
 C6 
A    8
 N1 
A    9
 S1 
A   10
 C7 
A   11
 O2 
A   12
 O3 
A   13
 C8 
A   14
 C9 
A   15
 N2 
M  END
>  <ref_pdb>  (88) 
Ax0310a

>  <ref_mols>  (88) 
Ax0446a,Ax1080a,Ax0812a,Ax0719a,Ax1140a,Ax0528a,Ax0310a

>  <original SMILES>  (88) 
COc1ccc(CNS(C)(=O)=O)cc1N

>  <rationale>  (88) 
info info set:sulfonimide_whole;hbond:G127+E85; hydroph_interaction:V84+L100+I82; 

>  <experiment>  (88) 
sulfonimide_whole

>  <cluster_label>  (88) 
15

>  <cluster_rank>  (88) 
6

>  <N_interactions>  (88) 
7

>  <∆∆G>  (88) 
-5.476799

>  <comRMSD>  (88) 
0.747754

>  <ROCS_TanimotoCombo>  (88) 
0.298

>  <ROCS_ShapeTanimoto>  (88) 
0.17

>  <ROCS_ColorTanimoto>  (88) 
0.127

$$$$
Z8525314575
     RDKit          3D

 16 17  0  0  0  0  0  0  0  0999 V2000
   27.5850   14.2502    7.8687 C   0  0  0  0  0  0  0  0  0  0  0  0
   29.0536   14.3503    8.2700 C   0  0  2  0  0  0  0  0  0  0  0  0
   28.9955   12.9642    8.8599 C   0  0  1  0  0  0  0  0  0  0  0  0
   29.9476   11.8570    8.2914 C   0  0  0  0  0  0  0  0  0  0  0  0
   30.0064   10.5810    8.9233 O   0  0  0  0  0  0  0  0  0  0  0  0
   30.6781   12.1527    7.2248 N   0  0  0  0  0  0  0  0  0  0  0  0
   31.6061   11.2452    6.7445 C   0  0  0  0  0  0  0  0  0  0  0  0
   32.5686   11.7638    5.7491 C   0  0  0  0  0  0  0  0  0  0  0  0
   33.7215   11.0249    5.0113 C   0  0  0  0  0  0  0  0  0  0  0  0
   33.5528    9.5746    5.6481 C   0  0  0  0  0  0  0  0  0  0  0  0
   34.4528    8.6374    5.1982 N   0  0  0  0  0  0  0  0  0  0  0  0
   32.6660    9.1221    6.5628 N   0  0  0  0  0  0  0  0  0  0  0  0
   31.7270    9.9240    7.0904 C   0  0  0  0  0  0  0  0  0  0  0  0
   29.4777   14.1254    9.6615 C   0  0  0  0  0  0  0  0  0  0  0  0
   28.7312   14.5801   10.7243 F   0  0  0  0  0  0  0  0  0  0  0  0
   30.8030   14.2702   10.0150 F   0  0  0  0  0  0  0  0  0  0  0  0
  2  1  1  1
  2  3  1  0
  3  4  1  6
  4  5  2  0
  4  6  1  0
  6  7  1  0
  7  8  2  0
  8  9  1  0
  9 10  2  0
 10 11  1  0
 10 12  1  0
 12 13  2  0
  3 14  1  0
 14 15  1  0
 14 16  1  0
 14  2  1  0
 13  7  1  0
A    1
 C1 
A    2
 C2 
A    3
 C3 
A    4
 C4 
A    5
 O1 
A    6
 N1 
A    7
 C5 
A    8
 C6 
A    9
 C7 
A   10
 C8 
A   11
 N2 
A   12
 N3 
A   13
 C9 
A   14
 C10
A   15
 F1 
A   16
 F2 
M  END
>  <ref_pdb>  (89) 
Ax0310a

>  <ref_mols>  (89) 
Ax0446a,Ax1080a,Ax0812a,Ax0719a,Ax1140a,Ax0528a,Ax0310a

>  <original SMILES>  (89) 
C[C@@H]1[C@@H](C(=O)Nc2ccc(N)nc2)C1(F)F

>  <rationale>  (89) 
info info set:screening_pocket;halogenbond:D39; hbond:S105; hydroph_interaction:P107+Y89; 

>  <experiment>  (89) 
screening_pocket

>  <cluster_label>  (89) 
18

>  <cluster_rank>  (89) 
6

>  <N_interactions>  (89) 
4

>  <∆∆G>  (89) 
-1.878116

>  <comRMSD>  (89) 
0.755596

>  <ROCS_TanimotoCombo>  (89) 
0.637

>  <ROCS_ShapeTanimoto>  (89) 
0.211

>  <ROCS_ColorTanimoto>  (89) 
0.425

$$$$
Z2061495052
     RDKit          3D

 22 24  0  0  0  0  0  0  0  0999 V2000
   33.4509   13.4229    4.7713 C   0  0  0  0  0  0  0  0  0  0  0  0
   32.8498   12.0481    4.9396 C   0  0  2  0  0  0  0  0  0  0  0  0
   31.6421   11.9965    5.8790 C   0  0  0  0  0  0  0  0  0  0  0  0
   31.9371   12.0142    7.1267 N   0  0  0  0  0  0  0  0  0  0  0  0
   30.8954   11.6683    7.8500 C   0  0  0  0  0  0  0  0  0  0  0  0
   30.8350   10.5354    8.5960 O   0  0  0  0  0  0  0  0  0  0  0  0
   29.7098   12.6387    7.7321 C   0  0  0  0  0  0  0  0  0  0  0  0
   28.5579   11.6883    7.7167 C   0  0  0  0  0  0  0  0  0  0  0  0
   27.3148   12.4242    7.5831 C   0  0  0  0  0  0  0  0  0  0  0  0
   26.1721   11.5835    7.5155 C   0  0  0  0  0  0  0  0  0  0  0  0
   24.8515   12.1445    7.4533 C   0  0  0  0  0  0  0  0  0  0  0  0
   24.7395   13.6497    7.4319 C   0  0  0  0  0  0  0  0  0  0  0  0
   25.9910   14.3103    7.4753 C   0  0  0  0  0  0  0  0  0  0  0  0
   27.2495   13.7488    7.5338 C   0  0  0  0  0  0  0  0  0  0  0  0
   28.4166   14.5101    7.5241 C   0  0  0  0  0  0  0  0  0  0  0  0
   28.3915   15.6945    7.3606 O   0  0  0  0  0  0  0  0  0  0  0  0
   29.6681   13.9241    7.6435 O   0  0  0  0  0  0  0  0  0  0  0  0
   33.1736   11.3638    7.1182 C   0  0  0  0  0  0  0  0  0  0  0  0
   33.7059   11.0804    5.7150 C   0  0  1  0  0  0  0  0  0  0  0  0
   33.4681    9.7191    5.5997 C   0  0  0  0  0  0  0  0  0  0  0  0
   34.3363    8.9946    4.8411 N   0  0  0  0  0  0  0  0  0  0  0  0
   32.5494    9.1383    6.1576 O   0  0  0  0  0  0  0  0  0  0  0  0
  2  1  1  1
  2  3  1  0
  3  4  1  0
  4  5  1  0
  5  6  2  0
  5  7  1  0
  7  8  2  0
  8  9  1  0
  9 10  2  0
 10 11  1  0
 11 12  2  0
 12 13  1  0
 13 14  2  0
 14 15  1  0
 15 16  2  0
 15 17  1  0
  4 18  1  0
 18 19  1  0
 19 20  1  6
 20 21  1  0
 20 22  2  0
 19  2  1  0
 17  7  1  0
 14  9  1  0
A    1
 C1 
A    2
 C2 
A    3
 C3 
A    4
 N1 
A    5
 C4 
A    6
 O1 
A    7
 C5 
A    8
 C6 
A    9
 C7 
A   10
 C8 
A   11
 C9 
A   12
 C10
A   13
 C11
A   14
 C12
A   15
 C13
A   16
 O2 
A   17
 O3 
A   18
 C14
A   19
 C15
A   20
 C16
A   21
 N2 
A   22
 O4 
M  END
>  <ref_pdb>  (90) 
Ax0310a

>  <ref_mols>  (90) 
Ax0446a,Ax1080a,Ax0812a,Ax0719a,Ax1140a,Ax0528a,Ax0310a

>  <original SMILES>  (90) 
C[C@@H]1CN(C(=O)c2cc3ccccc3c(=O)o2)C[C@H]1C(N)=O

>  <rationale>  (90) 
info info set:screening_pocket;hbond:S87+S105; hydroph_interaction:P107+Y89+H21+L22; 

>  <experiment>  (90) 
screening_pocket

>  <cluster_label>  (90) 
16

>  <cluster_rank>  (90) 
6

>  <N_interactions>  (90) 
6

>  <∆∆G>  (90) 
-0.179432

>  <comRMSD>  (90) 
0.852833

>  <ROCS_TanimotoCombo>  (90) 
0.633

>  <ROCS_ShapeTanimoto>  (90) 
0.218

>  <ROCS_ColorTanimoto>  (90) 
0.414

$$$$
EN300_52071
     RDKit          3D

 15 16  0  0  0  0  0  0  0  0999 V2000
   34.5441   15.0333    8.9774 C   0  0  0  0  0  0  0  0  0  0  0  0
   33.3628   13.8988    8.4307 S   0  0  0  0  0  6  0  0  0  0  0  0
   32.0231   14.3147    8.7987 O   0  0  0  0  0  0  0  0  0  0  0  0
   33.9511   12.6744    8.9561 O   0  0  0  0  0  0  0  0  0  0  0  0
   33.7210   13.9892    6.7652 N   0  0  0  0  0  0  0  0  0  0  0  0
   33.9089   12.7557    6.2741 C   0  0  0  0  0  0  0  0  0  0  0  0
   35.0705   12.4958    5.2984 C   0  0  0  0  0  0  0  0  0  0  0  0
   35.2975   11.0666    4.7580 C   0  0  0  0  0  0  0  0  0  0  0  0
   34.3325    9.9727    5.2602 C   0  0  0  0  0  0  0  0  0  0  0  0
   33.1843   10.2431    6.2348 C   0  0  0  0  0  0  0  0  0  0  0  0
   32.9944   11.6696    6.7063 C   0  0  0  0  0  0  0  0  0  0  0  0
   31.8531   11.9344    7.6330 C   0  0  0  0  0  0  0  0  0  0  0  0
   30.9333   10.7994    7.3858 C   0  0  0  0  0  0  0  0  0  0  0  0
   31.4172    9.5023    7.7507 N   0  0  0  0  0  0  0  0  0  0  0  0
   32.3205    9.1492    6.6784 C   0  0  0  0  0  0  0  0  0  0  0  0
  1  2  1  0
  2  3  2  0
  2  4  2  0
  2  5  1  0
  5  6  1  0
  6  7  2  0
  7  8  1  0
  8  9  2  0
  9 10  1  0
 10 11  2  0
 11 12  1  0
 12 13  1  0
 13 14  1  0
 14 15  1  0
 11  6  1  0
 15 10  1  0
A    1
 C1 
A    2
 S1 
A    3
 O1 
A    4
 O2 
A    5
 N1 
A    6
 C2 
A    7
 C3 
A    8
 C4 
A    9
 C5 
A   10
 C6 
A   11
 C7 
A   12
 C8 
A   13
 C9 
A   14
 N2 
A   15
 C10
M  END
>  <ref_pdb>  (91) 
Ax0310a

>  <ref_mols>  (91) 
Ax0446a,Ax1080a,Ax0812a,Ax0719a,Ax1140a,Ax0528a,Ax0310a

>  <original SMILES>  (91) 
CS(=O)(=O)Nc1cccc2c1CCNC2

>  <rationale>  (91) 
info info set:sulfonimide_whole;hbond:S87+G127+E106; 

>  <experiment>  (91) 
sulfonimide_whole

>  <cluster_label>  (91) 
6

>  <cluster_rank>  (91) 
6

>  <N_interactions>  (91) 
3

>  <∆∆G>  (91) 
-0.344887

>  <comRMSD>  (91) 
0.462288

>  <ROCS_TanimotoCombo>  (91) 
0.364

>  <ROCS_ShapeTanimoto>  (91) 
0.2

>  <ROCS_ColorTanimoto>  (91) 
0.164

$$$$
Z184883800
     RDKit          3D

 18 19  0  0  0  0  0  0  0  0999 V2000
   30.1204   10.4441    8.9894 O   0  0  0  0  0  0  0  0  0  0  0  0
   30.4013   11.2479    8.1410 C   0  0  0  0  0  0  0  0  0  0  0  0
   29.8069   12.5697    7.9124 N   0  0  0  0  0  0  0  0  0  0  0  0
   29.1090   13.2598    8.9418 C   0  0  0  0  0  0  0  0  0  0  0  0
   28.4115   14.4044    8.5509 C   0  0  0  0  0  0  0  0  0  0  0  0
   28.1656   14.2412    7.1583 C   0  0  0  0  0  0  0  0  0  0  0  0
   27.0537   13.6497    6.6940 C   0  0  0  0  0  0  0  0  0  0  0  0
   26.8485   13.5101    5.3670 C   0  0  0  0  0  0  0  0  0  0  0  0
   27.7472   13.9323    4.4765 C   0  0  0  0  0  0  0  0  0  0  0  0
   29.0035   14.5675    5.0752 C   0  0  0  0  0  0  0  0  0  0  0  0
   29.1142   14.6936    6.3941 N   0  0  0  0  0  0  0  0  0  0  0  0
   31.4556   10.7897    7.2517 C   0  0  0  0  0  0  0  0  0  0  0  0
   32.2377   11.6726    6.4005 C   0  0  0  0  0  0  0  0  0  0  0  0
   33.2212   11.0917    5.5948 C   0  0  0  0  0  0  0  0  0  0  0  0
   33.4038    9.7136    5.6428 C   0  0  0  0  0  0  0  0  0  0  0  0
   32.6793    8.8996    6.4302 N   0  0  0  0  0  0  0  0  0  0  0  0
   31.7321    9.4340    7.2133 C   0  0  0  0  0  0  0  0  0  0  0  0
   31.0638    8.5102    7.9711 O   0  0  0  0  0  0  0  0  0  0  0  0
  1  2  2  0
  2  3  1  0
  3  4  1  0
  4  5  1  0
  5  6  1  0
  6  7  2  0
  7  8  1  0
  8  9  2  0
  9 10  1  0
 10 11  2  0
  2 12  1  0
 12 13  2  0
 13 14  1  0
 14 15  2  0
 15 16  1  0
 16 17  2  0
 17 18  1  0
 11  6  1  0
 17 12  1  0
A    1
 O1 
A    2
 C1 
A    3
 N1 
A    4
 C2 
A    5
 C3 
A    6
 C4 
A    7
 C5 
A    8
 C6 
A    9
 C7 
A   10
 C8 
A   11
 N2 
A   12
 C9 
A   13
 C10
A   14
 C11
A   15
 C12
A   16
 N3 
A   17
 C13
A   18
 O2 
M  END
>  <ref_pdb>  (92) 
Ax0310a

>  <ref_mols>  (92) 
Ax0446a,Ax1080a,Ax0812a,Ax0719a,Ax1140a,Ax0528a,Ax0310a

>  <original SMILES>  (92) 
O=C(NCCc1ccccn1)c1cccnc1O

>  <rationale>  (92) 
info info set:screening_pocket;hbond:E88; hydroph_interaction:P107+Y89+E88; 

>  <experiment>  (92) 
screening_pocket

>  <cluster_label>  (92) 
12

>  <cluster_rank>  (92) 
6

>  <N_interactions>  (92) 
5

>  <∆∆G>  (92) 
-1.877417

>  <comRMSD>  (92) 
0.873357

>  <ROCS_TanimotoCombo>  (92) 
0.652

>  <ROCS_ShapeTanimoto>  (92) 
0.222

>  <ROCS_ColorTanimoto>  (92) 
0.43

$$$$
EN300_12622197
     RDKit          3D

 20 21  0  0  0  0  0  0  0  0999 V2000
   36.8149    9.5025   13.0324 C   0  0  0  0  0  0  0  0  0  0  0  0
   37.4335   10.5998   12.2398 C   0  0  0  0  0  0  0  0  0  0  0  0
   36.3832   11.1994   11.4237 C   0  0  0  0  0  0  0  0  0  0  0  0
   36.7182   12.3620   10.5013 C   0  0  0  0  0  0  0  0  0  0  0  0
   35.6723   13.1054    9.5621 B   0  0  0  0  0  0  0  0  0  0  0  0
   35.9556   13.3834    8.1516 O   0  0  0  0  0  0  0  0  0  0  0  0
   34.7827   13.7931    7.6384 C   0  0  0  0  0  0  0  0  0  0  0  0
   34.7728   13.8097    6.0738 C   0  0  0  0  0  0  0  0  0  0  0  0
   34.6566   15.0835    8.2382 C   0  0  0  0  0  0  0  0  0  0  0  0
   33.7336   13.0147    8.2981 C   0  0  0  0  0  0  0  0  0  0  0  0
   32.7703   12.1101    7.4880 C   0  0  0  0  0  0  0  0  0  0  0  0
   32.3054   13.4814    8.3222 C   0  0  0  0  0  0  0  0  0  0  0  0
   34.2736   12.6045    9.4585 O   0  0  0  0  0  0  0  0  0  0  0  0
   38.0614   12.7619   10.4967 C   0  0  0  0  0  0  0  0  0  0  0  0
   39.0914   12.1781   11.2751 C   0  0  0  0  0  0  0  0  0  0  0  0
   40.7545   12.6246   11.2811 S   0  0  0  0  0  6  0  0  0  0  0  0
   41.4994   12.0584   12.7332 N   0  0  0  0  0  0  0  0  0  0  0  0
   41.4720   11.9686   10.1175 O   0  0  0  0  0  0  0  0  0  0  0  0
   40.9338   14.0992   11.1788 O   0  0  0  0  0  0  0  0  0  0  0  0
   38.6816   11.0491   12.1780 C   0  0  0  0  0  0  0  0  0  0  0  0
  1  2  1  0
  2  3  2  0
  3  4  1  0
  4  5  1  0
  5  6  1  0
  6  7  1  0
  7  8  1  0
  7  9  1  0
  7 10  1  0
 10 11  1  0
 10 12  1  0
 10 13  1  0
  4 14  2  0
 14 15  1  0
 15 16  1  0
 16 17  1  0
 16 18  2  0
 16 19  2  0
 15 20  2  0
 20  2  1  0
 13  5  1  0
A    1
 C1 
A    2
 C2 
A    3
 C3 
A    4
 C4 
A    5
 B1 
A    6
 O1 
A    7
 C5 
A    8
 C6 
A    9
 C7 
A   10
 C8 
A   11
 C9 
A   12
 C10
A   13
 O2 
A   14
 C11
A   15
 C12
A   16
 S1 
A   17
 N1 
A   18
 O3 
A   19
 O4 
A   20
 C13
M  END
>  <ref_pdb>  (93) 
Ax0310a

>  <ref_mols>  (93) 
Ax0446a,Ax1080a,Ax0812a,Ax0719a,Ax1140a,Ax0528a,Ax0310a

>  <original SMILES>  (93) 
Cc1cc(B2OC(C)(C)C(C)(C)O2)cc(S(N)(=O)=O)c1

>  <rationale>  (93) 
info info set:sulfonimide_joint;hbond:G127+N129; hydroph_interaction:L100+L131; 

>  <experiment>  (93) 
sulfonimide_joint

>  <cluster_label>  (93) 
17

>  <cluster_rank>  (93) 
6

>  <N_interactions>  (93) 
6

>  <∆∆G>  (93) 
-4.741869

>  <comRMSD>  (93) 
0.735751

>  <ROCS_TanimotoCombo>  (93) 
0.333

>  <ROCS_ShapeTanimoto>  (93) 
0.217

>  <ROCS_ColorTanimoto>  (93) 
0.116

$$$$
EN300_7456597
     RDKit          3D

 13 13  0  0  0  0  0  0  0  0999 V2000
   34.6880   14.9434    8.0761 N   0  0  0  0  0  0  0  0  0  0  0  0
   33.5189   13.7745    8.2220 S   0  0  0  0  0  6  0  0  0  0  0  0
   34.1723   12.7608    8.9645 O   0  0  0  0  0  0  0  0  0  0  0  0
   32.2945   14.3459    8.7484 O   0  0  0  0  0  0  0  0  0  0  0  0
   33.4735   13.4879    6.4522 C   0  0  0  0  0  0  0  0  0  0  0  0
   32.3105   12.7257    5.9820 C   0  0  0  0  0  0  0  0  0  0  0  0
   32.0046   11.4865    6.5259 C   0  0  0  0  0  0  0  0  0  0  0  0
   32.9020   10.5646    6.1067 C   0  0  0  0  0  0  0  0  0  0  0  0
   32.7203    9.1873    6.6089 C   0  0  0  0  0  0  0  0  0  0  0  0
   31.6897    8.8000    7.4972 N   0  0  0  0  0  0  0  0  0  0  0  0
   30.8549    9.8151    7.8366 C   0  0  0  0  0  0  0  0  0  0  0  0
   30.9637   11.1459    7.3797 C   0  0  0  0  0  0  0  0  0  0  0  0
   29.7014   12.4467    7.9208 Br  0  0  0  0  0  0  0  0  0  0  0  0
  1  2  1  0
  2  3  2  0
  2  4  2  0
  2  5  1  0
  5  6  1  0
  6  7  1  0
  7  8  2  0
  8  9  1  0
  9 10  2  0
 10 11  1  0
 11 12  2  0
 12 13  1  0
 12  7  1  0
A    1
 N1 
A    2
 S1 
A    3
 O1 
A    4
 O2 
A    5
 C1 
A    6
 C2 
A    7
 C3 
A    8
 C4 
A    9
 C5 
A   10
 N2 
A   11
 C6 
A   12
 C7 
A   13
BR1 
M  END
>  <ref_pdb>  (94) 
Ax0310a

>  <ref_mols>  (94) 
Ax0446a,Ax1080a,Ax0812a,Ax0719a,Ax1140a,Ax0528a,Ax0310a

>  <original SMILES>  (94) 
NS(=O)(=O)CCc1ccncc1Br

>  <rationale>  (94) 
info info set:sulfonimide_whole;hbond:S87+G127+A86; hydroph_interaction:P107; 

>  <experiment>  (94) 
sulfonimide_whole

>  <cluster_label>  (94) 
5

>  <cluster_rank>  (94) 
6

>  <N_interactions>  (94) 
4

>  <∆∆G>  (94) 
-5.463312

>  <comRMSD>  (94) 
0.553948

>  <ROCS_TanimotoCombo>  (94) 
0.355

>  <ROCS_ShapeTanimoto>  (94) 
0.188

>  <ROCS_ColorTanimoto>  (94) 
0.167

$$$$
Z1556902364
     RDKit          3D

 20 22  0  0  0  0  0  0  0  0999 V2000
   29.4000   15.1274   11.7529 C   0  0  0  0  0  0  0  0  0  0  0  0
   28.7296   14.6617   10.5065 C   0  0  0  0  0  0  0  0  0  0  0  0
   27.7325   13.7619   10.5905 C   0  0  0  0  0  0  0  0  0  0  0  0
   29.7845   14.2743    9.5421 C   0  0  0  0  0  0  0  0  0  0  0  0
   29.6301   13.6563    8.2345 C   0  0  0  0  0  0  0  0  0  0  0  0
   30.8978   13.5105    7.7383 C   0  0  0  0  0  0  0  0  0  0  0  0
   31.1802   12.9335    6.4246 C   0  0  0  0  0  0  0  0  0  0  0  0
   31.3668   13.6377    5.4464 O   0  0  0  0  0  0  0  0  0  0  0  0
   31.2469   11.6128    6.4110 N   0  0  0  0  0  0  0  0  0  0  0  0
   31.0527   10.9386    7.6850 C   0  0  0  0  0  0  0  0  0  0  0  0
   31.5170    9.5285    7.4047 C   0  0  0  0  0  0  0  0  0  0  0  0
   32.6806    9.5422    6.3272 C   0  0  0  0  0  0  0  0  0  0  0  0
   32.3982   10.9756    5.7490 C   0  0  0  0  0  0  0  0  0  0  0  0
   33.0949   11.3160    4.4006 C   0  0  0  0  0  0  0  0  0  0  0  0
   34.3998   10.5333    4.3129 C   0  0  0  0  0  0  0  0  0  0  0  0
   35.3112   11.0864    5.2290 O   0  0  0  0  0  0  0  0  0  0  0  0
   34.5963   12.0923    5.9376 C   0  0  0  0  0  0  0  0  0  0  0  0
   33.4307   11.4478    6.7172 C   0  0  0  0  0  0  0  0  0  0  0  0
   31.7964   13.9856    8.6495 N   0  0  0  0  0  0  0  0  0  0  0  0
   31.1058   14.4663    9.7619 O   0  0  0  0  0  0  0  0  0  0  0  0
  1  2  1  0
  2  3  1  0
  2  4  1  0
  4  5  2  0
  5  6  1  0
  6  7  1  0
  7  8  2  0
  7  9  1  0
  9 10  1  0
 10 11  1  0
 11 12  1  0
 12 13  1  0
 13 14  1  0
 14 15  1  0
 15 16  1  0
 16 17  1  0
 17 18  1  0
  6 19  2  0
 19 20  1  0
 20  4  1  0
 13  9  1  0
 18 13  1  0
A    1
 C1 
A    2
 C2 
A    3
 C3 
A    4
 C4 
A    5
 C5 
A    6
 C6 
A    7
 C7 
A    8
 O1 
A    9
 N1 
A   10
 C8 
A   11
 C9 
A   12
 C10
A   13
 C11
A   14
 C12
A   15
 C13
A   16
 O2 
A   17
 C14
A   18
 C15
A   19
 N2 
A   20
 O3 
M  END
>  <ref_pdb>  (95) 
Ax0310a

>  <ref_mols>  (95) 
Ax0446a,Ax1080a,Ax0812a,Ax0719a,Ax1140a,Ax0528a,Ax0310a

>  <original SMILES>  (95) 
CC(C)c1cc(C(=O)N2CCCC23CCOCC3)no1

>  <rationale>  (95) 
info info set:3d;hbond:S87+E88; hydroph_interaction:P107+Y90+D39; 

>  <experiment>  (95) 
3d

>  <cluster_label>  (95) 
8

>  <cluster_rank>  (95) 
6

>  <N_interactions>  (95) 
6

>  <∆∆G>  (95) 
-0.87522

>  <comRMSD>  (95) 
0.843795

>  <ROCS_TanimotoCombo>  (95) 
0.354

>  <ROCS_ShapeTanimoto>  (95) 
0.213

>  <ROCS_ColorTanimoto>  (95) 
0.142

$$$$
Z86280727
     RDKit          3D

 25 27  0  0  0  0  0  0  0  0999 V2000
   26.9496   15.3247    8.9976 C   0  0  0  0  0  0  0  0  0  0  0  0
   28.1226   14.6578    8.4688 C   0  0  0  0  0  0  0  0  0  0  0  0
   27.8272   13.8493    7.2085 C   0  0  0  0  0  0  0  0  0  0  0  0
   29.1177   13.2223    6.6866 C   0  0  0  0  0  0  0  0  0  0  0  0
   30.3530   13.5683    7.5532 C   0  0  0  0  0  0  0  0  0  0  0  0
   31.5274   13.0859    7.1227 O   0  0  0  0  0  0  0  0  0  0  0  0
   31.6772   11.7428    7.1141 C   0  0  0  0  0  0  0  0  0  0  0  0
   30.7827   10.9811    7.8094 N   0  0  0  0  0  0  0  0  0  0  0  0
   31.0510    9.6710    7.7315 C   0  0  0  0  0  0  0  0  0  0  0  0
   30.2281    8.8108    8.4164 C   0  0  0  0  0  0  0  0  0  0  0  0
   30.0086    9.1311    9.6865 F   0  0  0  0  0  0  0  0  0  0  0  0
   30.6988    7.6026    8.5050 F   0  0  0  0  0  0  0  0  0  0  0  0
   29.0190    8.6047    7.9022 F   0  0  0  0  0  0  0  0  0  0  0  0
   32.0876    9.1504    7.0248 N   0  0  0  0  0  0  0  0  0  0  0  0
   32.9089    9.9674    6.3689 C   0  0  0  0  0  0  0  0  0  0  0  0
   34.0811    9.4564    5.5648 C   0  0  0  0  0  0  0  0  0  0  0  0
   34.9518   10.2797    4.8931 C   0  0  0  0  0  0  0  0  0  0  0  0
   34.7286   11.6496    4.9672 C   0  0  0  0  0  0  0  0  0  0  0  0
   33.6388   12.1655    5.7026 C   0  0  0  0  0  0  0  0  0  0  0  0
   32.7524   11.3194    6.3850 C   0  0  0  0  0  0  0  0  0  0  0  0
   30.2864   14.3488    8.6974 C   0  0  0  0  0  0  0  0  0  0  0  0
   31.4834   14.6542    9.4754 N   0  0  0  0  0  4  0  0  0  0  0  0
   32.5442   14.2115    9.0285 O   0  0  0  0  0  0  0  0  0  0  0  0
   31.4108   15.7351   10.0775 O   0  0  0  0  0  1  0  0  0  0  0  0
   29.1926   14.8752    9.1383 N   0  0  0  0  0  0  0  0  0  0  0  0
  1  2  1  0
  2  3  2  0
  3  4  1  0
  4  5  2  0
  5  6  1  0
  6  7  1  0
  7  8  2  0
  8  9  1  0
  9 10  1  0
 10 11  1  0
 10 12  1  0
 10 13  1  0
  9 14  2  0
 14 15  1  0
 15 16  2  0
 16 17  1  0
 17 18  2  0
 18 19  1  0
 19 20  2  0
  5 21  1  0
 21 22  1  0
 22 23  2  0
 22 24  1  0
 21 25  2  0
 25  2  1  0
 20  7  1  0
 20 15  1  0
M  CHG  2  22   1  24  -1
A    1
 C1 
A    2
 C2 
A    3
 C3 
A    4
 C4 
A    5
 C5 
A    6
 O1 
A    7
 C6 
A    8
 N1 
A    9
 C7 
A   10
 C8 
A   11
 F1 
A   12
 F2 
A   13
 F3 
A   14
 N2 
A   15
 C9 
A   16
 C10
A   17
 C11
A   18
 C12
A   19
 C13
A   20
 C14
A   21
 C15
A   22
 N3 
A   23
 O2 
A   24
 O3 
A   25
 N4 
M  END
>  <ref_pdb>  (96) 
Ax0310a

>  <ref_mols>  (96) 
Ax0446a,Ax1080a,Ax0812a,Ax0719a,Ax1140a,Ax0528a,Ax0310a

>  <original SMILES>  (96) 
Cc1ccc(Oc2nc(C(F)(F)F)nc3ccccc23)c([N+](=O)[O-])n1

>  <rationale>  (96) 
info info set:screening_whole;halogenbond:P107; hbond:S87; hydroph_interaction:P107+Y89+Y90+H21; pistack:H21; 

>  <experiment>  (96) 
screening_whole

>  <cluster_label>  (96) 
9

>  <cluster_rank>  (96) 
6

>  <N_interactions>  (96) 
7

>  <∆∆G>  (96) 
-1.397278

>  <comRMSD>  (96) 
0.634819

>  <ROCS_TanimotoCombo>  (96) 
0.48

>  <ROCS_ShapeTanimoto>  (96) 
0.28

>  <ROCS_ColorTanimoto>  (96) 
0.2

$$$$
Z98405516
     RDKit          3D

 24 27  0  0  0  0  0  0  0  0999 V2000
   33.8771   14.6325    9.0564 C   0  0  0  0  0  0  0  0  0  0  0  0
   32.5212   14.1298    9.5104 C   0  0  0  0  0  0  0  0  0  0  0  0
   31.4341   15.0287    9.3327 O   0  0  0  0  0  0  0  0  0  0  0  0
   30.3091   14.5361    8.7308 C   0  0  0  0  0  0  0  0  0  0  0  0
   28.9921   14.7683    9.3927 C   0  0  0  0  0  0  0  0  0  0  0  0
   27.7131   14.3076    8.7690 C   0  0  0  0  0  0  0  0  0  0  0  0
   27.7172   13.5592    7.4343 C   0  0  0  0  0  0  0  0  0  0  0  0
   29.0426   13.2800    6.7225 C   0  0  0  0  0  0  0  0  0  0  0  0
   30.3519   13.7783    7.3764 C   0  0  0  0  0  0  0  0  0  0  0  0
   31.4506   13.6032    6.8093 O   0  0  0  0  0  0  0  0  0  0  0  0
   31.7143   12.3414    6.8932 C   0  0  0  0  0  0  0  0  0  0  0  0
   30.9418   11.7476    7.6089 N   0  0  0  0  0  0  0  0  0  0  0  0
   31.1566   10.5140    7.6508 C   0  0  0  0  0  0  0  0  0  0  0  0
   30.4111    9.6162    8.4385 C   0  0  0  0  0  0  0  0  0  0  0  0
   31.0850    8.4641    8.0412 C   0  0  0  0  0  0  0  0  0  0  0  0
   30.3408    7.5441    8.7995 C   0  0  0  0  0  0  0  0  0  0  0  0
   32.1390    8.4442    7.1614 N   0  0  0  0  0  0  0  0  0  0  0  0
   32.1497    9.7890    6.9539 N   0  0  0  0  0  0  0  0  0  0  0  0
   33.0328   10.4228    6.1717 C   0  0  0  0  0  0  0  0  0  0  0  0
   34.1383    9.6738    5.4362 C   0  0  0  0  0  0  0  0  0  0  0  0
   34.9581   10.5279    4.7199 C   0  0  0  0  0  0  0  0  0  0  0  0
   34.7631   12.0321    4.6787 C   0  0  0  0  0  0  0  0  0  0  0  0
   33.7194   12.6323    5.3739 C   0  0  0  0  0  0  0  0  0  0  0  0
   32.8580   11.8204    6.1157 C   0  0  0  0  0  0  0  0  0  0  0  0
  1  2  1  0
  2  3  1  0
  3  4  1  0
  4  5  2  0
  5  6  1  0
  6  7  2  0
  7  8  1  0
  8  9  2  0
  9 10  1  0
 10 11  1  0
 11 12  2  0
 12 13  1  0
 13 14  2  0
 14 15  1  0
 15 16  1  0
 15 17  2  0
 17 18  1  0
 18 19  1  0
 19 20  2  0
 20 21  1  0
 21 22  2  0
 22 23  1  0
 23 24  2  0
  9  4  1  0
 24 11  1  0
 18 13  1  0
 24 19  1  0
A    1
 C1 
A    2
 C2 
A    3
 O1 
A    4
 C3 
A    5
 C4 
A    6
 C5 
A    7
 C6 
A    8
 C7 
A    9
 C8 
A   10
 O2 
A   11
 C9 
A   12
 N1 
A   13
 C10
A   14
 C11
A   15
 C12
A   16
 C13
A   17
 N2 
A   18
 N3 
A   19
 C14
A   20
 C15
A   21
 C16
A   22
 C17
A   23
 C18
A   24
 C19
M  END
>  <ref_pdb>  (97) 
Ax0310a

>  <ref_mols>  (97) 
Ax0446a,Ax1080a,Ax0812a,Ax0719a,Ax1140a,Ax0528a,Ax0310a

>  <original SMILES>  (97) 
CCOc1ccccc1Oc1nc2cc(C)nn2c2ccccc12

>  <rationale>  (97) 
info info set:screening_whole;hbond:S87+G127; hydroph_interaction:Y90+V124+V84+D109; pistack:H21; 

>  <experiment>  (97) 
screening_whole

>  <cluster_label>  (97) 
3

>  <cluster_rank>  (97) 
6

>  <N_interactions>  (97) 
7

>  <∆∆G>  (97) 
-7.463033

>  <comRMSD>  (97) 
0.594977

>  <ROCS_TanimotoCombo>  (97) 
0.484

>  <ROCS_ShapeTanimoto>  (97) 
0.285

>  <ROCS_ColorTanimoto>  (97) 
0.199

$$$$
EN300_23326
     RDKit          3D

 16 16  0  0  0  0  0  0  0  0999 V2000
   29.4061   14.7781   10.9899 C   0  0  0  0  0  0  0  0  0  0  0  0
   29.1739   14.1358    9.6426 C   0  0  1  0  0  0  0  0  0  0  0  0
   28.3566   15.2406    8.5089 Cl  0  0  0  0  0  0  0  0  0  0  0  0
   30.3566   13.5592    8.9319 C   0  0  0  0  0  0  0  0  0  0  0  0
   31.4732   14.0608    8.9665 O   0  0  0  0  0  0  0  0  0  0  0  0
   30.0131   12.4538    8.2786 N   0  0  0  0  0  0  0  0  0  0  0  0
   30.9780   11.5328    7.6592 C   0  0  0  0  0  0  0  0  0  0  0  0
   30.7028   10.0807    8.0491 C   0  0  0  0  0  0  0  0  0  0  0  0
   31.6684    9.0925    7.4041 C   0  0  0  0  0  0  0  0  0  0  0  0
   32.8238    9.4965    6.4528 C   0  0  0  0  0  0  0  0  0  0  0  0
   32.9550   10.9866    6.1926 C   0  0  0  0  0  0  0  0  0  0  0  0
   34.2360   11.5963    5.1492 S   0  0  0  0  0  6  0  0  0  0  0  0
   33.4517   11.6774    3.6654 N   0  0  0  0  0  0  0  0  0  0  0  0
   34.5136   12.9671    5.5121 O   0  0  0  0  0  0  0  0  0  0  0  0
   35.2658   10.5915    5.0535 O   0  0  0  0  0  0  0  0  0  0  0  0
   31.9841   11.9677    6.8319 C   0  0  0  0  0  0  0  0  0  0  0  0
  2  1  1  1
  2  3  1  0
  2  4  1  0
  4  5  2  0
  4  6  1  0
  6  7  1  0
  7  8  2  0
  8  9  1  0
  9 10  2  0
 10 11  1  0
 11 12  1  0
 12 13  1  0
 12 14  2  0
 12 15  2  0
 11 16  2  0
 16  7  1  0
A    1
 C1 
A    2
 C2 
A    3
CL1 
A    4
 C3 
A    5
 O1 
A    6
 N1 
A    7
 C4 
A    8
 C5 
A    9
 C6 
A   10
 C7 
A   11
 C8 
A   12
 S1 
A   13
 N2 
A   14
 O2 
A   15
 O3 
A   16
 C9 
M  END
>  <ref_pdb>  (98) 
Ax0310a

>  <ref_mols>  (98) 
Ax0446a,Ax1080a,Ax0812a,Ax0719a,Ax1140a,Ax0528a,Ax0310a

>  <original SMILES>  (98) 
C[C@@H](Cl)C(=O)Nc1cccc(S(N)(=O)=O)c1

>  <rationale>  (98) 
info info set:sulfonimide_whole;halogenbond:E88; hbond:S87; hydroph_interaction:Y90; 

>  <experiment>  (98) 
sulfonimide_whole

>  <cluster_label>  (98) 
7

>  <cluster_rank>  (98) 
6

>  <N_interactions>  (98) 
3

>  <∆∆G>  (98) 
-7.725132

>  <comRMSD>  (98) 
0.382562

>  <ROCS_TanimotoCombo>  (98) 
0.347

>  <ROCS_ShapeTanimoto>  (98) 
0.207

>  <ROCS_ColorTanimoto>  (98) 
0.14

$$$$
Z960169668
     RDKit          3D

 15 15  0  0  0  0  0  0  0  0999 V2000
   28.8357   14.9430    8.3083 C   0  0  0  0  0  0  0  0  0  0  0  0
   29.3107   13.6049    8.8465 C   0  0  0  0  0  0  0  0  0  0  0  0
   29.8261   12.7051    7.8061 N   0  0  0  0  0  0  0  0  0  0  0  0
   29.1227   12.8243    6.5620 C   0  0  0  0  0  0  0  0  0  0  0  0
   27.6367   12.4997    6.7156 C   0  0  0  0  0  0  0  0  0  0  0  0
   30.3174   11.3597    8.1133 C   0  0  0  0  0  0  0  0  0  0  0  0
   29.9770   10.5699    8.9338 O   0  0  0  0  0  0  0  0  0  0  0  0
   31.4773   10.8905    7.2032 C   0  0  0  0  0  0  0  0  0  0  0  0
   32.3697   11.7520    6.3516 C   0  0  0  0  0  0  0  0  0  0  0  0
   33.3795   11.2058    5.5767 C   0  0  0  0  0  0  0  0  0  0  0  0
   33.5650    9.7712    5.6022 C   0  0  0  0  0  0  0  0  0  0  0  0
   32.8236    8.9262    6.3275 N   0  0  0  0  0  0  0  0  0  0  0  0
   31.8265    9.3794    7.1033 C   0  0  0  0  0  0  0  0  0  0  0  0
   31.1407    8.3816    7.7932 N   0  0  0  0  0  0  0  0  0  0  0  0
   30.5217    8.6408    9.0731 C   0  0  0  0  0  0  0  0  0  0  0  0
  1  2  1  0
  2  3  1  0
  3  4  1  0
  4  5  1  0
  3  6  1  0
  6  7  2  0
  6  8  1  0
  8  9  2  0
  9 10  1  0
 10 11  2  0
 11 12  1  0
 12 13  2  0
 13 14  1  0
 14 15  1  0
 13  8  1  0
A    1
 C1 
A    2
 C2 
A    3
 N1 
A    4
 C3 
A    5
 C4 
A    6
 C5 
A    7
 O1 
A    8
 C6 
A    9
 C7 
A   10
 C8 
A   11
 C9 
A   12
 N2 
A   13
 C10
A   14
 N3 
A   15
 C11
M  END
>  <ref_pdb>  (99) 
Ax0310a

>  <ref_mols>  (99) 
Ax0446a,Ax1080a,Ax0812a,Ax0719a,Ax1140a,Ax0528a,Ax0310a

>  <original SMILES>  (99) 
CCN(CC)C(=O)c1cccnc1NC

>  <rationale>  (99) 
info info set:screening_pocket;hbond:E106; hydroph_interaction:P107; 

>  <experiment>  (99) 
screening_pocket

>  <cluster_label>  (99) 
6

>  <cluster_rank>  (99) 
7

>  <N_interactions>  (99) 
2

>  <∆∆G>  (99) 
-6.291928

>  <comRMSD>  (99) 
0.776431

>  <ROCS_TanimotoCombo>  (99) 
0.676

>  <ROCS_ShapeTanimoto>  (99) 
0.244

>  <ROCS_ColorTanimoto>  (99) 
0.432

$$$$
EN300_306974
     RDKit          3D

 14 14  0  0  0  0  0  0  0  0999 V2000
   30.6656    8.1356    9.0872 C   0  0  0  0  0  0  0  0  0  0  0  0
   30.4824    9.0461    8.1253 N   0  0  0  0  0  0  0  0  0  0  0  0
   31.4323    9.6742    7.3469 C   0  0  0  0  0  0  0  0  0  0  0  0
   32.3615    8.9800    6.6554 N   0  0  0  0  0  0  0  0  0  0  0  0
   33.2294    9.6949    5.9144 C   0  0  0  0  0  0  0  0  0  0  0  0
   33.2584   11.0811    5.8016 C   0  0  0  0  0  0  0  0  0  0  0  0
   34.1916   11.7431    5.0115 C   0  0  0  0  0  0  0  0  0  0  0  0
   33.6515   12.1803    3.8376 F   0  0  0  0  0  0  0  0  0  0  0  0
   35.2584   10.9729    4.6635 F   0  0  0  0  0  0  0  0  0  0  0  0
   32.2960   11.7734    6.5292 C   0  0  0  0  0  0  0  0  0  0  0  0
   31.3859   11.0554    7.2986 C   0  0  0  0  0  0  0  0  0  0  0  0
   30.3998   11.8119    8.0321 N   0  0  0  0  0  4  0  0  0  0  0  0
   30.8545   12.7027    8.7556 O   0  0  0  0  0  0  0  0  0  0  0  0
   29.2779   11.8848    7.5268 O   0  0  0  0  0  1  0  0  0  0  0  0
  1  2  1  0
  2  3  1  0
  3  4  2  0
  4  5  1  0
  5  6  2  0
  6  7  1  0
  7  8  1  0
  7  9  1  0
  6 10  1  0
 10 11  2  0
 11 12  1  0
 12 13  2  0
 12 14  1  0
 11  3  1  0
M  CHG  2  12   1  14  -1
A    1
 C1 
A    2
 N1 
A    3
 C2 
A    4
 N2 
A    5
 C3 
A    6
 C4 
A    7
 C5 
A    8
 F1 
A    9
 F2 
A   10
 C6 
A   11
 C7 
A   12
 N3 
A   13
 O1 
A   14
 O2 
M  END
>  <ref_pdb>  (100) 
Ax0310a

>  <ref_mols>  (100) 
Ax0446a,Ax1080a,Ax0812a,Ax0719a,Ax1140a,Ax0528a,Ax0310a

>  <original SMILES>  (100) 
CNc1ncc(C(F)F)cc1[N+](=O)[O-]

>  <rationale>  (100) 
info info set:bb_densepocket2;hbond:P107; 

>  <experiment>  (100) 
bb_densepocket2

>  <cluster_label>  (100) 
11

>  <cluster_rank>  (100) 
7

>  <N_interactions>  (100) 
1

>  <∆∆G>  (100) 
-3.199528

>  <comRMSD>  (100) 
0.6471

>  <ROCS_TanimotoCombo>  (100) 
0.611

>  <ROCS_ShapeTanimoto>  (100) 
0.25

>  <ROCS_ColorTanimoto>  (100) 
0.362

$$$$
EN300_249159
     RDKit          3D

 16 16  0  0  0  0  0  0  0  0999 V2000
   34.8367   14.2030    9.3207 C   0  0  0  0  0  0  0  0  0  0  0  0
   34.9093   13.6387    8.0738 N   0  0  0  0  0  0  0  0  0  0  0  0
   33.6134   13.4053    7.4625 C   0  0  0  0  0  0  0  0  0  0  0  0
   33.6466   13.5490    6.1316 C   0  0  0  0  0  0  0  0  0  0  0  0
   32.6496   12.7257    5.5523 O   0  0  0  0  0  0  0  0  0  0  0  0
   32.2523   11.6241    6.2449 C   0  0  0  0  0  0  0  0  0  0  0  0
   32.8497   10.2793    6.0775 C   0  0  0  0  0  0  0  0  0  0  0  0
   32.2930    9.1784    6.9042 C   0  0  0  0  0  0  0  0  0  0  0  0
   31.2649    9.4437    7.7874 C   0  0  0  0  0  0  0  0  0  0  0  0
   30.5907    8.1776    8.7950 S   0  0  0  0  0  6  0  0  0  0  0  0
   29.8121    9.1522    9.7628 N   0  0  0  0  0  0  0  0  0  0  0  0
   31.5287    7.5994    9.6523 O   0  0  0  0  0  0  0  0  0  0  0  0
   29.4817    7.4719    8.3155 O   0  0  0  0  0  0  0  0  0  0  0  0
   30.7256   10.7343    7.9235 C   0  0  0  0  0  0  0  0  0  0  0  0
   31.2182   11.7811    7.1617 C   0  0  0  0  0  0  0  0  0  0  0  0
   30.6649   12.9891    7.3263 F   0  0  0  0  0  0  0  0  0  0  0  0
  1  2  1  0
  2  3  1  0
  3  4  1  0
  4  5  1  0
  5  6  1  0
  6  7  2  0
  7  8  1  0
  8  9  2  0
  9 10  1  0
 10 11  1  0
 10 12  2  0
 10 13  2  0
  9 14  1  0
 14 15  2  0
 15 16  1  0
 15  6  1  0
A    1
 C1 
A    2
 N1 
A    3
 C2 
A    4
 C3 
A    5
 O1 
A    6
 C4 
A    7
 C5 
A    8
 C6 
A    9
 C7 
A   10
 S1 
A   11
 N2 
A   12
 O2 
A   13
 O3 
A   14
 C8 
A   15
 C9 
A   16
 F1 
M  END
>  <ref_pdb>  (101) 
Ax0310a

>  <ref_mols>  (101) 
Ax0446a,Ax1080a,Ax0812a,Ax0719a,Ax1140a,Ax0528a,Ax0310a

>  <original SMILES>  (101) 
CNCCOc1ccc(S(N)(=O)=O)cc1F

>  <rationale>  (101) 
info info set:sulfonimide_joint;hbond:S105+G127+D109; 

>  <experiment>  (101) 
sulfonimide_joint

>  <cluster_label>  (101) 
15

>  <cluster_rank>  (101) 
7

>  <N_interactions>  (101) 
4

>  <∆∆G>  (101) 
-3.436755

>  <comRMSD>  (101) 
0.653774

>  <ROCS_TanimotoCombo>  (101) 
0.306

>  <ROCS_ShapeTanimoto>  (101) 
0.194

>  <ROCS_ColorTanimoto>  (101) 
0.112

$$$$
EN300_4478273
     RDKit          3D

 15 15  0  0  0  0  0  0  0  0999 V2000
   27.7904   13.5646    6.9885 C   0  0  0  0  0  0  0  0  0  0  0  0
   28.9453   13.1786    7.9088 C   0  0  0  0  0  0  0  0  0  0  0  0
   30.0038   12.5440    7.1500 O   0  0  0  0  0  0  0  0  0  0  0  0
   30.5479   11.4881    7.7720 C   0  0  0  0  0  0  0  0  0  0  0  0
   30.2210   11.0327    8.8120 O   0  0  0  0  0  0  0  0  0  0  0  0
   31.6787   10.8559    6.9868 C   0  0  0  0  0  0  0  0  0  0  0  0
   32.3955   11.6756    6.1393 C   0  0  0  0  0  0  0  0  0  0  0  0
   33.4169   11.1504    5.4111 N   0  0  0  0  0  0  0  0  0  0  0  0
   33.7160    9.7359    5.5544 C   0  0  0  0  0  0  0  0  0  0  0  0
   34.7059    9.0355    4.9098 N   0  0  0  0  0  0  0  0  0  0  0  0
   34.9228    9.3914    3.5464 C   0  0  0  0  0  0  0  0  0  0  0  0
   33.0241    8.9944    6.3589 N   0  0  0  0  0  0  0  0  0  0  0  0
   32.0314    9.5370    7.0611 C   0  0  0  0  0  0  0  0  0  0  0  0
   31.4329    8.4721    7.8820 C   0  0  0  0  0  0  0  0  0  0  0  0
   29.8693    8.7466    8.5469 Cl  0  0  0  0  0  0  0  0  0  0  0  0
  1  2  1  0
  2  3  1  0
  3  4  1  0
  4  5  2  0
  4  6  1  0
  6  7  2  0
  7  8  1  0
  8  9  2  0
  9 10  1  0
 10 11  1  0
  9 12  1  0
 12 13  2  0
 13 14  1  0
 14 15  1  0
 13  6  1  0
A    1
 C1 
A    2
 C2 
A    3
 O1 
A    4
 C3 
A    5
 O2 
A    6
 C4 
A    7
 C5 
A    8
 N1 
A    9
 C6 
A   10
 N2 
A   11
 C7 
A   12
 N3 
A   13
 C8 
A   14
 C9 
A   15
CL1 
M  END
>  <ref_pdb>  (102) 
Ax0310a

>  <ref_mols>  (102) 
Ax0446a,Ax1080a,Ax0812a,Ax0719a,Ax1140a,Ax0528a,Ax0310a

>  <original SMILES>  (102) 
CCOC(=O)c1cnc(NC)nc1CCl

>  <rationale>  (102) 
info info set:bb_densepocket2;halogenbond:C110; hbond:S105; hydroph_interaction:Y89; 

>  <experiment>  (102) 
bb_densepocket2

>  <cluster_label>  (102) 
2

>  <cluster_rank>  (102) 
7

>  <N_interactions>  (102) 
3

>  <∆∆G>  (102) 
-1.950367

>  <comRMSD>  (102) 
0.762787

>  <ROCS_TanimotoCombo>  (102) 
0.621

>  <ROCS_ShapeTanimoto>  (102) 
0.261

>  <ROCS_ColorTanimoto>  (102) 
0.36

$$$$
EN300_37458937
     RDKit          3D

 15 15  0  0  0  0  0  0  0  0999 V2000
   34.6476   10.2767    3.9514 C   0  0  0  0  0  0  0  0  0  0  0  0
   33.6391   10.4367    5.0857 C   0  0  0  0  0  0  0  0  0  0  0  0
   33.3232    9.2589    5.7062 C   0  0  0  0  0  0  0  0  0  0  0  0
   32.4694    9.1178    6.7175 N   0  0  0  0  0  0  0  0  0  0  0  0
   31.8914   10.2698    7.1317 C   0  0  0  0  0  0  0  0  0  0  0  0
   31.0288   10.1371    8.1628 C   0  0  0  0  0  0  0  0  0  0  0  0
   30.2255   10.9708    8.5143 O   0  0  0  0  0  0  0  0  0  0  0  0
   31.3047    8.9358    8.6597 O   0  0  0  0  0  0  0  0  0  0  0  0
   30.3540    8.1093    9.2845 C   0  0  0  0  0  0  0  0  0  0  0  0
   29.5345    8.7456   10.1223 C   0  0  0  0  0  0  0  0  0  0  0  0
   29.4341    7.4674    8.5275 C   0  0  0  0  0  0  0  0  0  0  0  0
   30.8190    7.2139   10.2615 C   0  0  0  0  0  0  0  0  0  0  0  0
   32.1265   11.5163    6.5959 C   0  0  0  0  0  0  0  0  0  0  0  0
   33.0264   11.5967    5.5443 C   0  0  0  0  0  0  0  0  0  0  0  0
   33.3476   13.1414    4.8506 Cl  0  0  0  0  0  0  0  0  0  0  0  0
  1  2  1  0
  2  3  2  0
  3  4  1  0
  4  5  2  0
  5  6  1  0
  6  7  2  0
  6  8  1  0
  8  9  1  0
  9 10  1  0
  9 11  1  0
  9 12  1  0
  5 13  1  0
 13 14  2  0
 14 15  1  0
 14  2  1  0
A    1
 C1 
A    2
 C2 
A    3
 C3 
A    4
 N1 
A    5
 C4 
A    6
 C5 
A    7
 O1 
A    8
 O2 
A    9
 C6 
A   10
 C7 
A   11
 C8 
A   12
 C9 
A   13
 C10
A   14
 C11
A   15
CL1 
M  END
>  <ref_pdb>  (103) 
Ax0310a

>  <ref_mols>  (103) 
Ax0446a,Ax1080a,Ax0812a,Ax0719a,Ax1140a,Ax0528a,Ax0310a

>  <original SMILES>  (103) 
Cc1cnc(C(=O)OC(C)(C)C)cc1Cl

>  <rationale>  (103) 
info info set:bb_densepocket2;hydroph_interaction:V124+D109+V132; 

>  <experiment>  (103) 
bb_densepocket2

>  <cluster_label>  (103) 
18

>  <cluster_rank>  (103) 
7

>  <N_interactions>  (103) 
4

>  <∆∆G>  (103) 
-1.13215

>  <comRMSD>  (103) 
0.729674

>  <ROCS_TanimotoCombo>  (103) 
0.612

>  <ROCS_ShapeTanimoto>  (103) 
0.219

>  <ROCS_ColorTanimoto>  (103) 
0.393

$$$$
EN300_22312861
     RDKit          3D

 23 25  0  0  0  0  0  0  0  0999 V2000
   30.9031   15.9971    9.9886 C   0  0  0  0  0  0  0  0  0  0  0  0
   30.0056   15.0833    9.1648 C   0  0  0  0  0  0  0  0  0  0  0  0
   28.7124   15.4983    8.3658 C   0  0  0  0  0  0  0  0  0  0  0  0
   27.9199   14.4204    7.5931 C   0  0  0  0  0  0  0  0  0  0  0  0
   26.6913   14.4306    6.7705 C   0  0  0  0  0  0  0  0  0  0  0  0
   28.5179   13.1072    7.7160 C   0  0  0  0  0  0  0  0  0  0  0  0
   29.7153   12.8120    8.4685 C   0  0  0  0  0  0  0  0  0  0  0  0
   30.1724   11.5834    8.5235 N   0  0  0  0  0  0  0  0  0  0  0  0
   31.1192   11.0690    7.7691 C   0  0  0  0  0  0  0  0  0  0  0  0
   31.9335   11.8810    7.0347 N   0  0  0  0  0  0  0  0  0  0  0  0
   32.8177   11.3765    6.2674 C   0  0  0  0  0  0  0  0  0  0  0  0
   33.7616   12.2813    5.4642 C   0  0  0  0  0  0  0  0  0  0  0  0
   33.3898   13.7486    5.5646 C   0  0  0  0  0  0  0  0  0  0  0  0
   34.7749   11.7561    4.7809 C   0  0  0  0  0  0  0  0  0  0  0  0
   34.9712   10.3403    4.7904 C   0  0  0  0  0  0  0  0  0  0  0  0
   34.1037    9.5467    5.4318 C   0  0  0  0  0  0  0  0  0  0  0  0
   32.9898   10.0310    6.1165 N   0  0  0  0  0  0  0  0  0  0  0  0
   32.2898    9.1762    6.9393 C   0  0  0  0  0  0  0  0  0  0  0  0
   32.5529    8.0610    6.9647 O   0  0  0  0  0  0  0  0  0  0  0  0
   31.2360    9.7794    7.7776 C   0  0  0  0  0  0  0  0  0  0  0  0
   30.3938    8.8656    8.5852 C   0  0  0  0  0  0  0  0  0  0  0  0
   29.2591    8.5439    8.3115 O   0  0  0  0  0  0  0  0  0  0  0  0
   30.4023   13.7876    9.1477 C   0  0  0  0  0  0  0  0  0  0  0  0
  1  2  1  0
  2  3  2  0
  3  4  1  0
  4  5  1  0
  4  6  2  0
  6  7  1  0
  7  8  1  0
  8  9  1  0
  9 10  1  0
 10 11  2  0
 11 12  1  0
 12 13  1  0
 12 14  2  0
 14 15  1  0
 15 16  2  0
 16 17  1  0
 17 18  1  0
 18 19  2  0
 18 20  1  0
 20 21  1  0
 21 22  2  0
  7 23  2  0
 23  2  1  0
 20  9  2  0
 17 11  1  0
A    1
 C1 
A    2
 C2 
A    3
 C3 
A    4
 C4 
A    5
 C5 
A    6
 C6 
A    7
 C7 
A    8
 N1 
A    9
 C8 
A   10
 N2 
A   11
 C9 
A   12
 C10
A   13
 C11
A   14
 C12
A   15
 C13
A   16
 C14
A   17
 N3 
A   18
 C15
A   19
 O1 
A   20
 C16
A   21
 C17
A   22
 O2 
A   23
 C18
M  END
>  <ref_pdb>  (104) 
Ax0310a

>  <ref_mols>  (104) 
Ax0446a,Ax1080a,Ax0812a,Ax0719a,Ax1140a,Ax0528a,Ax0310a

>  <original SMILES>  (104) 
Cc1cc(C)cc(Nc2nc3c(C)cccn3c(=O)c2C=O)c1

>  <rationale>  (104) 
info info set:bb_whole;hbond:S125+G127+C110; hydroph_interaction:Y89+Y90; 

>  <experiment>  (104) 
bb_whole

>  <cluster_label>  (104) 
16

>  <cluster_rank>  (104) 
7

>  <N_interactions>  (104) 
6

>  <∆∆G>  (104) 
-5.39766

>  <comRMSD>  (104) 
0.523781

>  <ROCS_TanimotoCombo>  (104) 
0.414

>  <ROCS_ShapeTanimoto>  (104) 
0.277

>  <ROCS_ColorTanimoto>  (104) 
0.137

$$$$
EN300_12411
     RDKit          3D

 17 17  0  0  0  0  0  0  0  0999 V2000
   31.5498    8.1877    7.8528 C   0  0  0  0  0  0  0  0  0  0  0  0
   31.8590    9.4639    7.3627 C   0  0  0  0  0  0  0  0  0  0  0  0
   32.8241    9.8136    6.4943 C   0  0  0  0  0  0  0  0  0  0  0  0
   33.0317   11.2231    6.0927 C   0  0  0  0  0  0  0  0  0  0  0  0
   34.2399   11.8336    5.0087 S   0  0  0  0  0  6  0  0  0  0  0  0
   33.5208   11.8357    3.4932 N   0  0  0  0  0  0  0  0  0  0  0  0
   34.4375   13.2090    5.4007 O   0  0  0  0  0  0  0  0  0  0  0  0
   35.2877   10.8363    5.0215 O   0  0  0  0  0  0  0  0  0  0  0  0
   32.1165   12.1616    6.6861 C   0  0  0  0  0  0  0  0  0  0  0  0
   31.1349   11.6894    7.5766 C   0  0  0  0  0  0  0  0  0  0  0  0
   30.1903   12.5344    8.1977 N   0  0  0  0  0  0  0  0  0  0  0  0
   30.3868   13.6770    8.9351 C   0  0  0  0  0  0  0  0  0  0  0  0
   31.6824   14.0702    9.1205 O   0  0  0  0  0  0  0  0  0  0  0  0
   29.2843   14.3514    9.4111 C   0  0  0  0  0  0  0  0  0  0  0  0
   28.1350   14.5881    8.0809 Cl  0  0  0  0  0  0  0  0  0  0  0  0
   31.0677   10.3374    7.8766 C   0  0  0  0  0  0  0  0  0  0  0  0
   30.1450    9.6406    8.7876 C   0  0  0  0  0  0  0  0  0  0  0  0
  1  2  1  0
  2  3  2  0
  3  4  1  0
  4  5  1  0
  5  6  1  0
  5  7  2  0
  5  8  2  0
  4  9  2  0
  9 10  1  0
 10 11  1  0
 11 12  1  0
 12 13  2  0
 12 14  1  0
 14 15  1  0
 10 16  2  0
 16 17  1  0
 16  2  1  0
A    1
 C1 
A    2
 C2 
A    3
 C3 
A    4
 C4 
A    5
 S1 
A    6
 N1 
A    7
 O1 
A    8
 O2 
A    9
 C5 
A   10
 C6 
A   11
 N2 
A   12
 C7 
A   13
 O3 
A   14
 C8 
A   15
CL1 
A   16
 C9 
A   17
 C10
M  END
>  <ref_pdb>  (105) 
Ax0310a

>  <ref_mols>  (105) 
Ax0446a,Ax1080a,Ax0812a,Ax0719a,Ax1140a,Ax0528a,Ax0310a

>  <original SMILES>  (105) 
Cc1cc(S(N)(=O)=O)cc(NC(=O)CCl)c1C

>  <rationale>  (105) 
info info set:sulfonimide_whole;halogenbond:E88; hbond:S87; 

>  <experiment>  (105) 
sulfonimide_whole

>  <cluster_label>  (105) 
7

>  <cluster_rank>  (105) 
7

>  <N_interactions>  (105) 
2

>  <∆∆G>  (105) 
-7.561791

>  <comRMSD>  (105) 
0.469124

>  <ROCS_TanimotoCombo>  (105) 
0.362

>  <ROCS_ShapeTanimoto>  (105) 
0.223

>  <ROCS_ColorTanimoto>  (105) 
0.14

$$$$
EN300_125224
     RDKit          3D

 18 18  0  0  0  0  0  0  0  0999 V2000
   32.7956    9.8217    6.3746 C   0  0  0  0  0  0  0  0  0  0  0  0
   32.0564   10.9836    6.5971 C   0  0  0  0  0  0  0  0  0  0  0  0
   31.2774   11.0697    7.7447 C   0  0  0  0  0  0  0  0  0  0  0  0
   32.9233   12.2625    6.3943 C   0  0  0  0  0  0  0  0  0  0  0  0
   33.6917   12.8372    7.6422 C   0  0  0  0  0  0  0  0  0  0  0  0
   33.2376   12.8586    8.7653 O   0  0  0  0  0  0  0  0  0  0  0  0
   34.9744   13.3167    7.3572 N   0  0  0  0  0  0  0  0  0  0  0  0
   35.9563   13.7240    8.4005 C   0  0  0  0  0  0  0  0  0  0  0  0
   35.6069   13.1638    9.7844 C   0  0  0  0  0  0  0  0  0  0  0  0
   36.6665   12.5523   10.7128 C   0  0  0  0  0  0  0  0  0  0  0  0
   36.6650   11.2786   11.5260 C   0  0  0  0  0  0  0  0  0  0  0  0
   37.9198   11.0542   12.3845 C   0  0  0  0  0  0  0  0  0  0  0  0
   38.7959   12.2757   12.0992 C   0  0  0  0  0  0  0  0  0  0  0  0
   40.3719   12.8399   12.6818 S   0  0  0  0  0  6  0  0  0  0  0  0
   41.5846   11.8825   12.0733 N   0  0  0  0  0  0  0  0  0  0  0  0
   40.3582   12.6607   14.1103 O   0  0  0  0  0  0  0  0  0  0  0  0
   40.5577   14.0997   12.0131 O   0  0  0  0  0  0  0  0  0  0  0  0
   38.1232   13.3689   10.9701 S   0  0  0  0  0  0  0  0  0  0  0  0
  1  2  1  0
  2  3  1  0
  2  4  1  0
  4  5  1  0
  5  6  2  0
  5  7  1  0
  7  8  1  0
  8  9  1  0
  9 10  1  0
 10 11  2  0
 11 12  1  0
 12 13  2  0
 13 14  1  0
 14 15  1  0
 14 16  2  0
 14 17  2  0
 13 18  1  0
 18 10  1  0
A    1
 C1 
A    2
 C2 
A    3
 C3 
A    4
 C4 
A    5
 C5 
A    6
 O1 
A    7
 N1 
A    8
 C6 
A    9
 C7 
A   10
 C8 
A   11
 C9 
A   12
 C10
A   13
 C11
A   14
 S1 
A   15
 N2 
A   16
 O2 
A   17
 O3 
A   18
 S2 
M  END
>  <ref_pdb>  (106) 
Ax0310a

>  <ref_mols>  (106) 
Ax0446a,Ax1080a,Ax0812a,Ax0719a,Ax1140a,Ax0528a,Ax0310a

>  <original SMILES>  (106) 
CC(C)CC(=O)NCCc1ccc(S(N)(=O)=O)s1

>  <rationale>  (106) 
info info set:sulfonimide_joint;hbond:G127; hydroph_interaction:P107+V84+L100+L131; 

>  <experiment>  (106) 
sulfonimide_joint

>  <cluster_label>  (106) 
17

>  <cluster_rank>  (106) 
7

>  <N_interactions>  (106) 
5

>  <∆∆G>  (106) 
-5.263086

>  <comRMSD>  (106) 
0.897423

>  <ROCS_TanimotoCombo>  (106) 
0.367

>  <ROCS_ShapeTanimoto>  (106) 
0.25

>  <ROCS_ColorTanimoto>  (106) 
0.117

$$$$
EN300_227550
     RDKit          3D

 15 15  0  0  0  0  0  0  0  0999 V2000
   29.6616   13.2112    6.6892 C   0  0  0  0  0  0  0  0  0  0  0  0
   30.7756   13.4423    7.1724 O   0  0  0  0  0  0  0  0  0  0  0  0
   31.7962   12.9745    6.3840 C   0  0  1  0  0  0  0  0  0  0  0  0
   31.6213   13.4210    4.9262 C   0  0  0  0  0  0  0  0  0  0  0  0
   33.1750   13.4699    6.7721 C   0  0  0  0  0  0  0  0  0  0  0  0
   33.5555   13.8613    8.4881 S   0  0  0  0  0  6  0  0  0  0  0  0
   34.9437   14.7373    8.1072 N   0  0  0  0  0  0  0  0  0  0  0  0
   34.0415   12.7553    9.2129 O   0  0  0  0  0  0  0  0  0  0  0  0
   32.5654   14.7223    9.1042 O   0  0  0  0  0  0  0  0  0  0  0  0
   31.8336   11.6100    6.6553 C   0  0  0  0  0  0  0  0  0  0  0  0
   32.8143   10.6514    5.9667 C   0  0  0  0  0  0  0  0  0  0  0  0
   32.8766    9.1987    6.2553 C   0  0  0  0  0  0  0  0  0  0  0  0
   31.8765    8.7248    7.3052 C   0  0  0  0  0  0  0  0  0  0  0  0
   30.9983    9.5783    7.9243 C   0  0  0  0  0  0  0  0  0  0  0  0
   30.9547   11.0750    7.6087 C   0  0  0  0  0  0  0  0  0  0  0  0
  1  2  1  0
  3  2  1  0
  3  4  1  6
  3  5  1  0
  5  6  1  0
  6  7  1  0
  6  8  2  0
  6  9  2  0
  3 10  1  0
 10 11  2  0
 11 12  1  0
 12 13  2  0
 13 14  1  0
 14 15  2  0
 15 10  1  0
A    1
 C1 
A    2
 O1 
A    3
 C2 
A    4
 C3 
A    5
 C4 
A    6
 S1 
A    7
 N1 
A    8
 O2 
A    9
 O3 
A   10
 C5 
A   11
 C6 
A   12
 C7 
A   13
 C8 
A   14
 C9 
A   15
 C10
M  END
>  <ref_pdb>  (107) 
Ax0310a

>  <ref_mols>  (107) 
Ax0446a,Ax1080a,Ax0812a,Ax0719a,Ax1140a,Ax0528a,Ax0310a

>  <original SMILES>  (107) 
CO[C@@](C)(CS(N)(=O)=O)c1ccccc1

>  <rationale>  (107) 
info info set:sulfonimide_whole;hbond:S87+G127+A86; hydroph_interaction:P107; 

>  <experiment>  (107) 
sulfonimide_whole

>  <cluster_label>  (107) 
5

>  <cluster_rank>  (107) 
7

>  <N_interactions>  (107) 
4

>  <∆∆G>  (107) 
-8.179007

>  <comRMSD>  (107) 
0.442356

>  <ROCS_TanimotoCombo>  (107) 
0.368

>  <ROCS_ShapeTanimoto>  (107) 
0.195

>  <ROCS_ColorTanimoto>  (107) 
0.173

$$$$
EN300_26177738
     RDKit          3D

 20 21  0  0  0  0  0  0  0  0999 V2000
   33.5231   11.4881    3.6289 N   0  0  0  0  0  0  0  0  0  0  0  0
   34.3157   11.4438    5.1197 S   0  0  0  0  0  6  0  0  0  0  0  0
   34.6466   12.8209    5.4312 O   0  0  0  0  0  0  0  0  0  0  0  0
   35.3084   10.4090    4.9944 O   0  0  0  0  0  0  0  0  0  0  0  0
   33.0004   10.9137    6.1935 C   0  0  0  0  0  0  0  0  0  0  0  0
   32.8005    9.4603    6.4151 C   0  0  0  0  0  0  0  0  0  0  0  0
   31.7711    9.0741    7.2676 C   0  0  0  0  0  0  0  0  0  0  0  0
   30.9740   10.0405    7.8692 C   0  0  0  0  0  0  0  0  0  0  0  0
   31.1927   11.4053    7.6261 C   0  0  0  0  0  0  0  0  0  0  0  0
   30.3719   12.2999    8.2419 N   0  0  0  0  0  0  0  0  0  0  0  0
   30.7052   13.5298    8.7332 C   0  0  0  0  0  0  0  0  0  0  0  0
   31.9718   14.1446    8.8783 O   0  0  0  0  0  0  0  0  0  0  0  0
   29.4527   14.2059    9.1801 C   0  0  0  0  0  0  0  0  0  0  0  0
   29.4805   14.3212   10.6667 C   0  0  0  0  0  0  0  0  0  0  0  0
   28.2981   14.9011   11.3268 C   0  0  0  0  0  0  0  0  0  0  0  0
   27.1192   15.3736   10.4527 C   0  0  0  0  0  0  0  0  0  0  0  0
   27.2340   15.2157    8.9626 C   0  0  0  0  0  0  0  0  0  0  0  0
   28.4485   14.6143    8.3596 C   0  0  0  0  0  0  0  0  0  0  0  0
   28.5058   14.4833    7.0316 F   0  0  0  0  0  0  0  0  0  0  0  0
   32.1968   11.8403    6.7988 C   0  0  0  0  0  0  0  0  0  0  0  0
  1  2  1  0
  2  3  2  0
  2  4  2  0
  2  5  1  0
  5  6  2  0
  6  7  1  0
  7  8  2  0
  8  9  1  0
  9 10  1  0
 10 11  1  0
 11 12  2  0
 11 13  1  0
 13 14  2  0
 14 15  1  0
 15 16  2  0
 16 17  1  0
 17 18  2  0
 18 19  1  0
  9 20  2  0
 20  5  1  0
 18 13  1  0
A    1
 N1 
A    2
 S1 
A    3
 O1 
A    4
 O2 
A    5
 C1 
A    6
 C2 
A    7
 C3 
A    8
 C4 
A    9
 C5 
A   10
 N2 
A   11
 C6 
A   12
 O3 
A   13
 C7 
A   14
 C8 
A   15
 C9 
A   16
 C10
A   17
 C11
A   18
 C12
A   19
 F1 
A   20
 C13
M  END
>  <ref_pdb>  (108) 
Ax0310a

>  <ref_mols>  (108) 
Ax0446a,Ax1080a,Ax0812a,Ax0719a,Ax1140a,Ax0528a,Ax0310a

>  <original SMILES>  (108) 
NS(=O)(=O)c1cccc(NC(=O)c2ccccc2F)c1

>  <rationale>  (108) 
info info set:sulfonimide_whole;hbond:S87; hydroph_interaction:Y89+Y90+H21+D39; 

>  <experiment>  (108) 
sulfonimide_whole

>  <cluster_label>  (108) 
8

>  <cluster_rank>  (108) 
7

>  <N_interactions>  (108) 
5

>  <∆∆G>  (108) 
-6.008831

>  <comRMSD>  (108) 
0.477379

>  <ROCS_TanimotoCombo>  (108) 
0.349

>  <ROCS_ShapeTanimoto>  (108) 
0.213

>  <ROCS_ColorTanimoto>  (108) 
0.136

$$$$
Z31110920
     RDKit          3D

 24 27  0  0  0  0  0  0  0  0999 V2000
   26.1223   13.9233    7.4142 C   0  0  0  0  0  0  0  0  0  0  0  0
   27.5856   13.8299    7.5468 C   0  0  0  0  0  0  0  0  0  0  0  0
   28.1071   13.0242    6.6020 C   0  0  0  0  0  0  0  0  0  0  0  0
   29.4518   12.8229    6.5740 C   0  0  0  0  0  0  0  0  0  0  0  0
   30.2463   13.4369    7.5032 C   0  0  0  0  0  0  0  0  0  0  0  0
   31.5681   13.1788    7.3998 O   0  0  0  0  0  0  0  0  0  0  0  0
   31.7743   11.8354    7.2554 C   0  0  0  0  0  0  0  0  0  0  0  0
   30.9386   11.0053    7.8783 N   0  0  0  0  0  0  0  0  0  0  0  0
   31.1330    9.6968    7.7536 C   0  0  0  0  0  0  0  0  0  0  0  0
   30.1945    8.8576    8.5388 C   0  0  0  0  0  0  0  0  0  0  0  0
   32.0790    9.1068    7.0243 N   0  0  0  0  0  0  0  0  0  0  0  0
   32.8913    9.9820    6.4140 C   0  0  0  0  0  0  0  0  0  0  0  0
   34.1926    9.4589    5.4221 S   0  0  0  0  0  0  0  0  0  0  0  0
   34.6556   11.0493    5.1630 C   0  0  0  0  0  0  0  0  0  0  0  0
   33.8508   11.9685    5.7668 C   0  0  0  0  0  0  0  0  0  0  0  0
   32.8117   11.3617    6.4966 C   0  0  0  0  0  0  0  0  0  0  0  0
   34.3173   13.3495    5.4858 C   0  0  0  0  0  0  0  0  0  0  0  0
   35.8001   13.0698    5.1005 C   0  0  0  0  0  0  0  0  0  0  0  0
   35.7702   11.6681    4.4091 C   0  0  0  0  0  0  0  0  0  0  0  0
   29.6940   14.2489    8.4590 C   0  0  0  0  0  0  0  0  0  0  0  0
   30.7100   14.8173    9.3788 N   0  0  0  0  0  4  0  0  0  0  0  0
   31.8640   14.3726    9.2650 O   0  0  0  0  0  0  0  0  0  0  0  0
   30.4697   15.8775    9.9175 O   0  0  0  0  0  1  0  0  0  0  0  0
   28.3302   14.4770    8.5054 N   0  0  0  0  0  0  0  0  0  0  0  0
  1  2  1  0
  2  3  2  0
  3  4  1  0
  4  5  2  0
  5  6  1  0
  6  7  1  0
  7  8  2  0
  8  9  1  0
  9 10  1  0
  9 11  2  0
 11 12  1  0
 12 13  1  0
 13 14  1  0
 14 15  2  0
 15 16  1  0
 15 17  1  0
 17 18  1  0
 18 19  1  0
  5 20  1  0
 20 21  1  0
 21 22  2  0
 21 23  1  0
 20 24  2  0
 24  2  1  0
 16  7  1  0
 16 12  2  0
 19 14  1  0
M  CHG  2  21   1  23  -1
A    1
 C1 
A    2
 C2 
A    3
 C3 
A    4
 C4 
A    5
 C5 
A    6
 O1 
A    7
 C6 
A    8
 N1 
A    9
 C7 
A   10
 C8 
A   11
 N2 
A   12
 C9 
A   13
 S1 
A   14
 C10
A   15
 C11
A   16
 C12
A   17
 C13
A   18
 C14
A   19
 C15
A   20
 C16
A   21
 N3 
A   22
 O2 
A   23
 O3 
A   24
 N4 
M  END
>  <ref_pdb>  (109) 
Ax0310a

>  <ref_mols>  (109) 
Ax0446a,Ax1080a,Ax0812a,Ax0719a,Ax1140a,Ax0528a,Ax0310a

>  <original SMILES>  (109) 
Cc1ccc(Oc2nc(C)nc3sc4c(c23)CCC4)c([N+](=O)[O-])n1

>  <rationale>  (109) 
info info set:screening_whole;hbond:S87; hydroph_interaction:P107+Y89+V124+H21; 

>  <experiment>  (109) 
screening_whole

>  <cluster_label>  (109) 
9

>  <cluster_rank>  (109) 
7

>  <N_interactions>  (109) 
5

>  <∆∆G>  (109) 
-8.56426

>  <comRMSD>  (109) 
0.64578

>  <ROCS_TanimotoCombo>  (109) 
0.466

>  <ROCS_ShapeTanimoto>  (109) 
0.267

>  <ROCS_ColorTanimoto>  (109) 
0.199

$$$$
EN300_746189
     RDKit          3D

 18 18  0  0  0  0  0  0  0  0999 V2000
   28.8764   15.9683    8.3643 C   0  0  0  0  0  0  0  0  0  0  0  0
   28.3894   14.5708    8.5733 C   0  0  0  0  0  0  0  0  0  0  0  0
   27.3781   14.1822    7.5366 C   0  0  0  0  0  0  0  0  0  0  0  0
   27.8566   14.5339    9.9916 C   0  0  0  0  0  0  0  0  0  0  0  0
   29.5362   13.7273    8.4483 O   0  0  0  0  0  0  0  0  0  0  0  0
   29.4416   12.7405    7.5523 C   0  0  0  0  0  0  0  0  0  0  0  0
   28.9357   12.8220    6.4482 O   0  0  0  0  0  0  0  0  0  0  0  0
   30.0230   11.6276    8.0365 N   0  0  0  0  0  0  0  0  0  0  0  0
   31.0034   11.0930    7.1443 C   0  0  2  0  0  0  0  0  0  0  0  0
   31.6019    9.7185    7.3649 C   0  0  0  0  0  0  0  0  0  0  0  0
   32.7891    9.7786    6.3668 C   0  0  0  0  0  0  0  0  0  0  0  0
   32.9515   11.2673    6.0019 C   0  0  2  0  0  0  0  0  0  0  0  0
   34.2685   11.9918    5.9365 C   0  0  0  0  0  0  0  0  0  0  0  0
   34.1859   13.3052    7.1635 S   0  0  0  0  0  6  0  0  0  0  0  0
   35.6347   14.1652    7.1371 N   0  0  0  0  0  0  0  0  0  0  0  0
   34.0030   12.8695    8.5475 O   0  0  0  0  0  0  0  0  0  0  0  0
   33.2177   14.1424    6.5591 O   0  0  0  0  0  0  0  0  0  0  0  0
   32.1647   11.9681    7.0796 C   0  0  0  0  0  0  0  0  0  0  0  0
  1  2  1  0
  2  3  1  0
  2  4  1  0
  2  5  1  0
  5  6  1  0
  6  7  2  0
  6  8  1  0
  9  8  1  1
  9 10  1  0
 10 11  1  0
 11 12  1  0
 12 13  1  1
 13 14  1  0
 14 15  1  0
 14 16  2  0
 14 17  2  0
 12 18  1  0
 18  9  1  0
A    1
 C1 
A    2
 C2 
A    3
 C3 
A    4
 C4 
A    5
 O1 
A    6
 C5 
A    7
 O2 
A    8
 N1 
A    9
 C6 
A   10
 C7 
A   11
 C8 
A   12
 C9 
A   13
 C10
A   14
 S1 
A   15
 N2 
A   16
 O3 
A   17
 O4 
A   18
 C11
M  END
>  <ref_pdb>  (110) 
Ax0310a

>  <ref_mols>  (110) 
Ax0446a,Ax1080a,Ax0812a,Ax0719a,Ax1140a,Ax0528a,Ax0310a

>  <original SMILES>  (110) 
CC(C)(C)OC(=O)N[C@@H]1CC[C@H](CS(N)(=O)=O)C1

>  <rationale>  (110) 
info info set:sulfonimide_whole;hbond:S87+S125+G127+E85; hydroph_interaction:Y89+Y90; 

>  <experiment>  (110) 
sulfonimide_whole

>  <cluster_label>  (110) 
3

>  <cluster_rank>  (110) 
7

>  <N_interactions>  (110) 
8

>  <∆∆G>  (110) 
-4.53228

>  <comRMSD>  (110) 
0.920273

>  <ROCS_TanimotoCombo>  (110) 
0.358

>  <ROCS_ShapeTanimoto>  (110) 
0.22

>  <ROCS_ColorTanimoto>  (110) 
0.138

$$$$
Z3079948510
     RDKit          3D

 18 19  0  0  0  0  0  0  0  0999 V2000
   34.6593    9.6053    3.1285 C   0  0  0  0  0  0  0  0  0  0  0  0
   34.9757    9.2257    4.5429 C   0  0  0  0  0  0  0  0  0  0  0  0
   34.0222    8.6585    5.2410 N   0  0  0  0  0  0  0  0  0  0  0  0
   33.1803    9.4741    5.9805 C   0  0  0  0  0  0  0  0  0  0  0  0
   33.2753   10.9945    5.8155 C   0  0  0  0  0  0  0  0  0  0  0  0
   32.2716   11.7151    6.6845 C   0  0  0  0  0  0  0  0  0  0  0  0
   31.3290   10.9369    7.5770 C   0  0  0  0  0  0  0  0  0  0  0  0
   30.3879   11.5557    8.3811 N   0  0  0  0  0  0  0  0  0  0  0  0
   29.7077   12.7133    8.0589 C   0  0  0  0  0  0  0  0  0  0  0  0
   29.1555   13.7772    8.9988 C   0  0  0  0  0  0  0  0  0  0  0  0
   28.4887   14.8766    8.4770 C   0  0  0  0  0  0  0  0  0  0  0  0
   28.3277   15.0221    7.1609 N   0  0  0  0  0  0  0  0  0  0  0  0
   28.8305   14.0648    6.3490 C   0  0  0  0  0  0  0  0  0  0  0  0
   28.6965   14.1775    4.9750 C   0  0  0  0  0  0  0  0  0  0  0  0
   27.4281   13.8791    4.4528 C   0  0  0  0  0  0  0  0  0  0  0  0
   29.5430   12.8669    6.7626 N   0  0  0  0  0  0  0  0  0  0  0  0
   31.4384    9.5522    7.5574 C   0  0  0  0  0  0  0  0  0  0  0  0
   32.3100    8.8385    6.8130 N   0  0  0  0  0  0  0  0  0  0  0  0
  1  2  1  0
  2  3  1  0
  3  4  1  0
  4  5  2  0
  5  6  1  0
  6  7  2  0
  7  8  1  0
  8  9  1  0
  9 10  2  0
 10 11  1  0
 11 12  2  0
 12 13  1  0
 13 14  1  0
 14 15  1  0
 13 16  2  0
  7 17  1  0
 17 18  2  0
 18  4  1  0
 16  9  1  0
A    1
 C1 
A    2
 C2 
A    3
 N1 
A    4
 C3 
A    5
 C4 
A    6
 C5 
A    7
 C6 
A    8
 N2 
A    9
 C7 
A   10
 C8 
A   11
 C9 
A   12
 N3 
A   13
 C10
A   14
 C11
A   15
 C12
A   16
 N4 
A   17
 C13
A   18
 N5 
M  END
>  <ref_pdb>  (111) 
Ax0310a

>  <ref_mols>  (111) 
Ax0446a,Ax1080a,Ax0812a,Ax0719a,Ax1140a,Ax0528a,Ax0310a

>  <original SMILES>  (111) 
CCNc1ccc(Nc2ccnc(CC)n2)cn1

>  <rationale>  (111) 
info info set:screening_pocket;hbond:S105+S125+G127; hydroph_interaction:P107+Y89+E88; pistack:H21; 

>  <experiment>  (111) 
screening_pocket

>  <cluster_label>  (111) 
12

>  <cluster_rank>  (111) 
7

>  <N_interactions>  (111) 
7

>  <∆∆G>  (111) 
-4.73824

>  <comRMSD>  (111) 
0.421274

>  <ROCS_TanimotoCombo>  (111) 
0.633

>  <ROCS_ShapeTanimoto>  (111) 
0.234

>  <ROCS_ColorTanimoto>  (111) 
0.399

$$$$
EN300_107670
     RDKit          3D

 17 17  0  0  0  0  0  0  0  0999 V2000
   29.9779    8.4736    8.8121 C   0  0  0  0  0  0  0  0  0  0  0  0
   30.0051    9.8674    8.7742 O   0  0  0  0  0  0  0  0  0  0  0  0
   30.9613   10.2505    7.9339 C   0  0  0  0  0  0  0  0  0  0  0  0
   31.8450    9.2083    7.2582 C   0  0  0  0  0  0  0  0  0  0  0  0
   32.9284    9.6435    6.3122 C   0  0  0  0  0  0  0  0  0  0  0  0
   33.0452   11.1529    6.1166 C   0  0  0  0  0  0  0  0  0  0  0  0
   34.2733   11.7911    5.0475 S   0  0  0  0  0  6  0  0  0  0  0  0
   33.5314   11.6864    3.5083 N   0  0  0  0  0  0  0  0  0  0  0  0
   35.4123   10.9059    5.0144 O   0  0  0  0  0  0  0  0  0  0  0  0
   34.6397   13.1873    5.4570 O   0  0  0  0  0  0  0  0  0  0  0  0
   32.0776   12.0932    6.8648 C   0  0  0  0  0  0  0  0  0  0  0  0
   31.0991   11.6204    7.7168 C   0  0  0  0  0  0  0  0  0  0  0  0
   30.2042   12.4618    8.4015 N   0  0  0  0  0  0  0  0  0  0  0  0
   30.4434   13.6706    9.0166 C   0  0  0  0  0  0  0  0  0  0  0  0
   31.5431   14.2063    9.1485 O   0  0  0  0  0  0  0  0  0  0  0  0
   29.1794   14.3370    9.5521 C   0  0  0  0  0  0  0  0  0  0  0  0
   28.3237   15.1153    8.2137 Cl  0  0  0  0  0  0  0  0  0  0  0  0
  1  2  1  0
  2  3  1  0
  3  4  2  0
  4  5  1  0
  5  6  2  0
  6  7  1  0
  7  8  1  0
  7  9  2  0
  7 10  2  0
  6 11  1  0
 11 12  2  0
 12 13  1  0
 13 14  1  0
 14 15  2  0
 14 16  1  0
 16 17  1  0
 12  3  1  0
A    1
 C1 
A    2
 O1 
A    3
 C2 
A    4
 C3 
A    5
 C4 
A    6
 C5 
A    7
 S1 
A    8
 N1 
A    9
 O2 
A   10
 O3 
A   11
 C6 
A   12
 C7 
A   13
 N2 
A   14
 C8 
A   15
 O4 
A   16
 C9 
A   17
CL1 
M  END
>  <ref_pdb>  (112) 
Ax0310a

>  <ref_mols>  (112) 
Ax0446a,Ax1080a,Ax0812a,Ax0719a,Ax1140a,Ax0528a,Ax0310a

>  <original SMILES>  (112) 
COc1ccc(S(N)(=O)=O)cc1NC(=O)CCl

>  <rationale>  (112) 
info info set:sulfonimide_whole;halogenbond:E88; hbond:S87; 

>  <experiment>  (112) 
sulfonimide_whole

>  <cluster_label>  (112) 
7

>  <cluster_rank>  (112) 
8

>  <N_interactions>  (112) 
2

>  <∆∆G>  (112) 
-7.8201

>  <comRMSD>  (112) 
0.572419

>  <ROCS_TanimotoCombo>  (112) 
0.358

>  <ROCS_ShapeTanimoto>  (112) 
0.22

>  <ROCS_ColorTanimoto>  (112) 
0.138

$$$$
Z2297678222
     RDKit          3D

 23 25  0  0  0  0  0  0  0  0999 V2000
   30.2334    8.7997    8.5317 C   0  0  0  0  0  0  0  0  0  0  0  0
   31.2510    9.5270    7.7212 C   0  0  0  0  0  0  0  0  0  0  0  0
   32.2519    8.8462    6.9707 N   0  0  0  0  0  0  0  0  0  0  0  0
   32.9751    9.8912    6.4396 C   0  0  0  0  0  0  0  0  0  0  0  0
   34.1004    9.8578    5.6233 C   0  0  0  0  0  0  0  0  0  0  0  0
   34.6575   11.0808    5.2608 C   0  0  0  0  0  0  0  0  0  0  0  0
   35.7563   11.0639    4.4924 F   0  0  0  0  0  0  0  0  0  0  0  0
   34.1360   12.3534    5.6612 C   0  0  0  0  0  0  0  0  0  0  0  0
   34.7244   13.4986    5.2822 F   0  0  0  0  0  0  0  0  0  0  0  0
   33.0018   12.3898    6.4545 C   0  0  0  0  0  0  0  0  0  0  0  0
   32.4590   11.1474    6.8248 C   0  0  0  0  0  0  0  0  0  0  0  0
   31.3889   10.8483    7.5890 N   0  0  0  0  0  0  0  0  0  0  0  0
   30.5405   11.8076    8.1759 C   0  0  0  0  0  0  0  0  0  0  0  0
   30.0175   12.5939    7.2349 C   0  0  0  0  0  0  0  0  0  0  0  0
   29.9086   12.3045    6.0612 O   0  0  0  0  0  0  0  0  0  0  0  0
   29.6103   13.7657    7.6831 N   0  0  0  0  0  0  0  0  0  0  0  0
   28.6015   14.3805    6.8689 C   0  0  0  0  0  0  0  0  0  0  0  0
   28.1384   15.3263    7.6818 C   0  0  0  0  0  0  0  0  0  0  0  0
   28.7244   15.2055    9.0410 C   0  0  0  0  0  0  0  0  0  0  0  0
   29.5013   14.1063    9.1077 C   0  0  2  0  0  0  0  0  0  0  0  0
   30.8409   14.5304    9.7791 C   0  0  0  0  0  0  0  0  0  0  0  0
   30.7286   15.2090   10.9517 N   0  0  0  0  0  0  0  0  0  0  0  0
   32.1550   14.2531    9.2250 O   0  0  0  0  0  0  0  0  0  0  0  0
  1  2  1  0
  2  3  2  0
  3  4  1  0
  4  5  2  0
  5  6  1  0
  6  7  1  0
  6  8  2  0
  8  9  1  0
  8 10  1  0
 10 11  2  0
 11 12  1  0
 12 13  1  0
 13 14  1  0
 14 15  2  0
 14 16  1  0
 16 17  1  0
 17 18  1  0
 18 19  1  0
 19 20  1  0
 20 21  1  6
 21 22  1  0
 21 23  2  0
 12  2  1  0
 20 16  1  0
 11  4  1  0
A    1
 C1 
A    2
 C2 
A    3
 N1 
A    4
 C3 
A    5
 C4 
A    6
 C5 
A    7
 F1 
A    8
 C6 
A    9
 F2 
A   10
 C7 
A   11
 C8 
A   12
 N2 
A   13
 C9 
A   14
 C10
A   15
 O1 
A   16
 N3 
A   17
 C11
A   18
 C12
A   19
 C13
A   20
 C14
A   21
 C15
A   22
 N4 
A   23
 O2 
M  END
>  <ref_pdb>  (113) 
Ax0310a

>  <ref_mols>  (113) 
Ax0446a,Ax1080a,Ax0812a,Ax0719a,Ax1140a,Ax0528a,Ax0310a

>  <original SMILES>  (113) 
Cc1nc2cc(F)c(F)cc2n1CC(=O)N1CCC[C@@H]1C(N)=O

>  <rationale>  (113) 
info info set:screening_whole;hbond:S87+Q95; hydroph_interaction:Y89+Y90+V124; 

>  <experiment>  (113) 
screening_whole

>  <cluster_label>  (113) 
18

>  <cluster_rank>  (113) 
8

>  <N_interactions>  (113) 
5

>  <∆∆G>  (113) 
-5.870184

>  <comRMSD>  (113) 
0.541219

>  <ROCS_TanimotoCombo>  (113) 
0.454

>  <ROCS_ShapeTanimoto>  (113) 
0.274

>  <ROCS_ColorTanimoto>  (113) 
0.18

$$$$
EN300_3055818
     RDKit          3D

 13 13  0  0  0  0  0  0  0  0999 V2000
   30.3017    8.8531    9.3025 C   0  0  0  0  0  0  0  0  0  0  0  0
   30.7030    8.5226    8.0091 N   0  0  0  0  0  0  0  0  0  0  0  0
   31.5164    9.4234    7.3214 C   0  0  0  0  0  0  0  0  0  0  0  0
   32.5453    8.8251    6.5138 N   0  0  0  0  0  0  0  0  0  0  0  0
   33.3887    9.5813    5.7760 C   0  0  0  0  0  0  0  0  0  0  0  0
   33.2300   11.0724    5.8197 C   0  0  0  0  0  0  0  0  0  0  0  0
   34.1973   11.9560    4.9543 C   0  0  0  0  0  0  0  0  0  0  0  0
   33.9419   13.0959    4.6049 O   0  0  0  0  0  0  0  0  0  0  0  0
   35.3202   11.2459    4.6574 O   0  0  0  0  0  0  0  0  0  0  0  0
   36.4165   12.0405    4.2135 C   0  0  0  0  0  0  0  0  0  0  0  0
   32.2269   11.6374    6.6185 C   0  0  0  0  0  0  0  0  0  0  0  0
   31.3552   10.8451    7.3799 C   0  0  0  0  0  0  0  0  0  0  0  0
   30.3701   11.5487    8.1400 N   0  0  0  0  0  0  0  0  0  0  0  0
  1  2  1  0
  2  3  1  0
  3  4  2  0
  4  5  1  0
  5  6  2  0
  6  7  1  0
  7  8  2  0
  7  9  1  0
  9 10  1  0
  6 11  1  0
 11 12  2  0
 12 13  1  0
 12  3  1  0
A    1
 C1 
A    2
 N1 
A    3
 C2 
A    4
 N2 
A    5
 C3 
A    6
 C4 
A    7
 C5 
A    8
 O1 
A    9
 O2 
A   10
 C6 
A   11
 C7 
A   12
 C8 
A   13
 N3 
M  END
>  <ref_pdb>  (114) 
Ax0310a

>  <ref_mols>  (114) 
Ax0446a,Ax1080a,Ax0812a,Ax0719a,Ax1140a,Ax0528a,Ax0310a

>  <original SMILES>  (114) 
CNc1ncc(C(=O)OC)cc1N

>  <rationale>  (114) 
info info set:bb_densepocket2;hbond:S125+G127+E106; 

>  <experiment>  (114) 
bb_densepocket2

>  <cluster_label>  (114) 
6

>  <cluster_rank>  (114) 
8

>  <N_interactions>  (114) 
3

>  <∆∆G>  (114) 
-4.902583

>  <comRMSD>  (114) 
0.347309

>  <ROCS_TanimotoCombo>  (114) 
0.624

>  <ROCS_ShapeTanimoto>  (114) 
0.23

>  <ROCS_ColorTanimoto>  (114) 
0.394

$$$$
EN300_110842
     RDKit          3D

 14 15  0  0  0  0  0  0  0  0999 V2000
   29.6056    8.5172    8.2295 N   0  0  0  0  0  0  0  0  0  0  0  0
   30.9010    8.5977    8.3389 N   0  0  0  0  0  0  0  0  0  0  0  0
   31.6204    9.4291    7.4268 C   0  0  0  0  0  0  0  0  0  0  0  0
   32.6098    8.9026    6.6756 N   0  0  0  0  0  0  0  0  0  0  0  0
   33.2745    9.7212    5.8540 C   0  0  0  0  0  0  0  0  0  0  0  0
   34.4052    9.1661    4.9946 C   0  0  0  0  0  0  0  0  0  0  0  0
   35.1615   10.0785    4.0756 C   0  0  0  0  0  0  0  0  0  0  0  0
   34.7184   11.5326    4.0811 C   0  0  0  0  0  0  0  0  0  0  0  0
   33.6676   11.9411    4.9048 C   0  0  0  0  0  0  0  0  0  0  0  0
   32.9540   11.1002    5.7646 C   0  0  0  0  0  0  0  0  0  0  0  0
   31.9608   11.6314    6.5027 N   0  0  0  0  0  0  0  0  0  0  0  0
   31.2925   10.7961    7.3317 C   0  0  0  0  0  0  0  0  0  0  0  0
   30.2291   11.2985    8.1329 N   0  0  0  0  0  0  0  0  0  0  0  0
   30.3022   12.6383    8.5854 N   0  0  0  0  0  0  0  0  0  0  0  0
  1  2  1  0
  2  3  1  0
  3  4  2  0
  4  5  1  0
  5  6  2  0
  6  7  1  0
  7  8  2  0
  8  9  1  0
  9 10  2  0
 10 11  1  0
 11 12  2  0
 12 13  1  0
 13 14  1  0
 12  3  1  0
 10  5  1  0
A    1
 N1 
A    2
 N2 
A    3
 C1 
A    4
 N3 
A    5
 C2 
A    6
 C3 
A    7
 C4 
A    8
 C5 
A    9
 C6 
A   10
 C7 
A   11
 N4 
A   12
 C8 
A   13
 N5 
A   14
 N6 
M  END
>  <ref_pdb>  (115) 
Ax0310a

>  <ref_mols>  (115) 
Ax0446a,Ax1080a,Ax0812a,Ax0719a,Ax1140a,Ax0528a,Ax0310a

>  <original SMILES>  (115) 
NNc1nc2ccccc2nc1NN

>  <rationale>  (115) 
info info set:bb_densepocket2;hbond:S125+G127+E106+C110+T126; 

>  <experiment>  (115) 
bb_densepocket2

>  <cluster_label>  (115) 
16

>  <cluster_rank>  (115) 
8

>  <N_interactions>  (115) 
5

>  <∆∆G>  (115) 
-4.96522

>  <comRMSD>  (115) 
0.301014

>  <ROCS_TanimotoCombo>  (115) 
0.611

>  <ROCS_ShapeTanimoto>  (115) 
0.275

>  <ROCS_ColorTanimoto>  (115) 
0.336

$$$$
EN300_1718461
     RDKit          3D

 17 17  0  0  0  0  0  0  0  0999 V2000
   32.0295   10.5664    6.9697 C   0  0  0  0  0  0  0  0  0  0  0  0
   32.1029   11.9770    7.5745 C   0  0  0  0  0  0  0  0  0  0  0  0
   33.1472   12.8992    6.9090 C   0  0  0  0  0  0  0  0  0  0  0  0
   32.6513   13.3287    8.2578 C   0  0  0  0  0  0  0  0  0  0  0  0
   33.5092   14.0693    9.2770 C   0  0  0  0  0  0  0  0  0  0  0  0
   34.9607   13.6897    9.1816 C   0  0  0  0  0  0  0  0  0  0  0  0
   35.4974   13.6341    8.1024 O   0  0  0  0  0  0  0  0  0  0  0  0
   35.5332   13.4916   10.4102 N   0  0  0  0  0  0  0  0  0  0  0  0
   36.6612   12.9193   10.9179 C   0  0  0  0  0  0  0  0  0  0  0  0
   36.6574   12.0398   11.9256 N   0  0  0  0  0  0  0  0  0  0  0  0
   37.9181   11.6690   12.2799 N   0  0  0  0  0  0  0  0  0  0  0  0
   38.7878   12.2943   11.5136 C   0  0  0  0  0  0  0  0  0  0  0  0
   40.5208   12.2358   11.5422 S   0  0  0  0  0  6  0  0  0  0  0  0
   41.0358   11.7641   13.0798 N   0  0  0  0  0  0  0  0  0  0  0  0
   40.9165   11.2418   10.5760 O   0  0  0  0  0  0  0  0  0  0  0  0
   40.9575   13.6063   11.4407 O   0  0  0  0  0  0  0  0  0  0  0  0
   38.1661   13.3241   10.3254 S   0  0  0  0  0  0  0  0  0  0  0  0
  1  2  3  0
  2  3  1  0
  3  4  1  0
  4  5  1  0
  5  6  1  0
  6  7  2  0
  6  8  1  0
  8  9  1  0
  9 10  2  0
 10 11  1  0
 11 12  2  0
 12 13  1  0
 13 14  1  0
 13 15  2  0
 13 16  2  0
 12 17  1  0
 17  9  1  0
A    1
 C1 
A    2
 C2 
A    3
 C3 
A    4
 C4 
A    5
 C5 
A    6
 C6 
A    7
 O1 
A    8
 N1 
A    9
 C7 
A   10
 N2 
A   11
 N3 
A   12
 C8 
A   13
 S1 
A   14
 N4 
A   15
 O2 
A   16
 O3 
A   17
 S2 
M  END
>  <ref_pdb>  (116) 
Ax0310a

>  <ref_mols>  (116) 
Ax0446a,Ax1080a,Ax0812a,Ax0719a,Ax1140a,Ax0528a,Ax0310a

>  <original SMILES>  (116) 
C#CCCCC(=O)Nc1nnc(S(N)(=O)=O)s1

>  <rationale>  (116) 
info info set:sulfonimide_whole;hbond:G127+T126+N129; 

>  <experiment>  (116) 
sulfonimide_whole

>  <cluster_label>  (116) 
17

>  <cluster_rank>  (116) 
8

>  <N_interactions>  (116) 
4

>  <∆∆G>  (116) 
-2.103297

>  <comRMSD>  (116) 
0.995377

>  <ROCS_TanimotoCombo>  (116) 
0.34

>  <ROCS_ShapeTanimoto>  (116) 
0.212

>  <ROCS_ColorTanimoto>  (116) 
0.128

$$$$
Z362022872
     RDKit          3D

 17 18  0  0  0  0  0  0  0  0999 V2000
   26.6929   13.1116    5.4329 N   0  0  0  0  0  0  0  0  0  0  0  0
   27.6408   13.4516    6.3245 C   0  0  0  0  0  0  0  0  0  0  0  0
   28.5900   13.8161    7.4193 C   0  0  0  0  0  0  0  0  0  0  0  0
   27.9957   14.4675    8.4630 C   0  0  0  0  0  0  0  0  0  0  0  0
   28.7174   14.8501    9.5706 C   0  0  0  0  0  0  0  0  0  0  0  0
   30.0792   14.6011    9.6558 C   0  0  0  0  0  0  0  0  0  0  0  0
   30.7078   13.9585    8.6112 C   0  0  0  0  0  0  0  0  0  0  0  0
   29.9718   13.5669    7.4963 C   0  0  0  0  0  0  0  0  0  0  0  0
   30.7054   12.9536    6.5371 O   0  0  0  0  0  0  0  0  0  0  0  0
   31.1239   11.6981    6.8422 C   0  0  0  0  0  0  0  0  0  0  0  0
   30.3996   10.8452    7.8309 C   0  0  0  0  0  0  0  0  0  0  0  0
   30.9100    9.4703    8.0591 C   0  0  0  0  0  0  0  0  0  0  0  0
   32.0290    9.0726    7.3492 C   0  0  0  0  0  0  0  0  0  0  0  0
   32.6877    9.9142    6.4568 C   0  0  0  0  0  0  0  0  0  0  0  0
   32.2620   11.2230    6.1933 C   0  0  0  0  0  0  0  0  0  0  0  0
   32.9607   12.0371    5.2929 C   0  0  0  0  0  0  0  0  0  0  0  0
   33.7261   12.9991    6.0213 O   0  0  0  0  0  0  0  0  0  0  0  0
  1  2  3  0
  2  3  1  0
  3  4  2  0
  4  5  1  0
  5  6  2  0
  6  7  1  0
  7  8  2  0
  8  9  1  0
  9 10  1  0
 10 11  2  0
 11 12  1  0
 12 13  2  0
 13 14  1  0
 14 15  2  0
 15 16  1  0
 16 17  1  0
  8  3  1  0
 15 10  1  0
A    1
 N1 
A    2
 C1 
A    3
 C2 
A    4
 C3 
A    5
 C4 
A    6
 C5 
A    7
 C6 
A    8
 C7 
A    9
 O1 
A   10
 C8 
A   11
 C9 
A   12
 C10
A   13
 C11
A   14
 C12
A   15
 C13
A   16
 C14
A   17
 O2 
M  END
>  <ref_pdb>  (117) 
Ax0310a

>  <ref_mols>  (117) 
Ax0446a,Ax1080a,Ax0812a,Ax0719a,Ax1140a,Ax0528a,Ax0310a

>  <original SMILES>  (117) 
N#Cc1ccccc1Oc1ccccc1CO

>  <rationale>  (117) 
info info set:3d;hbond:E88; hydroph_interaction:P107+Y90; 

>  <experiment>  (117) 
3d

>  <cluster_label>  (117) 
8

>  <cluster_rank>  (117) 
8

>  <N_interactions>  (117) 
3

>  <∆∆G>  (117) 
-8.18183

>  <comRMSD>  (117) 
0.523517

>  <ROCS_TanimotoCombo>  (117) 
0.338

>  <ROCS_ShapeTanimoto>  (117) 
0.215

>  <ROCS_ColorTanimoto>  (117) 
0.123

$$$$
EN300_201969
     RDKit          3D

 15 16  0  0  0  0  0  0  0  0999 V2000
   29.8845   11.3705    7.6322 C   0  0  0  0  0  0  0  0  0  0  0  0
   31.0177   10.3949    7.8645 C   0  0  0  0  0  0  0  0  0  0  0  0
   30.5394    9.1728    8.8308 C   0  0  0  0  0  0  0  0  0  0  0  0
   31.7814    9.7166    6.7050 C   0  0  0  0  0  0  0  0  0  0  0  0
   32.8138   10.8014    6.3918 C   0  0  0  0  0  0  0  0  0  0  0  0
   33.7163   10.8603    5.1222 C   0  0  0  0  0  0  0  0  0  0  0  0
   34.5515   11.9631    5.0816 C   0  0  0  0  0  0  0  0  0  0  0  0
   34.4962   12.9445    6.2229 C   0  0  0  0  0  0  0  0  0  0  0  0
   33.6380   12.7716    7.3200 C   0  0  0  0  0  0  0  0  0  0  0  0
   33.5846   13.8462    8.6550 S   0  0  0  0  0  6  0  0  0  0  0  0
   34.7003   15.0203    8.2668 N   0  0  0  0  0  0  0  0  0  0  0  0
   32.2644   14.3813    8.8914 O   0  0  0  0  0  0  0  0  0  0  0  0
   34.2658   13.1187    9.6030 O   0  0  0  0  0  0  0  0  0  0  0  0
   32.8082   11.6813    7.3734 C   0  0  0  0  0  0  0  0  0  0  0  0
   31.9350   11.3377    8.3727 O   0  0  0  0  0  0  0  0  0  0  0  0
  1  2  1  0
  2  3  1  0
  2  4  1  0
  4  5  1  0
  5  6  2  0
  6  7  1  0
  7  8  2  0
  8  9  1  0
  9 10  1  0
 10 11  1  0
 10 12  2  0
 10 13  2  0
  9 14  2  0
 14 15  1  0
 15  2  1  0
 14  5  1  0
A    1
 C1 
A    2
 C2 
A    3
 C3 
A    4
 C4 
A    5
 C5 
A    6
 C6 
A    7
 C7 
A    8
 C8 
A    9
 C9 
A   10
 S1 
A   11
 N1 
A   12
 O1 
A   13
 O2 
A   14
 C10
A   15
 O3 
M  END
>  <ref_pdb>  (118) 
Ax0310a

>  <ref_mols>  (118) 
Ax0446a,Ax1080a,Ax0812a,Ax0719a,Ax1140a,Ax0528a,Ax0310a

>  <original SMILES>  (118) 
CC1(C)Cc2cccc(S(N)(=O)=O)c2O1

>  <rationale>  (118) 
info info set:sulfonimide_whole;hbond:S87+G127+A86; hydroph_interaction:P107+V124; 

>  <experiment>  (118) 
sulfonimide_whole

>  <cluster_label>  (118) 
5

>  <cluster_rank>  (118) 
8

>  <N_interactions>  (118) 
5

>  <∆∆G>  (118) 
-5.400928

>  <comRMSD>  (118) 
0.783896

>  <ROCS_TanimotoCombo>  (118) 
0.345

>  <ROCS_ShapeTanimoto>  (118) 
0.203

>  <ROCS_ColorTanimoto>  (118) 
0.143

$$$$
Z1645594352
     RDKit          3D

 19 20  0  0  0  0  0  0  0  0999 V2000
   30.3871   15.2899    9.6839 C   0  0  0  0  0  0  0  0  0  0  0  0
   29.3619   15.1217    8.5468 C   0  0  0  0  0  0  0  0  0  0  0  0
   28.7767   16.1066    7.7485 N   0  0  0  0  0  0  0  0  0  0  0  0
   27.9604   15.3121    6.9395 O   0  0  0  0  0  0  0  0  0  0  0  0
   28.0108   13.9991    7.1690 C   0  0  0  0  0  0  0  0  0  0  0  0
   27.1135   13.1441    6.2816 C   0  0  0  0  0  0  0  0  0  0  0  0
   28.8671   13.8045    8.1571 C   0  0  0  0  0  0  0  0  0  0  0  0
   29.3020   12.6908    8.8123 C   0  0  0  0  0  0  0  0  0  0  0  0
   30.1637   11.7016    8.0600 C   0  0  0  0  0  0  0  0  0  0  0  0
   30.4586   10.6730    8.6502 O   0  0  0  0  0  0  0  0  0  0  0  0
   30.5808   11.9843    6.8486 N   0  0  0  0  0  0  0  0  0  0  0  0
   31.6075   11.2640    6.4411 C   0  0  0  0  0  0  0  0  0  0  0  0
   32.6111   11.8971    5.4546 C   0  0  0  0  0  0  0  0  0  0  0  0
   33.7827   11.0537    4.9565 C   0  0  0  0  0  0  0  0  0  0  0  0
   33.8027    9.6418    5.5225 C   0  0  0  0  0  0  0  0  0  0  0  0
   34.8429    8.7691    5.1205 O   0  0  0  0  0  0  0  0  0  0  0  0
   32.7474    9.1568    6.5006 C   0  0  0  0  0  0  0  0  0  0  0  0
   31.7183    9.9500    6.9254 C   0  0  0  0  0  0  0  0  0  0  0  0
   30.8410    9.4260    7.7950 F   0  0  0  0  0  0  0  0  0  0  0  0
  1  2  1  0
  2  3  2  0
  3  4  1  0
  4  5  1  0
  5  6  1  0
  5  7  2  0
  7  8  1  0
  8  9  1  0
  9 10  2  0
  9 11  1  0
 11 12  1  0
 12 13  2  0
 13 14  1  0
 14 15  2  0
 15 16  1  0
 15 17  1  0
 17 18  2  0
 18 19  1  0
  7  2  1  0
 18 12  1  0
A    1
 C1 
A    2
 C2 
A    3
 N1 
A    4
 O1 
A    5
 C3 
A    6
 C4 
A    7
 C5 
A    8
 C6 
A    9
 C7 
A   10
 O2 
A   11
 N2 
A   12
 C8 
A   13
 C9 
A   14
 C10
A   15
 C11
A   16
 O3 
A   17
 C12
A   18
 C13
A   19
 F1 
M  END
>  <ref_pdb>  (119) 
Ax0310a

>  <ref_mols>  (119) 
Ax0446a,Ax1080a,Ax0812a,Ax0719a,Ax1140a,Ax0528a,Ax0310a

>  <original SMILES>  (119) 
Cc1noc(C)c1CC(=O)Nc1ccc(O)cc1F

>  <rationale>  (119) 
info info set:screening_pocket;halogenbond:C110; hbond:S105+Y90; hydroph_interaction:P107+Y89+Y90; 

>  <experiment>  (119) 
screening_pocket

>  <cluster_label>  (119) 
2

>  <cluster_rank>  (119) 
8

>  <N_interactions>  (119) 
7

>  <∆∆G>  (119) 
-0.298212

>  <comRMSD>  (119) 
0.965398

>  <ROCS_TanimotoCombo>  (119) 
0.623

>  <ROCS_ShapeTanimoto>  (119) 
0.236

>  <ROCS_ColorTanimoto>  (119) 
0.387

$$$$
EN300_787748
     RDKit          3D

 22 24  0  0  0  0  0  0  0  0999 V2000
   34.6176   14.9915    4.9564 C   0  0  0  0  0  0  0  0  0  0  0  0
   34.8737   13.5609    5.2743 C   0  0  0  0  0  0  0  0  0  0  0  0
   35.0671   12.7372    4.0116 C   0  0  0  0  0  0  0  0  0  0  0  0
   36.1333   13.4961    6.1412 C   0  0  0  0  0  0  0  0  0  0  0  0
   33.8195   13.0387    6.0895 O   0  0  0  0  0  0  0  0  0  0  0  0
   33.8488   11.7208    6.2385 C   0  0  0  0  0  0  0  0  0  0  0  0
   34.5365   10.9885    5.5364 O   0  0  0  0  0  0  0  0  0  0  0  0
   33.0547   11.2645    7.2392 N   0  0  0  0  0  0  0  0  0  0  0  0
   32.6878   10.0299    6.9202 C   0  0  1  0  0  0  0  0  0  0  0  0
   31.5146    9.3949    7.6684 C   0  0  0  0  0  0  0  0  0  0  0  0
   30.9469   10.7185    8.0600 C   0  0  0  0  0  0  0  0  0  0  0  0
   31.7322   11.7991    7.5919 C   0  0  1  0  0  0  0  0  0  0  0  0
   31.5476   13.1120    8.3517 C   0  0  0  0  0  0  0  0  0  0  0  0
   32.5318   13.7037    9.0887 N   0  0  0  0  0  0  0  0  0  0  0  0
   32.1065   14.8226    9.6584 N   0  0  0  0  0  0  0  0  0  0  0  0
   30.8469   15.0034    9.3130 N   0  0  0  0  0  0  0  0  0  0  0  0
   30.4714   13.9715    8.4936 C   0  0  0  0  0  0  0  0  0  0  0  0
   29.1381   13.8938    7.9099 C   0  0  0  0  0  0  0  0  0  0  0  0
   28.4611   12.8924    7.7280 O   0  0  0  0  0  0  0  0  0  0  0  0
   28.6573   15.1098    7.5273 O   0  0  0  0  0  0  0  0  0  0  0  0
   31.3580   11.9069    6.1691 C   0  0  0  0  0  0  0  0  0  0  0  0
   32.0483   10.5949    5.7400 C   0  0  0  0  0  0  0  0  0  0  0  0
  1  2  1  0
  2  3  1  0
  2  4  1  0
  2  5  1  0
  5  6  1  0
  6  7  2  0
  6  8  1  0
  8  9  1  0
  9 10  1  1
 10 11  1  0
 11 12  1  0
 12 13  1  1
 13 14  1  0
 14 15  1  0
 15 16  2  0
 16 17  1  0
 17 18  1  0
 18 19  2  0
 18 20  1  0
 12 21  1  0
 21 22  1  0
 12  8  1  0
 17 13  2  0
 22  9  1  0
A    1
 C1 
A    2
 C2 
A    3
 C3 
A    4
 C4 
A    5
 O1 
A    6
 C5 
A    7
 O2 
A    8
 N1 
A    9
 C6 
A   10
 C7 
A   11
 C8 
A   12
 C9 
A   13
 C10
A   14
 N2 
A   15
 N3 
A   16
 N4 
A   17
 C11
A   18
 C12
A   19
 O3 
A   20
 O4 
A   21
 C13
A   22
 C14
M  END
>  <ref_pdb>  (120) 
Ax0310a

>  <ref_mols>  (120) 
Ax0446a,Ax1080a,Ax0812a,Ax0719a,Ax1140a,Ax0528a,Ax0310a

>  <original SMILES>  (120) 
CC(C)(C)OC(=O)N1[C@H]2CC[C@]1(c1[nH]nnc1C(=O)O)CC2

>  <rationale>  (120) 
info info set:bb_whole;hbond:S87+S125+G127; hydroph_interaction:P107; saltbridge:H21; 

>  <experiment>  (120) 
bb_whole

>  <cluster_label>  (120) 
9

>  <cluster_rank>  (120) 
8

>  <N_interactions>  (120) 
5

>  <∆∆G>  (120) 
-0.710274

>  <comRMSD>  (120) 
0.59466

>  <ROCS_TanimotoCombo>  (120) 
0.448

>  <ROCS_ShapeTanimoto>  (120) 
0.258

>  <ROCS_ColorTanimoto>  (120) 
0.19

$$$$
EN300_37397014
     RDKit          3D

 17 17  0  0  0  0  0  0  0  0999 V2000
   29.5654    8.0020    8.5216 C   0  0  0  0  0  0  0  0  0  0  0  0
   30.3805    9.1844    8.9333 C   0  0  0  0  0  0  0  0  0  0  0  0
   31.2973    9.6801    7.8233 C   0  0  0  0  0  0  0  0  0  0  0  0
   32.1010    8.7235    7.1587 N   0  0  0  0  0  0  0  0  0  0  0  0
   32.9239    9.2315    6.2027 C   0  0  0  0  0  0  0  0  0  0  0  0
   33.1133   10.7408    5.7194 C   0  0  0  0  0  0  0  0  0  0  0  0
   33.9922   11.1061    4.7433 F   0  0  0  0  0  0  0  0  0  0  0  0
   32.2289   11.4904    6.4884 C   0  0  0  0  0  0  0  0  0  0  0  0
   31.3676   11.0013    7.4816 C   0  0  0  0  0  0  0  0  0  0  0  0
   30.5391   11.8793    8.1669 N   0  0  0  0  0  0  0  0  0  0  0  0
   30.3021   13.1120    7.7696 C   0  0  0  0  0  0  0  0  0  0  0  0
   30.5214   13.5497    6.6663 O   0  0  0  0  0  0  0  0  0  0  0  0
   29.7825   13.7810    8.7973 O   0  0  0  0  0  0  0  0  0  0  0  0
   28.5430   14.3546    8.4724 C   0  0  0  0  0  0  0  0  0  0  0  0
   28.6837   15.8667    8.3465 C   0  0  0  0  0  0  0  0  0  0  0  0
   27.7370   14.0857    9.7287 C   0  0  0  0  0  0  0  0  0  0  0  0
   27.9064   13.7145    7.2275 C   0  0  0  0  0  0  0  0  0  0  0  0
  1  2  3  0
  2  3  1  0
  3  4  2  0
  4  5  1  0
  5  6  2  0
  6  7  1  0
  6  8  1  0
  8  9  2  0
  9 10  1  0
 10 11  1  0
 11 12  2  0
 11 13  1  0
 13 14  1  0
 14 15  1  0
 14 16  1  0
 14 17  1  0
  9  3  1  0
A    1
 C1 
A    2
 C2 
A    3
 C3 
A    4
 N1 
A    5
 C4 
A    6
 C5 
A    7
 F1 
A    8
 C6 
A    9
 C7 
A   10
 N2 
A   11
 C8 
A   12
 O1 
A   13
 O2 
A   14
 C9 
A   15
 C10
A   16
 C11
A   17
 C12
M  END
>  <ref_pdb>  (121) 
Ax0310a

>  <ref_mols>  (121) 
Ax0446a,Ax1080a,Ax0812a,Ax0719a,Ax1140a,Ax0528a,Ax0310a

>  <original SMILES>  (121) 
C#Cc1ncc(F)cc1NC(=O)OC(C)(C)C

>  <rationale>  (121) 
info info set:bb_densepocket2;hbond:S87+S125+G127; hydroph_interaction:P107+Y89+Y90+V124+D109; 

>  <experiment>  (121) 
bb_densepocket2

>  <cluster_label>  (121) 
3

>  <cluster_rank>  (121) 
8

>  <N_interactions>  (121) 
9

>  <∆∆G>  (121) 
-8.26319

>  <comRMSD>  (121) 
0.538209

>  <ROCS_TanimotoCombo>  (121) 
0.609

>  <ROCS_ShapeTanimoto>  (121) 
0.25

>  <ROCS_ColorTanimoto>  (121) 
0.359

$$$$
Z3368128972
     RDKit          3D

 18 20  0  0  0  0  0  0  0  0999 V2000
   28.8018   14.3564    5.0484 C   0  0  0  0  0  0  0  0  0  0  0  0
   28.6293   14.4932    6.5348 C   0  0  0  0  0  0  0  0  0  0  0  0
   28.5769   15.7734    7.1586 O   0  0  0  0  0  0  0  0  0  0  0  0
   28.6391   13.1893    7.1764 C   0  0  0  0  0  0  0  0  0  0  0  0
   28.9666   13.0921    8.6025 C   0  0  0  0  0  0  0  0  0  0  0  0
   30.1401   12.3265    8.0595 N   0  0  0  0  0  0  0  0  0  0  0  0
   30.4906   11.0399    8.3078 C   0  0  0  0  0  0  0  0  0  0  0  0
   30.0476   10.2930    9.1204 O   0  0  0  0  0  0  0  0  0  0  0  0
   31.5688   10.5246    7.3817 C   0  0  0  0  0  0  0  0  0  0  0  0
   31.8105    9.0848    7.2775 C   0  0  0  0  0  0  0  0  0  0  0  0
   32.7097    8.5246    6.5150 N   0  0  0  0  0  0  0  0  0  0  0  0
   33.4525    9.3235    5.7836 C   0  0  0  0  0  0  0  0  0  0  0  0
   34.4083    8.8339    4.9600 N   0  0  0  0  0  0  0  0  0  0  0  0
   35.0419    9.8559    4.3166 C   0  0  0  0  0  0  0  0  0  0  0  0
   34.3912   11.1593    4.8023 C   0  0  0  0  0  0  0  0  0  0  0  0
   33.4168   10.6936    5.7119 C   0  0  0  0  0  0  0  0  0  0  0  0
   32.4876   11.3937    6.4909 C   0  0  0  0  0  0  0  0  0  0  0  0
   29.9573   12.6651    6.6535 C   0  0  0  0  0  0  0  0  0  0  0  0
  1  2  1  0
  2  3  2  0
  2  4  1  0
  4  5  1  0
  5  6  1  0
  6  7  1  0
  7  8  2  0
  7  9  1  0
  9 10  2  0
 10 11  1  0
 11 12  2  0
 12 13  1  0
 13 14  1  0
 14 15  2  0
 15 16  1  0
 16 17  2  0
  6 18  1  0
 18  4  1  0
 17  9  1  0
 16 12  1  0
A    1
 C1 
A    2
 C2 
A    3
 O1 
A    4
 C3 
A    5
 C4 
A    6
 N1 
A    7
 C5 
A    8
 O2 
A    9
 C6 
A   10
 C7 
A   11
 N2 
A   12
 C8 
A   13
 N3 
A   14
 C9 
A   15
 C10
A   16
 C11
A   17
 C12
A   18
 C13
M  END
>  <ref_pdb>  (122) 
Ax0310a

>  <ref_mols>  (122) 
Ax0446a,Ax1080a,Ax0812a,Ax0719a,Ax1140a,Ax0528a,Ax0310a

>  <original SMILES>  (122) 
CC(=O)C1CN(C(=O)c2cnc3[nH]ccc3c2)C1

>  <rationale>  (122) 
info info set:screening_pocket;hydroph_interaction:E88; 

>  <experiment>  (122) 
screening_pocket

>  <cluster_label>  (122) 
12

>  <cluster_rank>  (122) 
8

>  <N_interactions>  (122) 
1

>  <∆∆G>  (122) 
-2.74589

>  <comRMSD>  (122) 
0.597664

>  <ROCS_TanimotoCombo>  (122) 
0.697

>  <ROCS_ShapeTanimoto>  (122) 
0.266

>  <ROCS_ColorTanimoto>  (122) 
0.43

$$$$
Z3391545488
     RDKit          3D

 20 21  0  0  0  0  0  0  0  0999 V2000
   29.7136    8.3341    8.4280 C   0  0  0  0  0  0  0  0  0  0  0  0
   31.0295    8.9355    8.6642 C   0  0  0  0  0  0  0  0  0  0  0  0
   31.8321    9.5614    7.5057 C   0  0  0  0  0  0  0  0  0  0  0  0
   32.5111    8.7981    6.6345 N   0  0  0  0  0  0  0  0  0  0  0  0
   33.0991    9.6044    5.8656 N   0  0  0  0  0  0  0  0  0  0  0  0
   34.0018    9.1534    4.8247 C   0  0  0  0  0  0  0  0  0  0  0  0
   32.8478   10.8949    6.1113 C   0  0  0  0  0  0  0  0  0  0  0  0
   33.3833   11.8547    5.3614 O   0  0  0  0  0  0  0  0  0  0  0  0
   34.3126   12.6958    6.0343 C   0  0  0  0  0  0  0  0  0  0  0  0
   32.0314   10.9387    7.2084 C   0  0  0  0  0  0  0  0  0  0  0  0
   31.5362   12.2111    7.9022 C   0  0  0  0  0  0  0  0  0  0  0  0
   30.2833   12.1148    8.6579 N   0  0  0  0  0  0  0  0  0  0  0  0
   29.5490   13.2381    8.2866 C   0  0  0  0  0  0  0  0  0  0  0  0
   29.6334   13.4356    6.8032 C   0  0  0  0  0  0  0  0  0  0  0  0
   30.3158   12.6577    5.9724 F   0  0  0  0  0  0  0  0  0  0  0  0
   28.8603   14.6178    6.3868 C   0  0  0  0  0  0  0  0  0  0  0  0
   28.1983   15.4058    7.2002 N   0  0  0  0  0  0  0  0  0  0  0  0
   28.1407   15.2203    8.5109 C   0  0  0  0  0  0  0  0  0  0  0  0
   28.7971   14.1662    9.0698 C   0  0  0  0  0  0  0  0  0  0  0  0
   28.5392   14.2236   10.7587 Cl  0  0  0  0  0  0  0  0  0  0  0  0
  1  2  1  0
  2  3  1  0
  3  4  2  0
  4  5  1  0
  5  6  1  0
  5  7  1  0
  7  8  1  0
  8  9  1  0
  7 10  2  0
 10 11  1  0
 11 12  1  0
 12 13  1  0
 13 14  2  0
 14 15  1  0
 14 16  1  0
 16 17  2  0
 17 18  1  0
 18 19  2  0
 19 20  1  0
 10  3  1  0
 19 13  1  0
A    1
 C1 
A    2
 C2 
A    3
 C3 
A    4
 N1 
A    5
 N2 
A    6
 C4 
A    7
 C5 
A    8
 O1 
A    9
 C6 
A   10
 C7 
A   11
 C8 
A   12
 N3 
A   13
 C9 
A   14
 C10
A   15
 F1 
A   16
 C11
A   17
 N4 
A   18
 C12
A   19
 C13
A   20
CL1 
M  END
>  <ref_pdb>  (123) 
Ax0310a

>  <ref_mols>  (123) 
Ax0446a,Ax1080a,Ax0812a,Ax0719a,Ax1140a,Ax0528a,Ax0310a

>  <original SMILES>  (123) 
CCc1nn(C)c(OC)c1CNc1c(F)cncc1Cl

>  <rationale>  (123) 
info info set:screening_pocket;halogenbond:S125+D39; hbond:S87+S125; hydroph_interaction:V124; pistack:H21; 

>  <experiment>  (123) 
screening_pocket

>  <cluster_label>  (123) 
18

>  <cluster_rank>  (123) 
9

>  <N_interactions>  (123) 
6

>  <∆∆G>  (123) 
-1.93981

>  <comRMSD>  (123) 
0.63196

>  <ROCS_TanimotoCombo>  (123) 
0.632

>  <ROCS_ShapeTanimoto>  (123) 
0.252

>  <ROCS_ColorTanimoto>  (123) 
0.38

$$$$
EN300_33048082
     RDKit          3D

 14 14  0  0  0  0  0  0  0  0999 V2000
   30.5344    8.6598    9.0581 C   0  0  0  0  0  0  0  0  0  0  0  0
   31.0299    8.4187    7.8160 N   0  0  0  0  0  0  0  0  0  0  0  0
   31.7820    9.3669    7.0887 C   0  0  0  0  0  0  0  0  0  0  0  0
   32.7615    8.8428    6.3279 N   0  0  0  0  0  0  0  0  0  0  0  0
   33.4997    9.6786    5.5912 C   0  0  0  0  0  0  0  0  0  0  0  0
   34.7048    8.9331    4.6282 Cl  0  0  0  0  0  0  0  0  0  0  0  0
   33.2474   11.1548    5.6353 C   0  0  0  0  0  0  0  0  0  0  0  0
   34.1395   12.3099    4.7413 Cl  0  0  0  0  0  0  0  0  0  0  0  0
   32.2743   11.6607    6.3986 N   0  0  0  0  0  0  0  0  0  0  0  0
   31.5785   10.7764    7.0825 C   0  0  0  0  0  0  0  0  0  0  0  0
   30.4363   11.3723    7.9400 C   0  0  0  0  0  0  0  0  0  0  0  0
   30.0216   10.7777    8.8682 O   0  0  0  0  0  0  0  0  0  0  0  0
   30.0154   12.5781    7.4704 O   0  0  0  0  0  0  0  0  0  0  0  0
   28.7358   13.0045    7.9492 C   0  0  0  0  0  0  0  0  0  0  0  0
  1  2  1  0
  2  3  1  0
  3  4  2  0
  4  5  1  0
  5  6  1  0
  5  7  2  0
  7  8  1  0
  7  9  1  0
  9 10  2  0
 10 11  1  0
 11 12  2  0
 11 13  1  0
 13 14  1  0
 10  3  1  0
A    1
 C1 
A    2
 N1 
A    3
 C2 
A    4
 N2 
A    5
 C3 
A    6
CL1 
A    7
 C4 
A    8
CL2 
A    9
 N3 
A   10
 C5 
A   11
 C6 
A   12
 O1 
A   13
 O2 
A   14
 C7 
M  END
>  <ref_pdb>  (124) 
Ax0310a

>  <ref_mols>  (124) 
Ax0446a,Ax1080a,Ax0812a,Ax0719a,Ax1140a,Ax0528a,Ax0310a

>  <original SMILES>  (124) 
CNc1nc(Cl)c(Cl)nc1C(=O)OC

>  <rationale>  (124) 
info info set:bb_densepocket2;hbond:G127+E106; 

>  <experiment>  (124) 
bb_densepocket2

>  <cluster_label>  (124) 
6

>  <cluster_rank>  (124) 
9

>  <N_interactions>  (124) 
2

>  <∆∆G>  (124) 
-3.633743

>  <comRMSD>  (124) 
0.63382

>  <ROCS_TanimotoCombo>  (124) 
0.629

>  <ROCS_ShapeTanimoto>  (124) 
0.256

>  <ROCS_ColorTanimoto>  (124) 
0.373

$$$$
EN300_211989
     RDKit          3D

 15 15  0  0  0  0  0  0  0  0999 V2000
   30.2961   13.5781    8.0795 C   0  0  0  0  0  0  0  0  0  0  0  0
   30.9817   12.3421    7.8179 N   0  0  0  0  0  0  0  0  0  0  0  0
   30.3902   11.1875    8.1376 C   0  0  0  0  0  0  0  0  0  0  0  0
   31.3480   10.1122    7.7636 C   0  0  0  0  0  0  0  0  0  0  0  0
   31.0803    8.4959    8.0003 S   0  0  0  0  0  6  0  0  0  0  0  0
   31.1755    7.9285    9.5281 N   0  0  0  0  0  0  0  0  0  0  0  0
   32.1401    7.9514    7.2176 O   0  0  0  0  0  0  0  0  0  0  0  0
   29.6255    8.4093    7.8664 O   0  0  0  0  0  0  0  0  0  0  0  0
   32.5558   10.7973    7.1572 C   0  0  0  0  0  0  0  0  0  0  0  0
   32.2494   12.1358    7.2633 C   0  0  0  0  0  0  0  0  0  0  0  0
   33.2985   13.1212    6.8106 C   0  0  0  0  0  0  0  0  0  0  0  0
   33.7607   13.3013    5.6875 O   0  0  0  0  0  0  0  0  0  0  0  0
   33.7814   13.9367    7.9962 C   0  0  0  0  0  0  0  0  0  0  0  0
   35.0832   14.3482    7.9232 N   0  0  0  0  0  0  0  0  0  0  0  0
   33.0412   14.1978    8.9319 O   0  0  0  0  0  0  0  0  0  0  0  0
  1  2  1  0
  2  3  1  0
  3  4  2  0
  4  5  1  0
  5  6  1  0
  5  7  2  0
  5  8  2  0
  4  9  1  0
  9 10  2  0
 10 11  1  0
 11 12  2  0
 11 13  1  0
 13 14  1  0
 13 15  2  0
 10  2  1  0
A    1
 C1 
A    2
 N1 
A    3
 C2 
A    4
 C3 
A    5
 S1 
A    6
 N2 
A    7
 O1 
A    8
 O2 
A    9
 C4 
A   10
 C5 
A   11
 C6 
A   12
 O3 
A   13
 C7 
A   14
 N3 
A   15
 O4 
M  END
>  <ref_pdb>  (125) 
Ax0310a

>  <ref_mols>  (125) 
Ax0446a,Ax1080a,Ax0812a,Ax0719a,Ax1140a,Ax0528a,Ax0310a

>  <original SMILES>  (125) 
Cn1cc(S(N)(=O)=O)cc1C(=O)C(N)=O

>  <rationale>  (125) 
info info set:sulfonimide_whole;hbond:S87+S105+C110+T126+E85; 

>  <experiment>  (125) 
sulfonimide_whole

>  <cluster_label>  (125) 
16

>  <cluster_rank>  (125) 
9

>  <N_interactions>  (125) 
5

>  <∆∆G>  (125) 
-2.235549

>  <comRMSD>  (125) 
0.967944

>  <ROCS_TanimotoCombo>  (125) 
0.314

>  <ROCS_ShapeTanimoto>  (125) 
0.171

>  <ROCS_ColorTanimoto>  (125) 
0.144

$$$$
Z818827752
     RDKit          3D

 18 19  0  0  0  0  0  0  0  0999 V2000
   30.1672   14.7263    9.4534 C   0  0  0  0  0  0  0  0  0  0  0  0
   28.9056   14.1415    8.8917 C   0  0  0  0  0  0  0  0  0  0  0  0
   27.9484   13.7468    9.9890 C   0  0  0  0  0  0  0  0  0  0  0  0
   28.1522   15.1533    8.1316 C   0  0  0  0  0  0  0  0  0  0  0  0
   28.7169   15.4896    7.1159 O   0  0  0  0  0  0  0  0  0  0  0  0
   28.7212   14.4692    6.2231 C   0  0  0  0  0  0  0  0  0  0  0  0
   29.5256   13.4354    6.6631 C   0  0  0  0  0  0  0  0  0  0  0  0
   29.2199   13.0282    7.9779 N   0  0  0  0  0  0  0  0  0  0  0  0
   30.2858   12.2041    8.4905 C   0  0  0  0  0  0  0  0  0  0  0  0
   31.1550   11.5040    7.7058 C   0  0  0  0  0  0  0  0  0  0  0  0
   32.2435   12.1710    6.8660 C   0  0  0  0  0  0  0  0  0  0  0  0
   33.1828   11.3019    6.0235 C   0  0  0  0  0  0  0  0  0  0  0  0
   32.9328    9.8643    6.1139 C   0  0  0  0  0  0  0  0  0  0  0  0
   33.7583    9.0369    5.3584 C   0  0  0  0  0  0  0  0  0  0  0  0
   34.4479    8.3862    4.6983 N   0  0  0  0  0  0  0  0  0  0  0  0
   31.9196    9.3409    6.9148 C   0  0  0  0  0  0  0  0  0  0  0  0
   31.0473   10.1226    7.6937 C   0  0  0  0  0  0  0  0  0  0  0  0
   30.1104    9.5183    8.4245 F   0  0  0  0  0  0  0  0  0  0  0  0
  1  2  1  0
  2  3  1  0
  2  4  1  0
  4  5  1  0
  5  6  1  0
  6  7  1  0
  7  8  1  0
  8  9  1  0
  9 10  1  0
 10 11  2  0
 11 12  1  0
 12 13  2  0
 13 14  1  0
 14 15  3  0
 13 16  1  0
 16 17  2  0
 17 18  1  0
  8  2  1  0
 17 10  1  0
A    1
 C1 
A    2
 C2 
A    3
 C3 
A    4
 C4 
A    5
 O1 
A    6
 C5 
A    7
 C6 
A    8
 N1 
A    9
 C7 
A   10
 C8 
A   11
 C9 
A   12
 C10
A   13
 C11
A   14
 C12
A   15
 N2 
A   16
 C13
A   17
 C14
A   18
 F1 
M  END
>  <ref_pdb>  (126) 
Ax0310a

>  <ref_mols>  (126) 
Ax0446a,Ax1080a,Ax0812a,Ax0719a,Ax1140a,Ax0528a,Ax0310a

>  <original SMILES>  (126) 
CC1(C)COCCN1Cc1ccc(C#N)cc1F

>  <rationale>  (126) 
info info set:3d;halogenbond:C110; hydroph_interaction:Y90; 

>  <experiment>  (126) 
3d

>  <cluster_label>  (126) 
2

>  <cluster_rank>  (126) 
9

>  <N_interactions>  (126) 
2

>  <∆∆G>  (126) 
-4.934111

>  <comRMSD>  (126) 
0.897403

>  <ROCS_TanimotoCombo>  (126) 
0.286

>  <ROCS_ShapeTanimoto>  (126) 
0.195

>  <ROCS_ColorTanimoto>  (126) 
0.091

$$$$
Z1375742387
     RDKit          3D

 19 20  0  0  0  0  0  0  0  0999 V2000
   30.7384    8.0963    9.0202 C   0  0  0  0  0  0  0  0  0  0  0  0
   30.6626    9.0409    7.9868 N   0  0  0  0  0  0  0  0  0  0  0  0
   31.7018    9.3947    7.1529 C   0  0  0  0  0  0  0  0  0  0  0  0
   32.6283    8.5821    6.6621 N   0  0  0  0  0  0  0  0  0  0  0  0
   33.5631    9.1198    5.8262 C   0  0  0  0  0  0  0  0  0  0  0  0
   33.6567   10.5843    5.4031 C   0  0  0  0  0  0  0  0  0  0  0  0
   32.6446   11.3037    5.9952 C   0  0  0  0  0  0  0  0  0  0  0  0
   31.7311   10.6906    6.8255 C   0  0  0  0  0  0  0  0  0  0  0  0
   30.6551   11.4990    7.4432 C   0  0  0  0  0  0  0  0  0  0  0  0
   30.5689   11.4311    8.6361 O   0  0  0  0  0  0  0  0  0  0  0  0
   29.8668   12.2046    6.6182 N   0  0  0  0  0  0  0  0  0  0  0  0
   29.1940   13.1557    7.2741 C   0  0  0  0  0  0  0  0  0  0  0  0
   28.7930   12.8589    8.6502 C   0  0  0  0  0  0  0  0  0  0  0  0
   28.0899   13.8914    9.4289 C   0  0  0  0  0  0  0  0  0  0  0  0
   27.9239   15.1218    8.5976 C   0  0  0  0  0  0  0  0  0  0  0  0
   27.3002   16.0502    9.3332 C   0  0  0  0  0  0  0  0  0  0  0  0
   28.3189   15.3157    7.3141 N   0  0  0  0  0  0  0  0  0  0  0  0
   28.9372   14.2968    6.6820 C   0  0  0  0  0  0  0  0  0  0  0  0
   29.3778   14.3574    5.2533 C   0  0  0  0  0  0  0  0  0  0  0  0
  1  2  1  0
  2  3  1  0
  3  4  2  0
  4  5  1  0
  5  6  2  0
  6  7  1  0
  7  8  2  0
  8  9  1  0
  9 10  2  0
  9 11  1  0
 11 12  1  0
 12 13  2  0
 13 14  1  0
 14 15  2  0
 15 16  1  0
 15 17  1  0
 17 18  2  0
 18 19  1  0
  8  3  1  0
 18 12  1  0
A    1
 C1 
A    2
 N1 
A    3
 C2 
A    4
 N2 
A    5
 C3 
A    6
 C4 
A    7
 C5 
A    8
 C6 
A    9
 C7 
A   10
 O1 
A   11
 N3 
A   12
 C8 
A   13
 C9 
A   14
 C10
A   15
 C11
A   16
 C12
A   17
 N4 
A   18
 C13
A   19
 C14
M  END
>  <ref_pdb>  (127) 
Ax0310a

>  <ref_mols>  (127) 
Ax0446a,Ax1080a,Ax0812a,Ax0719a,Ax1140a,Ax0528a,Ax0310a

>  <original SMILES>  (127) 
CNc1ncccc1C(=O)Nc1ccc(C)nc1C

>  <rationale>  (127) 
info info set:screening_pocket;hbond:S87; hydroph_interaction:P107+Y89+Y90+E88+H21; 

>  <experiment>  (127) 
screening_pocket

>  <cluster_label>  (127) 
12

>  <cluster_rank>  (127) 
9

>  <N_interactions>  (127) 
6

>  <∆∆G>  (127) 
-5.226189

>  <comRMSD>  (127) 
0.695028

>  <ROCS_TanimotoCombo>  (127) 
0.633

>  <ROCS_ShapeTanimoto>  (127) 
0.243

>  <ROCS_ColorTanimoto>  (127) 
0.39

$$$$
EN300_277879
     RDKit          3D

 17 17  0  0  0  0  0  0  0  0999 V2000
   33.1198   14.5247    9.4930 C   0  0  0  0  0  0  0  0  0  0  0  0
   33.5732   13.3889    8.6146 C   0  0  0  0  0  0  0  0  0  0  0  0
   32.3744   12.5989    8.0481 C   0  0  0  0  0  0  0  0  0  0  0  0
   34.3606   13.9238    7.4160 C   0  0  0  0  0  0  0  0  0  0  0  0
   34.5558   12.6234    9.3423 O   0  0  0  0  0  0  0  0  0  0  0  0
   35.7498   13.2112    9.7356 C   0  0  0  0  0  0  0  0  0  0  0  0
   36.1121   14.3391    9.4814 O   0  0  0  0  0  0  0  0  0  0  0  0
   36.7309   12.3574   10.5633 C   0  0  0  0  0  0  0  0  0  0  0  0
   36.4066   11.2614   11.3390 C   0  0  0  0  0  0  0  0  0  0  0  0
   37.3807   10.4876   12.1215 C   0  0  0  0  0  0  0  0  0  0  0  0
   38.7212   10.8110   12.1207 C   0  0  0  0  0  0  0  0  0  0  0  0
   39.0039   11.9164   11.3026 C   0  0  0  0  0  0  0  0  0  0  0  0
   40.6991   12.3617   11.2251 S   0  0  0  0  0  6  0  0  0  0  0  0
   41.2937   11.5014   12.5289 N   0  0  0  0  0  0  0  0  0  0  0  0
   40.8264   13.7747   11.5050 O   0  0  0  0  0  0  0  0  0  0  0  0
   41.2561   11.7466   10.0378 O   0  0  0  0  0  0  0  0  0  0  0  0
   38.0739   12.6675   10.5580 C   0  0  0  0  0  0  0  0  0  0  0  0
  1  2  1  0
  2  3  1  0
  2  4  1  0
  2  5  1  0
  5  6  1  0
  6  7  2  0
  6  8  1  0
  8  9  2  0
  9 10  1  0
 10 11  2  0
 11 12  1  0
 12 13  1  0
 13 14  1  0
 13 15  2  0
 13 16  2  0
 12 17  2  0
 17  8  1  0
A    1
 C1 
A    2
 C2 
A    3
 C3 
A    4
 C4 
A    5
 O1 
A    6
 C5 
A    7
 O2 
A    8
 C6 
A    9
 C7 
A   10
 C8 
A   11
 C9 
A   12
 C10
A   13
 S1 
A   14
 N1 
A   15
 O3 
A   16
 O4 
A   17
 C11
M  END
>  <ref_pdb>  (128) 
Ax0310a

>  <ref_mols>  (128) 
Ax0446a,Ax1080a,Ax0812a,Ax0719a,Ax1140a,Ax0528a,Ax0310a

>  <original SMILES>  (128) 
CC(C)(C)OC(=O)c1cccc(S(N)(=O)=O)c1

>  <rationale>  (128) 
info info set:sulfonimide_joint;hbond:E85+N129; hydroph_interaction:T126+L100+L131; 

>  <experiment>  (128) 
sulfonimide_joint

>  <cluster_label>  (128) 
17

>  <cluster_rank>  (128) 
9

>  <N_interactions>  (128) 
5

>  <∆∆G>  (128) 
-6.237773

>  <comRMSD>  (128) 
0.796108

>  <ROCS_TanimotoCombo>  (128) 
0.294

>  <ROCS_ShapeTanimoto>  (128) 
0.183

>  <ROCS_ColorTanimoto>  (128) 
0.111

$$$$
EN300_5134640
     RDKit          3D

 14 15  0  0  0  0  0  0  0  0999 V2000
   34.5767   14.7640    7.9886 N   0  0  0  0  0  0  0  0  0  0  0  0
   33.3373   13.6273    7.8707 S   0  0  0  0  0  6  0  0  0  0  0  0
   32.0957   14.1658    8.3822 O   0  0  0  0  0  0  0  0  0  0  0  0
   33.9193   12.6082    8.6503 O   0  0  0  0  0  0  0  0  0  0  0  0
   33.2950   13.2011    6.0611 C   0  0  0  0  0  0  0  0  0  0  0  0
   33.5236   11.7812    5.8531 C   0  0  0  0  0  0  0  0  0  0  0  0
   32.6168   11.0409    6.5719 C   0  0  0  0  0  0  0  0  0  0  0  0
   31.5603   11.6181    7.2880 C   0  0  0  0  0  0  0  0  0  0  0  0
   30.6621   10.8399    8.0182 C   0  0  0  0  0  0  0  0  0  0  0  0
   30.7809    9.3315    8.0758 C   0  0  0  0  0  0  0  0  0  0  0  0
   31.8421    8.8254    7.3386 C   0  0  0  0  0  0  0  0  0  0  0  0
   32.7784    9.6883    6.5691 C   0  0  0  0  0  0  0  0  0  0  0  0
   34.0332   14.2885    5.3075 C   0  0  0  0  0  0  0  0  0  0  0  0
   32.6408   13.9140    4.8885 C   0  0  0  0  0  0  0  0  0  0  0  0
  1  2  1  0
  2  3  2  0
  2  4  2  0
  2  5  1  0
  5  6  1  0
  6  7  1  0
  7  8  2  0
  8  9  1  0
  9 10  2  0
 10 11  1  0
 11 12  2  0
  5 13  1  0
 13 14  1  0
 14  5  1  0
 12  7  1  0
A    1
 N1 
A    2
 S1 
A    3
 O1 
A    4
 O2 
A    5
 C1 
A    6
 C2 
A    7
 C3 
A    8
 C4 
A    9
 C5 
A   10
 C6 
A   11
 C7 
A   12
 C8 
A   13
 C9 
A   14
 C10
M  END
>  <ref_pdb>  (129) 
Ax0310a

>  <ref_mols>  (129) 
Ax0446a,Ax1080a,Ax0812a,Ax0719a,Ax1140a,Ax0528a,Ax0310a

>  <original SMILES>  (129) 
NS(=O)(=O)C1(Cc2ccccc2)CC1

>  <rationale>  (129) 
info info set:sulfonimide_whole;hbond:S87+G127+A86; 

>  <experiment>  (129) 
sulfonimide_whole

>  <cluster_label>  (129) 
5

>  <cluster_rank>  (129) 
9

>  <N_interactions>  (129) 
3

>  <∆∆G>  (129) 
-4.72569

>  <comRMSD>  (129) 
0.879081

>  <ROCS_TanimotoCombo>  (129) 
0.365

>  <ROCS_ShapeTanimoto>  (129) 
0.192

>  <ROCS_ColorTanimoto>  (129) 
0.173

$$$$
Z5870316324
     RDKit          3D

 22 25  0  0  0  0  0  0  0  0999 V2000
   30.0244   10.4961    8.9042 O   0  0  0  0  0  0  0  0  0  0  0  0
   30.5915   11.3392    8.2668 C   0  0  0  0  0  0  0  0  0  0  0  0
   30.4702   12.7884    8.3635 N   0  0  0  0  0  0  0  0  0  0  0  0
   29.1205   13.2841    8.6740 C   0  0  0  0  0  0  0  0  0  0  0  0
   28.4268   13.5346    7.3990 C   0  0  0  0  0  0  0  0  0  0  0  0
   27.0837   12.7868    7.1184 C   0  0  0  0  0  0  0  0  0  0  0  0
   26.6536   13.2601    5.7341 C   0  0  0  0  0  0  0  0  0  0  0  0
   27.3693   14.1634    4.9119 C   0  0  0  0  0  0  0  0  0  0  0  0
   28.6008   14.7152    5.3987 N   0  0  0  0  0  0  0  0  0  0  0  0
   29.0493   14.3785    6.6103 N   0  0  0  0  0  0  0  0  0  0  0  0
   31.5319   10.8016    7.3213 C   0  0  0  0  0  0  0  0  0  0  0  0
   31.7851    9.2797    7.4340 C   0  0  0  0  0  0  0  0  0  0  0  0
   32.6283    8.6353    6.6425 N   0  0  0  0  0  0  0  0  0  0  0  0
   33.2247    9.4148    5.7341 C   0  0  0  0  0  0  0  0  0  0  0  0
   34.1115    8.8905    4.8301 N   0  0  0  0  0  0  0  0  0  0  0  0
   34.5729    9.8730    4.0057 C   0  0  0  0  0  0  0  0  0  0  0  0
   35.5594    9.7959    2.8278 C   0  0  0  0  0  0  0  0  0  0  0  0
   36.5676    8.8495    3.0040 C   0  0  0  0  0  0  0  0  0  0  0  0
   37.0042   10.3871    3.0000 C   0  0  0  0  0  0  0  0  0  0  0  0
   33.8935   11.1558    4.4701 C   0  0  0  0  0  0  0  0  0  0  0  0
   33.0748   10.8000    5.5316 C   0  0  0  0  0  0  0  0  0  0  0  0
   32.2071   11.5143    6.3523 C   0  0  0  0  0  0  0  0  0  0  0  0
  1  2  2  0
  2  3  1  0
  3  4  1  0
  4  5  1  0
  5  6  2  0
  6  7  1  0
  7  8  2  0
  8  9  1  0
  9 10  2  0
  2 11  1  0
 11 12  2  0
 12 13  1  0
 13 14  2  0
 14 15  1  0
 15 16  1  0
 16 17  1  0
 17 18  1  0
 18 19  1  0
 16 20  2  0
 20 21  1  0
 21 22  2  0
 10  5  1  0
 22 11  1  0
 21 14  1  0
 19 17  1  0
A    1
 O1 
A    2
 C1 
A    3
 N1 
A    4
 C2 
A    5
 C3 
A    6
 C4 
A    7
 C5 
A    8
 C6 
A    9
 N2 
A   10
 N3 
A   11
 C7 
A   12
 C8 
A   13
 N4 
A   14
 C9 
A   15
 N5 
A   16
 C10
A   17
 C11
A   18
 C12
A   19
 C13
A   20
 C14
A   21
 C15
A   22
 C16
M  END
>  <ref_pdb>  (130) 
Ax0310a

>  <ref_mols>  (130) 
Ax0446a,Ax1080a,Ax0812a,Ax0719a,Ax1140a,Ax0528a,Ax0310a

>  <original SMILES>  (130) 
O=C(NCc1cccnn1)c1cnc2[nH]c(C3CC3)cc2c1

>  <rationale>  (130) 
info info set:screening_pocket;hbond:S87+E88; hydroph_interaction:P107+Y89; 

>  <experiment>  (130) 
screening_pocket

>  <cluster_label>  (130) 
8

>  <cluster_rank>  (130) 
9

>  <N_interactions>  (130) 
6

>  <∆∆G>  (130) 
-1.888685

>  <comRMSD>  (130) 
0.988116

>  <ROCS_TanimotoCombo>  (130) 
0.66

>  <ROCS_ShapeTanimoto>  (130) 
0.256

>  <ROCS_ColorTanimoto>  (130) 
0.405

$$$$
Z86232373
     RDKit          3D

 23 26  0  0  0  0  0  0  0  0999 V2000
   29.9073    9.1081    9.8668 F   0  0  0  0  0  0  0  0  0  0  0  0
   30.3893    8.5055    8.8120 C   0  0  0  0  0  0  0  0  0  0  0  0
   31.1145    7.5876    9.4069 F   0  0  0  0  0  0  0  0  0  0  0  0
   29.2894    7.9377    8.3043 F   0  0  0  0  0  0  0  0  0  0  0  0
   31.2257    9.4514    7.9900 C   0  0  0  0  0  0  0  0  0  0  0  0
   30.9463   10.7172    8.2967 N   0  0  0  0  0  0  0  0  0  0  0  0
   31.6099   11.6881    7.7254 C   0  0  0  0  0  0  0  0  0  0  0  0
   31.1725   12.9136    8.2019 N   0  0  0  0  0  0  0  0  0  0  0  0
   31.8882   13.8271    8.9391 N   0  0  0  0  0  0  0  0  0  0  0  0
   31.0523   14.8358    9.2043 N   0  0  0  0  0  0  0  0  0  0  0  0
   29.8185   14.5775    8.6333 C   0  0  0  0  0  0  0  0  0  0  0  0
   28.5333   15.4044    8.6328 C   0  0  0  0  0  0  0  0  0  0  0  0
   27.3575   14.8020    7.9202 C   0  0  0  0  0  0  0  0  0  0  0  0
   27.4249   13.6033    7.2884 C   0  0  0  0  0  0  0  0  0  0  0  0
   28.6803   12.7821    7.2655 C   0  0  0  0  0  0  0  0  0  0  0  0
   29.8715   13.3678    7.9945 C   0  0  0  0  0  0  0  0  0  0  0  0
   32.6853   11.3650    6.6923 C   0  0  0  0  0  0  0  0  0  0  0  0
   33.4949   12.4392    5.9837 C   0  0  0  0  0  0  0  0  0  0  0  0
   34.4612   12.0638    5.0531 C   0  0  0  0  0  0  0  0  0  0  0  0
   34.6959   10.5564    4.7492 C   0  0  0  0  0  0  0  0  0  0  0  0
   33.8454    9.6882    5.5071 C   0  0  0  0  0  0  0  0  0  0  0  0
   32.8634   10.0145    6.4546 C   0  0  0  0  0  0  0  0  0  0  0  0
   32.1569    9.0492    7.0882 N   0  0  0  0  0  0  0  0  0  0  0  0
  1  2  1  0
  2  3  1  0
  2  4  1  0
  2  5  1  0
  5  6  2  0
  6  7  1  0
  7  8  1  0
  8  9  1  0
  9 10  2  0
 10 11  1  0
 11 12  2  0
 12 13  1  0
 13 14  2  0
 14 15  1  0
 15 16  2  0
  7 17  2  0
 17 18  1  0
 18 19  2  0
 19 20  1  0
 20 21  2  0
 21 22  1  0
 22 23  2  0
 23  5  1  0
 16  8  1  0
 22 17  1  0
 16 11  1  0
A    1
 F1 
A    2
 C1 
A    3
 F2 
A    4
 F3 
A    5
 C2 
A    6
 N1 
A    7
 C3 
A    8
 N2 
A    9
 N3 
A   10
 N4 
A   11
 C4 
A   12
 C5 
A   13
 C6 
A   14
 C7 
A   15
 C8 
A   16
 C9 
A   17
 C10
A   18
 C11
A   19
 C12
A   20
 C13
A   21
 C14
A   22
 C15
A   23
 N5 
M  END
>  <ref_pdb>  (131) 
Ax0310a

>  <ref_mols>  (131) 
Ax0446a,Ax1080a,Ax0812a,Ax0719a,Ax1140a,Ax0528a,Ax0310a

>  <original SMILES>  (131) 
FC(F)(F)c1nc(-n2nnc3ccccc32)c2ccccc2n1

>  <rationale>  (131) 
info info set:screening_whole;halogenbond:P107; hbond:S87+S105; hydroph_interaction:Y89+Y90; 

>  <experiment>  (131) 
screening_whole

>  <cluster_label>  (131) 
9

>  <cluster_rank>  (131) 
9

>  <N_interactions>  (131) 
5

>  <∆∆G>  (131) 
-0.283238

>  <comRMSD>  (131) 
0.557701

>  <ROCS_TanimotoCombo>  (131) 
0.47

>  <ROCS_ShapeTanimoto>  (131) 
0.277

>  <ROCS_ColorTanimoto>  (131) 
0.193

$$$$
EN300_801314
     RDKit          3D

 17 18  0  0  0  0  0  0  0  0999 V2000
   29.1170    9.8621    8.9406 C   0  0  0  0  0  0  0  0  0  0  0  0
   29.9813    8.6706    9.1351 C   0  0  0  0  0  0  0  0  0  0  0  0
   29.9687    7.9510   10.3724 C   0  0  0  0  0  0  0  0  0  0  0  0
   29.2289    7.6087    8.5751 C   0  0  0  0  0  0  0  0  0  0  0  0
   31.2595    8.5507    8.3790 C   0  0  0  0  0  0  0  0  0  0  0  0
   31.7075    9.5703    7.4608 C   0  0  0  0  0  0  0  0  0  0  0  0
   32.5739    8.9872    6.6275 N   0  0  0  0  0  0  0  0  0  0  0  0
   33.1041    9.7008    5.6621 C   0  0  0  0  0  0  0  0  0  0  0  0
   34.0823    9.0710    4.6642 C   0  0  0  0  0  0  0  0  0  0  0  0
   34.6291    9.7980    3.6248 C   0  0  0  0  0  0  0  0  0  0  0  0
   35.6905    8.9469    2.5753 Cl  0  0  0  0  0  0  0  0  0  0  0  0
   34.3503   11.2948    3.3490 C   0  0  0  0  0  0  0  0  0  0  0  0
   33.4555   11.7947    4.3190 C   0  0  0  0  0  0  0  0  0  0  0  0
   32.8111   11.0336    5.4829 C   0  0  0  0  0  0  0  0  0  0  0  0
   31.9280   11.6582    6.3631 C   0  0  0  0  0  0  0  0  0  0  0  0
   31.3471   10.9270    7.3852 C   0  0  0  0  0  0  0  0  0  0  0  0
   30.4697   11.5939    8.2122 O   0  0  0  0  0  0  0  0  0  0  0  0
  1  2  1  0
  2  3  1  0
  2  4  1  0
  2  5  1  0
  5  6  1  0
  6  7  2  0
  7  8  1  0
  8  9  2  0
  9 10  1  0
 10 11  1  0
 10 12  2  0
 12 13  1  0
 13 14  2  0
 14 15  1  0
 15 16  2  0
 16 17  1  0
 16  6  1  0
 14  8  1  0
A    1
 C1 
A    2
 C2 
A    3
 C3 
A    4
 C4 
A    5
 C5 
A    6
 C6 
A    7
 N1 
A    8
 C7 
A    9
 C8 
A   10
 C9 
A   11
CL1 
A   12
 C10
A   13
 C11
A   14
 C12
A   15
 C13
A   16
 C14
A   17
 O1 
M  END
>  <ref_pdb>  (132) 
Ax0310a

>  <ref_mols>  (132) 
Ax0446a,Ax1080a,Ax0812a,Ax0719a,Ax1140a,Ax0528a,Ax0310a

>  <original SMILES>  (132) 
CC(C)(C)Cc1nc2cc(Cl)ccc2cc1O

>  <rationale>  (132) 
info info set:bb_densepocket2;hbond:S125+G127; hydroph_interaction:P107+V124+D109; 

>  <experiment>  (132) 
bb_densepocket2

>  <cluster_label>  (132) 
3

>  <cluster_rank>  (132) 
9

>  <N_interactions>  (132) 
5

>  <∆∆G>  (132) 
-6.488754

>  <comRMSD>  (132) 
0.65049

>  <ROCS_TanimotoCombo>  (132) 
0.646

>  <ROCS_ShapeTanimoto>  (132) 
0.24

>  <ROCS_ColorTanimoto>  (132) 
0.406

$$$$
EN300_66101
     RDKit          3D

 17 17  0  0  0  0  0  0  0  0999 V2000
   32.7372   12.8671    3.5724 C   0  0  0  0  0  0  0  0  0  0  0  0
   33.4535   11.7049    3.7435 N   0  0  0  0  0  0  0  0  0  0  0  0
   34.1990   11.6047    5.2629 S   0  0  0  0  0  6  0  0  0  0  0  0
   34.5905   12.9436    5.6397 O   0  0  0  0  0  0  0  0  0  0  0  0
   35.1845   10.5587    5.0736 O   0  0  0  0  0  0  0  0  0  0  0  0
   32.8401   11.0301    6.3303 C   0  0  0  0  0  0  0  0  0  0  0  0
   32.7818    9.4989    6.4627 C   0  0  0  0  0  0  0  0  0  0  0  0
   31.6088    9.0481    7.4060 C   0  0  0  0  0  0  0  0  0  0  0  0
   30.7888   10.2119    7.9699 C   0  0  0  0  0  0  0  0  0  0  0  0
   30.9930   11.5364    7.7216 C   0  0  0  0  0  0  0  0  0  0  0  0
   30.0278   12.4517    8.3952 N   0  0  0  0  0  0  0  0  0  0  0  0
   30.2238   13.7074    8.9350 C   0  0  0  0  0  0  0  0  0  0  0  0
   31.3082   14.2676    9.1212 O   0  0  0  0  0  0  0  0  0  0  0  0
   28.8852   14.3796    9.3046 C   0  0  2  0  0  0  0  0  0  0  0  0
   28.8221   15.8216    8.8113 C   0  0  0  0  0  0  0  0  0  0  0  0
   28.6401   14.3020   10.7509 N   0  0  0  0  0  0  0  0  0  0  0  0
   32.0055   11.9537    6.9150 C   0  0  0  0  0  0  0  0  0  0  0  0
  1  2  1  0
  2  3  1  0
  3  4  2  0
  3  5  2  0
  3  6  1  0
  6  7  2  0
  7  8  1  0
  8  9  2  0
  9 10  1  0
 10 11  1  0
 11 12  1  0
 12 13  2  0
 12 14  1  0
 14 15  1  1
 14 16  1  0
 10 17  2  0
 17  6  1  0
A    1
 C1 
A    2
 N1 
A    3
 S1 
A    4
 O1 
A    5
 O2 
A    6
 C2 
A    7
 C3 
A    8
 C4 
A    9
 C5 
A   10
 C6 
A   11
 N2 
A   12
 C7 
A   13
 O3 
A   14
 C8 
A   15
 C9 
A   16
 N3 
A   17
 C10
M  END
>  <ref_pdb>  (133) 
Ax0310a

>  <ref_mols>  (133) 
Ax0446a,Ax1080a,Ax0812a,Ax0719a,Ax1140a,Ax0528a,Ax0310a

>  <original SMILES>  (133) 
CNS(=O)(=O)c1cccc(NC(=O)[C@H](C)N)c1

>  <rationale>  (133) 
info info set:sulfonimide_whole;hbond:S87+H21; hydroph_interaction:Y89+Y90; 

>  <experiment>  (133) 
sulfonimide_whole

>  <cluster_label>  (133) 
7

>  <cluster_rank>  (133) 
9

>  <N_interactions>  (133) 
4

>  <∆∆G>  (133) 
-10.496462

>  <comRMSD>  (133) 
0.457146

>  <ROCS_TanimotoCombo>  (133) 
0.34

>  <ROCS_ShapeTanimoto>  (133) 
0.202

>  <ROCS_ColorTanimoto>  (133) 
0.138

$$$$
EN300_12604810
     RDKit          3D

 20 21  0  0  0  0  0  0  0  0999 V2000
   32.1632   13.5286    8.6754 C   0  0  0  0  0  0  0  0  0  0  0  0
   33.5478   13.0712    8.1880 C   0  0  0  0  0  0  0  0  0  0  0  0
   33.3813   12.1243    6.9839 C   0  0  0  0  0  0  0  0  0  0  0  0
   34.1492   12.5335    9.3701 O   0  0  0  0  0  0  0  0  0  0  0  0
   35.5304   13.0551    9.5758 B   0  0  0  0  0  0  0  0  0  0  0  0
   36.6522   12.3893   10.4881 C   0  0  0  0  0  0  0  0  0  0  0  0
   36.3700   11.2517   11.4175 C   0  0  0  0  0  0  0  0  0  0  0  0
   37.2677   10.6119   12.2810 C   0  0  0  0  0  0  0  0  0  0  0  0
   38.6246   11.1098   12.2478 C   0  0  0  0  0  0  0  0  0  0  0  0
   39.5074   10.6868   12.9352 O   0  0  0  0  0  0  0  0  0  0  0  0
   38.9463   12.1287   11.3701 C   0  0  0  0  0  0  0  0  0  0  0  0
   40.6255   12.6044   11.3459 S   0  0  0  0  0  6  0  0  0  0  0  0
   41.3756   12.0153   12.8024 N   0  0  0  0  0  0  0  0  0  0  0  0
   41.2561   12.0343   10.1576 O   0  0  0  0  0  0  0  0  0  0  0  0
   40.7152   14.0934   11.2798 O   0  0  0  0  0  0  0  0  0  0  0  0
   37.9842   12.7591   10.5200 C   0  0  0  0  0  0  0  0  0  0  0  0
   35.8129   13.4825    8.2245 O   0  0  0  0  0  0  0  0  0  0  0  0
   34.6068   14.1265    7.9834 C   0  0  0  0  0  0  0  0  0  0  0  0
   34.4499   15.0382    9.1145 C   0  0  0  0  0  0  0  0  0  0  0  0
   34.5997   14.6202    6.5787 C   0  0  0  0  0  0  0  0  0  0  0  0
  1  2  1  0
  2  3  1  0
  2  4  1  0
  4  5  1  0
  5  6  1  0
  6  7  2  0
  7  8  1  0
  8  9  2  0
  9 10  1  0
  9 11  1  0
 11 12  1  0
 12 13  1  0
 12 14  2  0
 12 15  2  0
 11 16  2  0
  5 17  1  0
 17 18  1  0
 18 19  1  0
 18 20  1  0
 18  2  1  0
 16  6  1  0
A    1
 C1 
A    2
 C2 
A    3
 C3 
A    4
 O1 
A    5
 B1 
A    6
 C4 
A    7
 C5 
A    8
 C6 
A    9
 C7 
A   10
 O2 
A   11
 C8 
A   12
 S1 
A   13
 N1 
A   14
 O3 
A   15
 O4 
A   16
 C9 
A   17
 O5 
A   18
 C10
A   19
 C11
A   20
 C12
M  END
>  <ref_pdb>  (134) 
Ax0310a

>  <ref_mols>  (134) 
Ax0446a,Ax1080a,Ax0812a,Ax0719a,Ax1140a,Ax0528a,Ax0310a

>  <original SMILES>  (134) 
CC1(C)OB(c2ccc(O)c(S(N)(=O)=O)c2)OC1(C)C

>  <rationale>  (134) 
info info set:sulfonimide_joint;hbond:G127+N129; hydroph_interaction:V84+L100+L131; 

>  <experiment>  (134) 
sulfonimide_joint

>  <cluster_label>  (134) 
17

>  <cluster_rank>  (134) 
10

>  <N_interactions>  (134) 
5

>  <∆∆G>  (134) 
-2.605426

>  <comRMSD>  (134) 
0.625065

>  <ROCS_TanimotoCombo>  (134) 
0.325

>  <ROCS_ShapeTanimoto>  (134) 
0.216

>  <ROCS_ColorTanimoto>  (134) 
0.109

$$$$
Z6374976106
     RDKit          3D

 16 16  0  0  0  0  0  0  0  0999 V2000
   34.2818    9.3475    4.9350 C   0  0  0  0  0  0  0  0  0  0  0  0
   33.2055    9.7737    5.7818 N   0  0  0  0  0  0  0  0  0  0  0  0
   32.6912   11.0073    5.9024 C   0  0  0  0  0  0  0  0  0  0  0  0
   31.6066   10.9060    6.9019 C   0  0  0  0  0  0  0  0  0  0  0  0
   30.8096   11.9491    7.3182 N   0  0  0  0  0  0  0  0  0  0  0  0
   29.9707   11.8331    8.3092 C   0  0  0  0  0  0  0  0  0  0  0  0
   29.9584   10.7454    8.8636 O   0  0  0  0  0  0  0  0  0  0  0  0
   29.0777   13.0946    8.6514 C   0  0  0  0  0  0  0  0  0  0  0  0
   28.1524   13.0804    9.6412 F   0  0  0  0  0  0  0  0  0  0  0  0
   28.3497   13.4599    7.5751 F   0  0  0  0  0  0  0  0  0  0  0  0
   30.1177   14.1821    8.9491 C   0  0  0  0  0  0  0  0  0  0  0  0
   30.5515   14.1624   10.2341 F   0  0  0  0  0  0  0  0  0  0  0  0
   31.2230   13.9298    8.2291 F   0  0  0  0  0  0  0  0  0  0  0  0
   31.6016    9.5641    7.2852 C   0  0  0  0  0  0  0  0  0  0  0  0
   30.8628    8.8581    8.1523 O   0  0  0  0  0  0  0  0  0  0  0  0
   32.5591    8.8802    6.6099 N   0  0  0  0  0  0  0  0  0  0  0  0
  1  2  1  0
  2  3  1  0
  3  4  2  0
  4  5  1  0
  5  6  1  0
  6  7  2  0
  6  8  1  0
  8  9  1  0
  8 10  1  0
  8 11  1  0
 11 12  1  0
 11 13  1  0
  4 14  1  0
 14 15  1  0
 14 16  2  0
 16  2  1  0
A    1
 C1 
A    2
 N1 
A    3
 C2 
A    4
 C3 
A    5
 N2 
A    6
 C4 
A    7
 O1 
A    8
 C5 
A    9
 F1 
A   10
 F2 
A   11
 C6 
A   12
 F3 
A   13
 F4 
A   14
 C7 
A   15
 O2 
A   16
 N3 
M  END
>  <ref_pdb>  (135) 
Ax0310a

>  <ref_mols>  (135) 
Ax0446a,Ax1080a,Ax0812a,Ax0719a,Ax1140a,Ax0528a,Ax0310a

>  <original SMILES>  (135) 
Cn1cc(NC(=O)C(F)(F)C(F)F)c(O)n1

>  <rationale>  (135) 
info info set:screening_pocket;halogenbond:D39; hbond:S105; 

>  <experiment>  (135) 
screening_pocket

>  <cluster_label>  (135) 
18

>  <cluster_rank>  (135) 
10

>  <N_interactions>  (135) 
2

>  <∆∆G>  (135) 
-0.085897

>  <comRMSD>  (135) 
0.764053

>  <ROCS_TanimotoCombo>  (135) 
0.625

>  <ROCS_ShapeTanimoto>  (135) 
0.227

>  <ROCS_ColorTanimoto>  (135) 
0.397

$$$$
Z3664711289
     RDKit          3D

 11 12  0  0  0  0  0  0  0  0999 V2000
   32.3532   14.2380    8.9671 O   0  0  0  0  0  0  0  0  0  0  0  0
   33.0326   13.5243    8.2185 C   0  0  0  0  0  0  0  0  0  0  0  0
   34.2987   13.9636    7.5603 C   0  0  0  0  0  0  0  0  0  0  0  0
   34.4561   13.8020    6.1574 O   0  0  0  0  0  0  0  0  0  0  0  0
   34.0013   12.5355    5.7065 C   0  0  0  0  0  0  0  0  0  0  0  0
   32.6067   12.5436    5.7331 C   0  0  0  0  0  0  0  0  0  0  0  0
   32.2190   11.7648    6.8340 C   0  0  0  0  0  0  0  0  0  0  0  0
   32.2874   10.2353    6.7136 C   0  0  0  0  0  0  0  0  0  0  0  0
   31.0929   10.1298    7.5575 N   0  0  0  0  0  0  0  0  0  0  0  0
   30.7311   11.5040    7.0994 C   0  0  0  0  0  0  0  0  0  0  0  0
   32.6325   12.2584    7.9721 N   0  0  0  0  0  0  0  0  0  0  0  0
  1  2  2  0
  2  3  1  0
  3  4  1  0
  4  5  1  0
  5  6  1  0
  6  7  1  0
  7  8  1  0
  8  9  1  0
  9 10  1  0
  7 11  1  0
 11  2  1  0
 10  7  1  0
A    1
 O1 
A    2
 C1 
A    3
 C2 
A    4
 O2 
A    5
 C3 
A    6
 C4 
A    7
 C5 
A    8
 C6 
A    9
 N1 
A   10
 C7 
A   11
 N2 
M  END
>  <ref_pdb>  (136) 
Ax0310a

>  <ref_mols>  (136) 
Ax0446a,Ax1080a,Ax0812a,Ax0719a,Ax1140a,Ax0528a,Ax0310a

>  <original SMILES>  (136) 
O=C1COCCC2(CNC2)N1

>  <rationale>  (136) 
info info set:3d;hbond:S87+G127+E106; 

>  <experiment>  (136) 
3d

>  <cluster_label>  (136) 
6

>  <cluster_rank>  (136) 
10

>  <N_interactions>  (136) 
3

>  <∆∆G>  (136) 
-0.191311

>  <comRMSD>  (136) 
0.907887

>  <ROCS_TanimotoCombo>  (136) 
0.301

>  <ROCS_ShapeTanimoto>  (136) 
0.167

>  <ROCS_ColorTanimoto>  (136) 
0.134

$$$$
Z3592313629
     RDKit          3D

 23 24  0  0  0  0  0  0  0  0999 V2000
   30.9845    8.5869    8.4445 C   0  0  0  0  0  0  0  0  0  0  0  0
   31.6110    9.5288    7.4286 C   0  0  0  0  0  0  0  0  0  0  0  0
   32.6570    8.9852    6.5704 N   0  0  0  0  0  0  0  0  0  0  0  0
   33.2192    9.8436    5.6732 C   0  0  0  0  0  0  0  0  0  0  0  0
   34.3486    9.3555    4.6977 C   0  0  0  0  0  0  0  0  0  0  0  0
   35.1739    8.4360    5.2303 F   0  0  0  0  0  0  0  0  0  0  0  0
   33.9190    8.7455    3.5611 F   0  0  0  0  0  0  0  0  0  0  0  0
   35.1491   10.3553    4.2413 F   0  0  0  0  0  0  0  0  0  0  0  0
   32.8348   11.1948    5.5652 C   0  0  0  0  0  0  0  0  0  0  0  0
   31.8269   11.8234    6.3494 C   0  0  0  0  0  0  0  0  0  0  0  0
   31.2284   10.8212    7.3230 C   0  0  0  0  0  0  0  0  0  0  0  0
   30.1346   11.5096    8.1468 C   0  0  0  0  0  0  0  0  0  0  0  0
   30.4729   12.5502    8.6875 O   0  0  0  0  0  0  0  0  0  0  0  0
   28.8480   10.9416    8.2719 N   0  0  0  0  0  0  0  0  0  0  0  0
   28.9890    9.5736    8.7309 C   0  0  0  0  0  0  0  0  0  0  0  0
   27.7166   11.8393    8.7011 C   0  0  2  0  0  0  0  0  0  0  0  0
   26.3756   11.8200    8.0082 C   0  0  0  0  0  0  0  0  0  0  0  0
   27.9528   13.0852    8.1369 C   0  0  0  0  0  0  0  0  0  0  0  0
   27.8399   13.0535    6.6343 C   0  0  0  0  0  0  0  0  0  0  0  0
   28.1206   14.4072    6.2270 C   0  0  0  0  0  0  0  0  0  0  0  0
   28.3918   15.3850    7.1615 C   0  0  0  0  0  0  0  0  0  0  0  0
   28.4357   15.2937    8.4308 N   0  0  0  0  0  0  0  0  0  0  0  0
   28.2218   14.1311    8.9093 C   0  0  0  0  0  0  0  0  0  0  0  0
  1  2  1  0
  2  3  2  0
  3  4  1  0
  4  5  1  0
  5  6  1  0
  5  7  1  0
  5  8  1  0
  4  9  2  0
  9 10  1  0
 10 11  2  0
 11 12  1  0
 12 13  2  0
 12 14  1  0
 14 15  1  0
 14 16  1  0
 16 17  1  6
 16 18  1  0
 18 19  2  0
 19 20  1  0
 20 21  2  0
 21 22  1  0
 22 23  2  0
 11  2  1  0
 23 18  1  0
A    1
 C1 
A    2
 C2 
A    3
 N1 
A    4
 C3 
A    5
 C4 
A    6
 F1 
A    7
 F2 
A    8
 F3 
A    9
 C5 
A   10
 C6 
A   11
 C7 
A   12
 C8 
A   13
 O1 
A   14
 N2 
A   15
 C9 
A   16
 C10
A   17
 C11
A   18
 C12
A   19
 C13
A   20
 C14
A   21
 C15
A   22
 N3 
A   23
 C16
M  END
>  <ref_pdb>  (137) 
Ax0310a

>  <ref_mols>  (137) 
Ax0446a,Ax1080a,Ax0812a,Ax0719a,Ax1140a,Ax0528a,Ax0310a

>  <original SMILES>  (137) 
Cc1nc(C(F)(F)F)ccc1C(=O)N(C)[C@H](C)c1cccnc1

>  <rationale>  (137) 
info info set:screening_pocket;hbond:S87+Y90; hydroph_interaction:P107+Y89+L22; 

>  <experiment>  (137) 
screening_pocket

>  <cluster_label>  (137) 
16

>  <cluster_rank>  (137) 
10

>  <N_interactions>  (137) 
6

>  <∆∆G>  (137) 
-2.314008

>  <comRMSD>  (137) 
0.803883

>  <ROCS_TanimotoCombo>  (137) 
0.636

>  <ROCS_ShapeTanimoto>  (137) 
0.269

>  <ROCS_ColorTanimoto>  (137) 
0.367

$$$$
Z1459954429
     RDKit          3D

 17 18  0  0  0  0  0  0  0  0999 V2000
   31.5806   12.9683    5.5770 C   0  0  0  0  0  0  0  0  0  0  0  0
   31.8003   11.7095    6.1131 C   0  0  0  0  0  0  0  0  0  0  0  0
   32.8476   10.8679    5.7619 C   0  0  0  0  0  0  0  0  0  0  0  0
   32.9974    9.5602    6.3680 C   0  0  0  0  0  0  0  0  0  0  0  0
   32.0731    9.1830    7.3171 C   0  0  0  0  0  0  0  0  0  0  0  0
   31.0606   10.0436    7.6419 C   0  0  0  0  0  0  0  0  0  0  0  0
   30.2615    9.3117    8.7029 C   0  0  0  0  0  0  0  0  0  0  0  0
   30.8626   11.3193    7.0607 C   0  0  0  0  0  0  0  0  0  0  0  0
   29.6474   12.1943    7.4631 C   0  0  0  0  0  0  0  0  0  0  0  0
   29.8939   13.6279    7.5274 N   0  0  0  0  0  0  0  0  0  0  0  0
   28.6863   14.3877    7.1076 C   0  0  0  0  0  0  0  0  0  0  0  0
   27.8838   14.5212    8.3419 C   0  0  0  0  0  0  0  0  0  0  0  0
   28.5847   14.1854    9.4696 C   0  0  0  0  0  0  0  0  0  0  0  0
   30.0119   13.8277    8.9837 C   0  0  2  0  0  0  0  0  0  0  0  0
   31.0082   14.8730    9.3746 C   0  0  0  0  0  0  0  0  0  0  0  0
   30.7838   16.0259    9.6880 O   0  0  0  0  0  0  0  0  0  0  0  0
   32.2755   14.4111    9.3452 O   0  0  0  0  0  0  0  0  0  0  0  0
  1  2  1  0
  2  3  2  0
  3  4  1  0
  4  5  2  0
  5  6  1  0
  6  7  1  0
  6  8  2  0
  8  9  1  0
  9 10  1  0
 10 11  1  0
 11 12  1  0
 12 13  1  0
 13 14  1  0
 14 15  1  6
 15 16  2  0
 15 17  1  0
  8  2  1  0
 14 10  1  0
A    1
 C1 
A    2
 C2 
A    3
 C3 
A    4
 C4 
A    5
 C5 
A    6
 C6 
A    7
 C7 
A    8
 C8 
A    9
 C9 
A   10
 N1 
A   11
 C10
A   12
 C11
A   13
 C12
A   14
 C13
A   15
 C14
A   16
 O1 
A   17
 O2 
M  END
>  <ref_pdb>  (138) 
Ax0310a

>  <ref_mols>  (138) 
Ax0446a,Ax1080a,Ax0812a,Ax0719a,Ax1140a,Ax0528a,Ax0310a

>  <original SMILES>  (138) 
Cc1cccc(C)c1CN1CCC[C@@H]1C(=O)O

>  <rationale>  (138) 
info info set:3d;hbond:S87; hydroph_interaction:P107; pication:H21; 

>  <experiment>  (138) 
3d

>  <cluster_label>  (138) 
12

>  <cluster_rank>  (138) 
10

>  <N_interactions>  (138) 
3

>  <∆∆G>  (138) 
-6.230953

>  <comRMSD>  (138) 
0.775212

>  <ROCS_TanimotoCombo>  (138) 
0.322

>  <ROCS_ShapeTanimoto>  (138) 
0.199

>  <ROCS_ColorTanimoto>  (138) 
0.123

$$$$
Z27196692
     RDKit          3D

 18 19  0  0  0  0  0  0  0  0999 V2000
   29.6318   13.1643    6.2899 O   0  0  0  0  0  0  0  0  0  0  0  0
   29.5436   12.6849    7.6097 C   0  0  0  0  0  0  0  0  0  0  0  0
   28.3568   13.0953    8.4183 C   0  0  0  0  0  0  0  0  0  0  0  0
   28.6288   14.3493    8.9479 N   0  0  0  0  0  0  0  0  0  0  0  0
   29.5965   14.3545    9.9043 C   0  0  0  0  0  0  0  0  0  0  0  0
   30.4894   15.8570    9.7237 S   0  0  0  0  0  0  0  0  0  0  0  0
   29.0818   16.4973    8.7066 C   0  0  0  0  0  0  0  0  0  0  0  0
   28.6961   15.2488    8.0542 C   0  0  0  0  0  0  0  0  0  0  0  0
   28.4777   15.0833    6.8831 O   0  0  0  0  0  0  0  0  0  0  0  0
   30.4047   11.9055    8.2806 N   0  0  0  0  0  0  0  0  0  0  0  0
   31.1962   11.0076    7.6891 C   0  0  0  0  0  0  0  0  0  0  0  0
   31.0962    9.5185    7.8928 C   0  0  0  0  0  0  0  0  0  0  0  0
   32.0196    8.6322    7.1719 C   0  0  0  0  0  0  0  0  0  0  0  0
   32.9531    9.1615    6.3295 C   0  0  0  0  0  0  0  0  0  0  0  0
   33.1584   10.6233    6.0429 C   0  0  0  0  0  0  0  0  0  0  0  0
   34.3897   11.1271    4.9544 Cl  0  0  0  0  0  0  0  0  0  0  0  0
   32.3032   11.5112    6.7061 C   0  0  0  0  0  0  0  0  0  0  0  0
   32.4319   12.8222    6.4945 F   0  0  0  0  0  0  0  0  0  0  0  0
  1  2  2  0
  2  3  1  0
  3  4  1  0
  4  5  1  0
  5  6  1  0
  6  7  1  0
  7  8  1  0
  8  9  2  0
  2 10  1  0
 10 11  1  0
 11 12  2  0
 12 13  1  0
 13 14  2  0
 14 15  1  0
 15 16  1  0
 15 17  2  0
 17 18  1  0
  8  4  1  0
 17 11  1  0
A    1
 O1 
A    2
 C1 
A    3
 C2 
A    4
 N1 
A    5
 C3 
A    6
 S1 
A    7
 C4 
A    8
 C5 
A    9
 O2 
A   10
 N2 
A   11
 C6 
A   12
 C7 
A   13
 C8 
A   14
 C9 
A   15
 C10
A   16
CL1 
A   17
 C11
A   18
 F1 
M  END
>  <ref_pdb>  (139) 
Ax0310a

>  <ref_mols>  (139) 
Ax0446a,Ax1080a,Ax0812a,Ax0719a,Ax1140a,Ax0528a,Ax0310a

>  <original SMILES>  (139) 
O=C(CN1CSCC1=O)Nc1cccc(Cl)c1F

>  <rationale>  (139) 
info info set:3d;halogenbond:S87; hbond:S125; 

>  <experiment>  (139) 
3d

>  <cluster_label>  (139) 
7

>  <cluster_rank>  (139) 
10

>  <N_interactions>  (139) 
2

>  <∆∆G>  (139) 
-3.230941

>  <comRMSD>  (139) 
0.660401

>  <ROCS_TanimotoCombo>  (139) 
0.335

>  <ROCS_ShapeTanimoto>  (139) 
0.22

>  <ROCS_ColorTanimoto>  (139) 
0.116

$$$$
EN300_135560
     RDKit          3D

 13 13  0  0  0  0  0  0  0  0999 V2000
   29.1808   12.9082    7.4340 C   0  0  0  0  0  0  0  0  0  0  0  0
   30.5185   12.8254    7.9544 O   0  0  0  0  0  0  0  0  0  0  0  0
   31.1805   11.7034    7.5737 C   0  0  0  0  0  0  0  0  0  0  0  0
   30.5591   10.5499    7.8005 C   0  0  0  0  0  0  0  0  0  0  0  0
   31.1729    9.3669    7.4167 C   0  0  0  0  0  0  0  0  0  0  0  0
   32.4186    9.4085    6.7910 C   0  0  0  0  0  0  0  0  0  0  0  0
   33.1631   10.5322    6.5134 C   0  0  0  0  0  0  0  0  0  0  0  0
   32.4239   11.7677    6.9904 C   0  0  0  0  0  0  0  0  0  0  0  0
   33.1585   13.0673    6.8015 C   0  0  0  0  0  0  0  0  0  0  0  0
   33.5712   13.7918    8.3763 S   0  0  0  0  0  6  0  0  0  0  0  0
   34.8238   14.8136    7.9032 N   0  0  0  0  0  0  0  0  0  0  0  0
   32.4626   14.5255    8.9457 O   0  0  0  0  0  0  0  0  0  0  0  0
   34.1951   12.8242    9.2027 O   0  0  0  0  0  0  0  0  0  0  0  0
  1  2  1  0
  2  3  1  0
  3  4  2  0
  4  5  1  0
  5  6  2  0
  6  7  1  0
  7  8  2  0
  8  9  1  0
  9 10  1  0
 10 11  1  0
 10 12  2  0
 10 13  2  0
  8  3  1  0
A    1
 C1 
A    2
 O1 
A    3
 C2 
A    4
 C3 
A    5
 C4 
A    6
 C5 
A    7
 C6 
A    8
 C7 
A    9
 C8 
A   10
 S1 
A   11
 N1 
A   12
 O2 
A   13
 O3 
M  END
>  <ref_pdb>  (140) 
Ax0310a

>  <ref_mols>  (140) 
Ax0446a,Ax1080a,Ax0812a,Ax0719a,Ax1140a,Ax0528a,Ax0310a

>  <original SMILES>  (140) 
COc1ccccc1CS(N)(=O)=O

>  <rationale>  (140) 
info info set:sulfonimide_whole;hbond:S87+G127+A86; 

>  <experiment>  (140) 
sulfonimide_whole

>  <cluster_label>  (140) 
5

>  <cluster_rank>  (140) 
10

>  <N_interactions>  (140) 
3

>  <∆∆G>  (140) 
-7.379743

>  <comRMSD>  (140) 
0.632487

>  <ROCS_TanimotoCombo>  (140) 
0.353

>  <ROCS_ShapeTanimoto>  (140) 
0.182

>  <ROCS_ColorTanimoto>  (140) 
0.171

$$$$
Z5794693510
     RDKit          3D

 15 16  0  0  0  0  0  0  0  0999 V2000
   28.4944   15.1729    7.0876 N   0  0  0  0  0  0  0  0  0  0  0  0
   28.4501   15.4757    8.5081 C   0  0  0  0  0  0  0  0  0  0  0  0
   29.6017   14.8509    9.2614 C   0  0  0  0  0  0  0  0  0  0  0  0
   29.8044   13.5404    8.9933 C   0  0  0  0  0  0  0  0  0  0  0  0
   29.9803   13.0651    7.7203 C   0  0  0  0  0  0  0  0  0  0  0  0
   30.1914   11.6635    8.0378 N   0  0  0  0  0  0  0  0  0  0  0  0
   31.1645   10.9133    7.3959 C   0  0  0  0  0  0  0  0  0  0  0  0
   31.3445    9.4178    7.5669 C   0  0  0  0  0  0  0  0  0  0  0  0
   32.2277    8.6472    6.9916 N   0  0  0  0  0  0  0  0  0  0  0  0
   33.0965    9.2410    6.1276 C   0  0  0  0  0  0  0  0  0  0  0  0
   33.1257   10.7548    5.7828 C   0  0  0  0  0  0  0  0  0  0  0  0
   34.2413   11.4637    4.6891 Cl  0  0  0  0  0  0  0  0  0  0  0  0
   32.0487   11.5444    6.5224 C   0  0  0  0  0  0  0  0  0  0  0  0
   30.6352   15.6860   10.2652 C   0  0  0  0  0  0  0  0  0  0  0  0
   29.5430   14.9241   10.7414 C   0  0  0  0  0  0  0  0  0  0  0  0
  1  2  3  0
  2  3  1  0
  3  4  1  0
  4  5  1  0
  5  6  1  0
  6  7  1  0
  7  8  2  0
  8  9  1  0
  9 10  2  0
 10 11  1  0
 11 12  1  0
 11 13  2  0
  3 14  1  0
 14 15  1  0
 15  3  1  0
 13  7  1  0
A    1
 N1 
A    2
 C1 
A    3
 C2 
A    4
 C3 
A    5
 C4 
A    6
 N2 
A    7
 C5 
A    8
 C6 
A    9
 N3 
A   10
 C7 
A   11
 C8 
A   12
CL1 
A   13
 C9 
A   14
 C10
A   15
 C11
M  END
>  <ref_pdb>  (141) 
Ax0310a

>  <ref_mols>  (141) 
Ax0446a,Ax1080a,Ax0812a,Ax0719a,Ax1140a,Ax0528a,Ax0310a

>  <original SMILES>  (141) 
N#CC1(CCNc2cncc(Cl)c2)CC1

>  <rationale>  (141) 
info info set:screening_pocket;hbond:S125+E88; hydroph_interaction:P107+Y90; 

>  <experiment>  (141) 
screening_pocket

>  <cluster_label>  (141) 
8

>  <cluster_rank>  (141) 
10

>  <N_interactions>  (141) 
4

>  <∆∆G>  (141) 
-4.403284

>  <comRMSD>  (141) 
0.508812

>  <ROCS_TanimotoCombo>  (141) 
0.649

>  <ROCS_ShapeTanimoto>  (141) 
0.205

>  <ROCS_ColorTanimoto>  (141) 
0.444

$$$$
EN300_332186
     RDKit          3D

 19 19  0  0  0  0  0  0  0  0999 V2000
   27.2112   13.7498    6.7653 C   0  0  0  0  0  0  0  0  0  0  0  0
   27.8023   14.3187    8.0030 C   0  0  0  0  0  0  0  0  0  0  0  0
   27.3136   14.8835    9.1753 C   0  0  0  0  0  0  0  0  0  0  0  0
   28.7867   15.3474    7.6134 C   0  0  0  0  0  0  0  0  0  0  0  0
   28.5635   13.2581    8.5116 O   0  0  0  0  0  0  0  0  0  0  0  0
   29.4724   12.8477    7.6259 C   0  0  0  0  0  0  0  0  0  0  0  0
   29.5481   13.1564    6.4417 O   0  0  0  0  0  0  0  0  0  0  0  0
   30.3073   12.0349    8.2516 N   0  0  0  0  0  0  0  0  0  0  0  0
   30.9863   11.1076    7.4278 C   0  0  2  0  0  0  0  0  0  0  0  0
   30.8507    9.8513    8.0201 C   0  0  0  0  0  0  0  0  0  0  0  0
   31.7602    8.9506    7.4774 C   0  0  0  0  0  0  0  0  0  0  0  0
   32.6870    9.3669    6.4789 C   0  0  0  0  0  0  0  0  0  0  0  0
   32.9590   10.7198    6.3664 C   0  0  0  0  0  0  0  0  0  0  0  0
   32.2570   11.5094    7.2275 C   0  0  1  0  0  0  0  0  0  0  0  0
   32.4254   12.8149    7.0412 N   0  0  0  0  0  0  0  0  0  0  0  0
   33.2787   13.6610    8.2383 S   0  0  0  0  0  6  0  0  0  0  0  0
   34.4482   14.4879    7.3036 C   0  0  0  0  0  0  0  0  0  0  0  0
   32.3114   14.4932    8.9191 O   0  0  0  0  0  0  0  0  0  0  0  0
   34.0366   12.7764    9.0498 O   0  0  0  0  0  0  0  0  0  0  0  0
  1  2  1  0
  2  3  1  0
  2  4  1  0
  2  5  1  0
  5  6  1  0
  6  7  2  0
  6  8  1  0
  9  8  1  1
  9 10  1  0
 10 11  1  0
 11 12  1  0
 12 13  1  0
 13 14  1  0
 14 15  1  6
 15 16  1  0
 16 17  1  0
 16 18  2  0
 16 19  2  0
 14  9  1  0
A    1
 C1 
A    2
 C2 
A    3
 C3 
A    4
 C4 
A    5
 O1 
A    6
 C5 
A    7
 O2 
A    8
 N1 
A    9
 C6 
A   10
 C7 
A   11
 C8 
A   12
 C9 
A   13
 C10
A   14
 C11
A   15
 N2 
A   16
 S1 
A   17
 C12
A   18
 O3 
A   19
 O4 
M  END
>  <ref_pdb>  (142) 
Ax0310a

>  <ref_mols>  (142) 
Ax0446a,Ax1080a,Ax0812a,Ax0719a,Ax1140a,Ax0528a,Ax0310a

>  <original SMILES>  (142) 
CC(C)(C)OC(=O)N[C@@H]1CCCC[C@H]1NS(C)(=O)=O

>  <rationale>  (142) 
info info set:sulfonimide_whole;hbond:S87+S125+G127; hydroph_interaction:Y89+Y90+H21; 

>  <experiment>  (142) 
sulfonimide_whole

>  <cluster_label>  (142) 
9

>  <cluster_rank>  (142) 
10

>  <N_interactions>  (142) 
6

>  <∆∆G>  (142) 
-4.850173

>  <comRMSD>  (142) 
0.59798

>  <ROCS_TanimotoCombo>  (142) 
0.348

>  <ROCS_ShapeTanimoto>  (142) 
0.217

>  <ROCS_ColorTanimoto>  (142) 
0.131

$$$$
EN300_37397010
     RDKit          3D

 17 17  0  0  0  0  0  0  0  0999 V2000
   29.3799    8.2595    8.3394 C   0  0  0  0  0  0  0  0  0  0  0  0
   30.6798    8.8707    8.7418 C   0  0  0  0  0  0  0  0  0  0  0  0
   31.4503    9.5512    7.6115 C   0  0  0  0  0  0  0  0  0  0  0  0
   32.3134    8.7516    7.0145 N   0  0  0  0  0  0  0  0  0  0  0  0
   33.1105    9.2351    6.0329 C   0  0  0  0  0  0  0  0  0  0  0  0
   33.2324   10.6933    5.3969 C   0  0  0  0  0  0  0  0  0  0  0  0
   32.1688   11.4947    6.1678 C   0  0  0  0  0  0  0  0  0  0  0  0
   31.9769   12.9562    5.8374 C   0  0  0  0  0  0  0  0  0  0  0  0
   31.2670   10.8644    7.2909 C   0  0  0  0  0  0  0  0  0  0  0  0
   30.2917   11.5565    7.9942 N   0  0  0  0  0  0  0  0  0  0  0  0
   30.4764   12.6733    8.6816 C   0  0  0  0  0  0  0  0  0  0  0  0
   31.5324   13.2234    8.8527 O   0  0  0  0  0  0  0  0  0  0  0  0
   29.2954   13.0592    9.1852 O   0  0  0  0  0  0  0  0  0  0  0  0
   29.1718   14.3393    9.8421 C   0  0  0  0  0  0  0  0  0  0  0  0
   28.2022   15.1489    8.9782 C   0  0  0  0  0  0  0  0  0  0  0  0
   28.7764   14.2595   11.3212 C   0  0  0  0  0  0  0  0  0  0  0  0
   30.5962   14.9074    9.8203 C   0  0  0  0  0  0  0  0  0  0  0  0
  1  2  3  0
  2  3  1  0
  3  4  2  0
  4  5  1  0
  5  6  2  0
  6  7  1  0
  7  8  1  0
  7  9  2  0
  9 10  1  0
 10 11  1  0
 11 12  2  0
 11 13  1  0
 13 14  1  0
 14 15  1  0
 14 16  1  0
 14 17  1  0
  9  3  1  0
A    1
 C1 
A    2
 C2 
A    3
 C3 
A    4
 N1 
A    5
 C4 
A    6
 C5 
A    7
 C6 
A    8
 C7 
A    9
 C8 
A   10
 N2 
A   11
 C9 
A   12
 O1 
A   13
 O2 
A   14
 C10
A   15
 C11
A   16
 C12
A   17
 C13
M  END
>  <ref_pdb>  (143) 
Ax0310a

>  <ref_mols>  (143) 
Ax0446a,Ax1080a,Ax0812a,Ax0719a,Ax1140a,Ax0528a,Ax0310a

>  <original SMILES>  (143) 
C#Cc1nccc(C)c1NC(=O)OC(C)(C)C

>  <rationale>  (143) 
info info set:bb_densepocket2;hbond:G127; hydroph_interaction:P107+Y90+V124; 

>  <experiment>  (143) 
bb_densepocket2

>  <cluster_label>  (143) 
3

>  <cluster_rank>  (143) 
10

>  <N_interactions>  (143) 
5

>  <∆∆G>  (143) 
-5.686382

>  <comRMSD>  (143) 
0.85115

>  <ROCS_TanimotoCombo>  (143) 
0.652

>  <ROCS_ShapeTanimoto>  (143) 
0.233

>  <ROCS_ColorTanimoto>  (143) 
0.419

$$$$
EN300_21669247
     RDKit          3D

 20 21  0  0  0  0  0  0  0  0999 V2000
   34.0814   13.1896    5.9097 C   0  0  0  0  0  0  0  0  0  0  0  0
   34.4112   13.7340    7.2646 C   0  0  0  0  0  0  0  0  0  0  0  0
   34.7333   15.0224    7.4498 C   0  0  0  0  0  0  0  0  0  0  0  0
   35.6233   13.2669    7.6645 O   0  0  0  0  0  0  0  0  0  0  0  0
   35.5655   13.1977    9.1409 B   0  0  0  0  0  0  0  0  0  0  0  0
   36.7450   12.6607   10.0450 C   0  0  0  0  0  0  0  0  0  0  0  0
   36.5797   11.8650   11.1838 C   0  0  0  0  0  0  0  0  0  0  0  0
   37.4922   11.3595   12.0534 C   0  0  0  0  0  0  0  0  0  0  0  0
   37.0448   10.6396   13.0849 N   0  0  0  0  0  0  0  0  0  0  0  0
   38.8551   11.6735   11.7404 C   0  0  0  0  0  0  0  0  0  0  0  0
   39.1734   12.4435   10.6181 C   0  0  0  0  0  0  0  0  0  0  0  0
   40.7647   12.8397   10.1687 S   0  0  0  0  0  6  0  0  0  0  0  0
   40.5897   13.4988    8.6252 N   0  0  0  0  0  0  0  0  0  0  0  0
   41.3787   13.7490   11.1038 O   0  0  0  0  0  0  0  0  0  0  0  0
   41.5946   11.5890   10.0458 O   0  0  0  0  0  0  0  0  0  0  0  0
   38.1979   12.9506    9.7709 C   0  0  0  0  0  0  0  0  0  0  0  0
   34.1878   12.6532    9.2649 O   0  0  0  0  0  0  0  0  0  0  0  0
   33.4186   13.1851    8.2661 C   0  0  0  0  0  0  0  0  0  0  0  0
   32.4892   12.1205    7.6341 C   0  0  0  0  0  0  0  0  0  0  0  0
   32.4890   14.1242    9.0204 C   0  0  0  0  0  0  0  0  0  0  0  0
  1  2  1  0
  2  3  1  0
  2  4  1  0
  4  5  1  0
  5  6  1  0
  6  7  2  0
  7  8  1  0
  8  9  1  0
  8 10  2  0
 10 11  1  0
 11 12  1  0
 12 13  1  0
 12 14  2  0
 12 15  2  0
 11 16  2  0
  5 17  1  0
 17 18  1  0
 18 19  1  0
 18 20  1  0
 18  2  1  0
 16  6  1  0
A    1
 C1 
A    2
 C2 
A    3
 C3 
A    4
 O1 
A    5
 B1 
A    6
 C4 
A    7
 C5 
A    8
 C6 
A    9
 N1 
A   10
 C7 
A   11
 C8 
A   12
 S1 
A   13
 N2 
A   14
 O2 
A   15
 O3 
A   16
 C9 
A   17
 O4 
A   18
 C10
A   19
 C11
A   20
 C12
M  END
>  <ref_pdb>  (144) 
Ax0310a

>  <ref_mols>  (144) 
Ax0446a,Ax1080a,Ax0812a,Ax0719a,Ax1140a,Ax0528a,Ax0310a

>  <original SMILES>  (144) 
CC1(C)OB(c2cc(N)cc(S(N)(=O)=O)c2)OC1(C)C

>  <rationale>  (144) 
info info set:sulfonimide_joint;hbond:G127+T126+N129; hydroph_interaction:L131; 

>  <experiment>  (144) 
sulfonimide_joint

>  <cluster_label>  (144) 
17

>  <cluster_rank>  (144) 
11

>  <N_interactions>  (144) 
5

>  <∆∆G>  (144) 
-2.454009

>  <comRMSD>  (144) 
0.655075

>  <ROCS_TanimotoCombo>  (144) 
0.324

>  <ROCS_ShapeTanimoto>  (144) 
0.219

>  <ROCS_ColorTanimoto>  (144) 
0.106

$$$$
Z80555953
     RDKit          3D

 28 30  0  0  0  0  0  0  0  0999 V2000
   29.5877   14.3697   10.4874 C   0  0  0  0  0  0  0  0  0  0  0  0
   29.6075   13.7764    9.0885 C   0  0  0  0  0  0  0  0  0  0  0  0
   30.9305   13.1832    8.9155 O   0  0  0  0  0  0  0  0  0  0  0  0
   31.9037   14.0950    9.0025 C   0  0  0  0  0  0  0  0  0  0  0  0
   31.7051   15.3241    9.7278 O   0  0  0  0  0  0  0  0  0  0  0  0
   33.2400   13.8149    8.3031 C   0  0  0  0  0  0  0  0  0  0  0  0
   34.5554   14.2540    9.2998 S   0  0  0  0  0  0  0  0  0  0  0  0
   35.7614   13.8017    8.2252 C   0  0  0  0  0  0  0  0  0  0  0  0
   37.0655   13.9177    8.6047 N   0  0  0  0  0  0  0  0  0  0  0  0
   35.1497   13.2680    6.9093 C   0  0  0  0  0  0  0  0  0  0  0  0
   35.9803   12.7781    5.7450 C   0  0  0  0  0  0  0  0  0  0  0  0
   36.7415   12.2901    4.7438 N   0  0  0  0  0  0  0  0  0  0  0  0
   33.6370   13.2825    7.0402 C   0  0  0  0  0  0  0  0  0  0  0  0
   32.8158   12.7155    5.8369 C   0  0  0  0  0  0  0  0  0  0  0  0
   32.4249   11.4758    6.3160 N   0  0  0  0  0  0  0  0  0  0  0  0
   33.0774   10.1896    6.2183 C   0  0  0  0  0  0  0  0  0  0  0  0
   34.5104   10.0004    5.3405 Cl  0  0  0  0  0  0  0  0  0  0  0  0
   32.4415    9.2444    6.8680 N   0  0  0  0  0  0  0  0  0  0  0  0
   31.3752    9.8679    7.3620 C   0  0  0  0  0  0  0  0  0  0  0  0
   31.3029   11.2051    7.0025 C   0  0  0  0  0  0  0  0  0  0  0  0
   30.1385   12.0451    7.3810 C   0  0  0  0  0  0  0  0  0  0  0  0
   30.0714   13.2209    7.0471 O   0  0  0  0  0  0  0  0  0  0  0  0
   29.1408   11.3316    8.0430 N   0  0  0  0  0  0  0  0  0  0  0  0
   27.8166   11.8348    7.7435 C   0  0  0  0  0  0  0  0  0  0  0  0
   29.2340    9.9320    8.2709 C   0  0  0  0  0  0  0  0  0  0  0  0
   28.3267    9.2001    8.4937 O   0  0  0  0  0  0  0  0  0  0  0  0
   30.4234    9.3273    8.1385 N   0  0  0  0  0  0  0  0  0  0  0  0
   30.5008    7.9687    8.4992 C   0  0  0  0  0  0  0  0  0  0  0  0
  1  2  1  0
  2  3  1  0
  3  4  1  0
  4  5  2  0
  4  6  1  0
  6  7  1  0
  7  8  1  0
  8  9  1  0
  8 10  2  0
 10 11  1  0
 11 12  3  0
 10 13  1  0
 13 14  1  0
 14 15  1  0
 15 16  1  0
 16 17  1  0
 16 18  2  0
 18 19  1  0
 19 20  2  0
 20 21  1  0
 21 22  2  0
 21 23  1  0
 23 24  1  0
 23 25  1  0
 25 26  2  0
 25 27  1  0
 27 28  1  0
 13  6  2  0
 20 15  1  0
 27 19  1  0
A    1
 C1 
A    2
 C2 
A    3
 O1 
A    4
 C3 
A    5
 O2 
A    6
 C4 
A    7
 S1 
A    8
 C5 
A    9
 N1 
A   10
 C6 
A   11
 C7 
A   12
 N2 
A   13
 C8 
A   14
 C9 
A   15
 N3 
A   16
 C10
A   17
CL1 
A   18
 N4 
A   19
 C11
A   20
 C12
A   21
 C13
A   22
 O3 
A   23
 N5 
A   24
 C14
A   25
 C15
A   26
 O4 
A   27
 N6 
A   28
 C16
M  END
>  <ref_pdb>  (145) 
Ax0310a

>  <ref_mols>  (145) 
Ax0446a,Ax1080a,Ax0812a,Ax0719a,Ax1140a,Ax0528a,Ax0310a

>  <original SMILES>  (145) 
CCOC(=O)c1sc(N)c(C#N)c1Cn1c(Cl)nc2c1c(=O)n(C)c(=O)n2C

>  <rationale>  (145) 
info info set:screening_whole;hbond:S87+C110+E85; hydroph_interaction:Y90; 

>  <experiment>  (145) 
screening_whole

>  <cluster_label>  (145) 
16

>  <cluster_rank>  (145) 
11

>  <N_interactions>  (145) 
4

>  <∆∆G>  (145) 
-2.342246

>  <comRMSD>  (145) 
0.996702

>  <ROCS_TanimotoCombo>  (145) 
0.475

>  <ROCS_ShapeTanimoto>  (145) 
0.262

>  <ROCS_ColorTanimoto>  (145) 
0.213

$$$$
Z7626709882
     RDKit          3D

 19 21  0  0  0  0  0  0  0  0999 V2000
   28.4048   14.2201    5.4277 C   0  0  0  0  0  0  0  0  0  0  0  0
   28.6895   14.7349    6.7998 C   0  0  0  0  0  0  0  0  0  0  0  0
   28.3719   15.8373    7.2225 O   0  0  0  0  0  0  0  0  0  0  0  0
   29.4466   13.8887    7.6872 C   0  0  0  0  0  0  0  0  0  0  0  0
   28.8972   12.7523    8.2314 C   0  0  0  0  0  0  0  0  0  0  0  0
   30.2560   12.2418    8.1326 N   0  0  0  0  0  0  0  0  0  0  0  0
   30.6656   10.9809    8.2890 C   0  0  0  0  0  0  0  0  0  0  0  0
   30.2442   10.1634    9.0736 O   0  0  0  0  0  0  0  0  0  0  0  0
   31.6548   10.5848    7.4653 C   0  0  0  0  0  0  0  0  0  0  0  0
   31.6802    9.2196    7.2802 C   0  0  0  0  0  0  0  0  0  0  0  0
   32.5409    8.5356    6.5188 N   0  0  0  0  0  0  0  0  0  0  0  0
   33.4322    9.2670    5.8814 C   0  0  0  0  0  0  0  0  0  0  0  0
   34.4159    8.8271    5.0255 N   0  0  0  0  0  0  0  0  0  0  0  0
   35.1801    9.9023    4.5362 C   0  0  0  0  0  0  0  0  0  0  0  0
   34.6524   11.0406    5.1128 C   0  0  0  0  0  0  0  0  0  0  0  0
   33.5233   10.5818    5.9719 C   0  0  0  0  0  0  0  0  0  0  0  0
   32.6117   11.4142    6.8195 C   0  0  0  0  0  0  0  0  0  0  0  0
   32.8246   12.9420    6.8695 C   0  0  0  0  0  0  0  0  0  0  0  0
   30.3984   12.9834    6.9271 C   0  0  0  0  0  0  0  0  0  0  0  0
  1  2  1  0
  2  3  2  0
  2  4  1  0
  4  5  1  0
  5  6  1  0
  6  7  1  0
  7  8  2  0
  7  9  1  0
  9 10  2  0
 10 11  1  0
 11 12  2  0
 12 13  1  0
 13 14  1  0
 14 15  2  0
 15 16  1  0
 16 17  2  0
 17 18  1  0
  6 19  1  0
 19  4  1  0
 17  9  1  0
 16 12  1  0
A    1
 C1 
A    2
 C2 
A    3
 O1 
A    4
 C3 
A    5
 C4 
A    6
 N1 
A    7
 C5 
A    8
 O2 
A    9
 C6 
A   10
 C7 
A   11
 N2 
A   12
 C8 
A   13
 N3 
A   14
 C9 
A   15
 C10
A   16
 C11
A   17
 C12
A   18
 C13
A   19
 C14
M  END
>  <ref_pdb>  (146) 
Ax0310a

>  <ref_mols>  (146) 
Ax0446a,Ax1080a,Ax0812a,Ax0719a,Ax1140a,Ax0528a,Ax0310a

>  <original SMILES>  (146) 
CC(=O)C1CN(C(=O)c2cnc3[nH]ccc3c2C)C1

>  <rationale>  (146) 
info info set:screening_pocket;hydroph_interaction:Y89+E88; 

>  <experiment>  (146) 
screening_pocket

>  <cluster_label>  (146) 
12

>  <cluster_rank>  (146) 
11

>  <N_interactions>  (146) 
2

>  <∆∆G>  (146) 
-3.180208

>  <comRMSD>  (146) 
0.573439

>  <ROCS_TanimotoCombo>  (146) 
0.667

>  <ROCS_ShapeTanimoto>  (146) 
0.262

>  <ROCS_ColorTanimoto>  (146) 
0.405

$$$$
EN300_116428
     RDKit          3D

 16 17  0  0  0  0  0  0  0  0999 V2000
   34.9489    8.1949    5.3318 N   0  0  0  0  0  0  0  0  0  0  0  0
   34.6486    9.4936    5.2266 C   0  0  0  0  0  0  0  0  0  0  0  0
   35.6331   10.4090    4.7900 O   0  0  0  0  0  0  0  0  0  0  0  0
   33.2441    9.9168    5.5782 C   0  0  2  0  0  0  0  0  0  0  0  0
   33.4442   11.3553    5.8976 C   0  0  0  0  0  0  0  0  0  0  0  0
   32.2928   11.5598    6.7853 C   0  0  0  0  0  0  0  0  0  0  0  0
   31.6223   12.8097    7.1929 C   0  0  0  0  0  0  0  0  0  0  0  0
   30.5390   12.7036    8.0180 C   0  0  0  0  0  0  0  0  0  0  0  0
   29.7292   14.2021    8.5282 S   0  0  0  0  0  6  0  0  0  0  0  0
   28.6322   13.8524    9.7346 N   0  0  0  0  0  0  0  0  0  0  0  0
   28.9232   14.6778    7.4336 O   0  0  0  0  0  0  0  0  0  0  0  0
   30.7287   15.0200    9.1788 O   0  0  0  0  0  0  0  0  0  0  0  0
   30.1364   11.4371    8.4057 C   0  0  0  0  0  0  0  0  0  0  0  0
   30.7765   10.2366    8.0466 C   0  0  0  0  0  0  0  0  0  0  0  0
   31.8753   10.3272    7.2234 C   0  0  0  0  0  0  0  0  0  0  0  0
   32.6596    9.2897    6.7500 O   0  0  0  0  0  0  0  0  0  0  0  0
  1  2  1  0
  2  3  2  0
  4  2  1  1
  4  5  1  0
  5  6  1  0
  6  7  2  0
  7  8  1  0
  8  9  1  0
  9 10  1  0
  9 11  2  0
  9 12  2  0
  8 13  2  0
 13 14  1  0
 14 15  2  0
 15 16  1  0
 16  4  1  0
 15  6  1  0
A    1
 N1 
A    2
 C1 
A    3
 O1 
A    4
 C2 
A    5
 C3 
A    6
 C4 
A    7
 C5 
A    8
 C6 
A    9
 S1 
A   10
 N2 
A   11
 O2 
A   12
 O3 
A   13
 C7 
A   14
 C8 
A   15
 C9 
A   16
 O4 
M  END
>  <ref_pdb>  (147) 
Ax0310a

>  <ref_mols>  (147) 
Ax0446a,Ax1080a,Ax0812a,Ax0719a,Ax1140a,Ax0528a,Ax0310a

>  <original SMILES>  (147) 
NC(=O)[C@@H]1Cc2cc(S(N)(=O)=O)ccc2O1

>  <rationale>  (147) 
info info set:sulfonimide_whole;hbond:S87+S105+H21; 

>  <experiment>  (147) 
sulfonimide_whole

>  <cluster_label>  (147) 
7

>  <cluster_rank>  (147) 
11

>  <N_interactions>  (147) 
3

>  <∆∆G>  (147) 
-3.431085

>  <comRMSD>  (147) 
0.944627

>  <ROCS_TanimotoCombo>  (147) 
0.348

>  <ROCS_ShapeTanimoto>  (147) 
0.2

>  <ROCS_ColorTanimoto>  (147) 
0.148

$$$$
Z2863954082
     RDKit          3D

 22 25  0  0  0  0  0  0  0  0999 V2000
   27.7350   13.7174    9.1836 C   0  0  0  0  0  0  0  0  0  0  0  0
   28.0725   13.6333    7.7156 C   0  0  0  0  0  0  0  0  0  0  0  0
   27.0382   13.0572    6.7536 C   0  0  0  0  0  0  0  0  0  0  0  0
   28.1170   15.0696    7.3166 C   0  0  0  0  0  0  0  0  0  0  0  0
   28.7362   15.6479    8.6124 C   0  0  0  0  0  0  0  0  0  0  0  0
   30.0078   14.8410    8.7579 C   0  0  0  0  0  0  0  0  0  0  0  0
   31.2503   15.0771    9.5340 N   0  0  0  0  0  0  0  0  0  0  0  0
   32.0859   14.0326    9.2942 N   0  0  0  0  0  0  0  0  0  0  0  0
   31.3321   13.2178    8.4094 C   0  0  0  0  0  0  0  0  0  0  0  0
   31.7063   11.8981    7.8151 C   0  0  0  0  0  0  0  0  0  0  0  0
   30.9010   10.9870    8.2755 N   0  0  0  0  0  0  0  0  0  0  0  0
   30.9962    9.7405    7.8568 N   0  0  0  0  0  0  0  0  0  0  0  0
   32.0458    9.3052    7.1556 C   0  0  0  0  0  0  0  0  0  0  0  0
   32.3374    8.0060    7.1376 O   0  0  0  0  0  0  0  0  0  0  0  0
   32.9198   10.3298    6.4453 C   0  0  0  0  0  0  0  0  0  0  0  0
   33.8616    9.9422    5.4897 C   0  0  0  0  0  0  0  0  0  0  0  0
   34.6502   10.9101    4.8745 C   0  0  0  0  0  0  0  0  0  0  0  0
   34.5647   12.2780    5.1501 C   0  0  0  0  0  0  0  0  0  0  0  0
   33.6351   12.6988    6.0951 C   0  0  0  0  0  0  0  0  0  0  0  0
   32.7454   11.6514    6.7956 C   0  0  0  0  0  0  0  0  0  0  0  0
   30.1656   13.7071    8.1200 N   0  0  0  0  0  0  0  0  0  0  0  0
   29.2122   13.1317    7.2798 C   0  0  0  0  0  0  0  0  0  0  0  0
  1  2  1  0
  2  3  1  0
  2  4  1  0
  4  5  1  0
  5  6  1  0
  6  7  2  0
  7  8  1  0
  8  9  2  0
  9 10  1  0
 10 11  2  0
 11 12  1  0
 12 13  1  0
 13 14  2  0
 13 15  1  0
 15 16  2  0
 16 17  1  0
 17 18  2  0
 18 19  1  0
 19 20  2  0
  9 21  1  0
 21 22  1  0
 22  2  1  0
 21  6  1  0
 20 10  1  0
 20 15  1  0
A    1
 C1 
A    2
 C2 
A    3
 C3 
A    4
 C4 
A    5
 C5 
A    6
 C6 
A    7
 N1 
A    8
 N2 
A    9
 C7 
A   10
 C8 
A   11
 N3 
A   12
 N4 
A   13
 C9 
A   14
 O1 
A   15
 C10
A   16
 C11
A   17
 C12
A   18
 C13
A   19
 C14
A   20
 C15
A   21
 N5 
A   22
 C16
M  END
>  <ref_pdb>  (148) 
Ax0310a

>  <ref_mols>  (148) 
Ax0446a,Ax1080a,Ax0812a,Ax0719a,Ax1140a,Ax0528a,Ax0310a

>  <original SMILES>  (148) 
CC1(C)CCc2nnc(-c3n[nH]c(=O)c4ccccc34)n2C1

>  <rationale>  (148) 
info info set:screening_whole;hbond:S87+E106; hydroph_interaction:Y89+Y90; 

>  <experiment>  (148) 
screening_whole

>  <cluster_label>  (148) 
6

>  <cluster_rank>  (148) 
11

>  <N_interactions>  (148) 
4

>  <∆∆G>  (148) 
-5.224636

>  <comRMSD>  (148) 
0.475461

>  <ROCS_TanimotoCombo>  (148) 
0.455

>  <ROCS_ShapeTanimoto>  (148) 
0.255

>  <ROCS_ColorTanimoto>  (148) 
0.201

$$$$
EN300_202469
     RDKit          3D

 11 11  0  0  0  0  0  0  0  0999 V2000
   34.8015   14.6586    7.7850 N   0  0  0  0  0  0  0  0  0  0  0  0
   33.4513   13.7919    8.3239 S   0  0  0  0  0  6  0  0  0  0  0  0
   32.6539   14.6817    9.1372 O   0  0  0  0  0  0  0  0  0  0  0  0
   34.0500   12.6684    8.9130 O   0  0  0  0  0  0  0  0  0  0  0  0
   32.6906   13.3838    6.7476 C   0  0  0  0  0  0  0  0  0  0  0  0
   33.0267   12.0325    6.1312 C   0  0  0  0  0  0  0  0  0  0  0  0
   32.2947   10.9716    6.7817 N   0  0  0  0  0  0  0  0  0  0  0  0
   31.2231   11.1101    7.6137 C   0  0  0  0  0  0  0  0  0  0  0  0
   30.9173    9.6687    7.9752 C   0  0  0  0  0  0  0  0  0  0  0  0
   31.8256    8.8952    7.3168 N   0  0  0  0  0  0  0  0  0  0  0  0
   32.6410    9.6831    6.6055 N   0  0  0  0  0  0  0  0  0  0  0  0
  1  2  1  0
  2  3  2  0
  2  4  2  0
  2  5  1  0
  5  6  1  0
  6  7  1  0
  7  8  1  0
  8  9  2  0
  9 10  1  0
 10 11  2  0
 11  7  1  0
A    1
 N1 
A    2
 S1 
A    3
 O1 
A    4
 O2 
A    5
 C1 
A    6
 C2 
A    7
 N2 
A    8
 C3 
A    9
 C4 
A   10
 N3 
A   11
 N4 
M  END
>  <ref_pdb>  (149) 
Ax0310a

>  <ref_mols>  (149) 
Ax0446a,Ax1080a,Ax0812a,Ax0719a,Ax1140a,Ax0528a,Ax0310a

>  <original SMILES>  (149) 
NS(=O)(=O)CCn1ccnn1

>  <rationale>  (149) 
info info set:sulfonimide_whole;hbond:S87+G127+A86; 

>  <experiment>  (149) 
sulfonimide_whole

>  <cluster_label>  (149) 
5

>  <cluster_rank>  (149) 
11

>  <N_interactions>  (149) 
3

>  <∆∆G>  (149) 
-4.156942

>  <comRMSD>  (149) 
0.47196

>  <ROCS_TanimotoCombo>  (149) 
0.353

>  <ROCS_ShapeTanimoto>  (149) 
0.168

>  <ROCS_ColorTanimoto>  (149) 
0.184

$$$$
Z240414020
     RDKit          3D

 25 27  0  0  0  0  0  0  0  0999 V2000
   25.9800   13.2399    6.8227 C   0  0  0  0  0  0  0  0  0  0  0  0
   27.1672   13.7732    7.5701 C   0  0  0  0  0  0  0  0  0  0  0  0
   27.1492   15.0060    8.1512 C   0  0  0  0  0  0  0  0  0  0  0  0
   28.2356   15.5685    8.8211 C   0  0  0  0  0  0  0  0  0  0  0  0
   29.3961   14.8159    8.9217 C   0  0  0  0  0  0  0  0  0  0  0  0
   30.6588   15.2142    9.5721 N   0  0  0  0  0  4  0  0  0  0  0  0
   31.5875   14.4008    9.4249 O   0  0  0  0  0  0  0  0  0  0  0  0
   30.8726   16.3927    9.8478 O   0  0  0  0  0  1  0  0  0  0  0  0
   29.3843   13.5898    8.3640 C   0  0  0  0  0  0  0  0  0  0  0  0
   30.4830   12.8420    8.4466 O   0  0  0  0  0  0  0  0  0  0  0  0
   30.7380   12.5635    7.1722 C   0  0  0  0  0  0  0  0  0  0  0  0
   30.5368   13.2518    6.1868 O   0  0  0  0  0  0  0  0  0  0  0  0
   31.2756   11.2621    7.1678 C   0  0  0  0  0  0  0  0  0  0  0  0
   30.6985   10.2579    7.8970 C   0  0  0  0  0  0  0  0  0  0  0  0
   31.2366    9.0205    7.8341 C   0  0  0  0  0  0  0  0  0  0  0  0
   30.5468    8.0067    8.6749 C   0  0  0  0  0  0  0  0  0  0  0  0
   32.3187    8.7079    7.0730 N   0  0  0  0  0  0  0  0  0  0  0  0
   32.8418    9.7721    6.3903 C   0  0  0  0  0  0  0  0  0  0  0  0
   32.3714   11.0508    6.4162 C   0  0  0  0  0  0  0  0  0  0  0  0
   33.2105   11.8225    5.6009 C   0  0  0  0  0  0  0  0  0  0  0  0
   33.1343   13.2777    5.3069 C   0  0  0  0  0  0  0  0  0  0  0  0
   34.1679   11.0884    5.0589 N   0  0  0  0  0  0  0  0  0  0  0  0
   33.9163    9.8527    5.5376 N   0  0  0  0  0  0  0  0  0  0  0  0
   34.7757    8.8171    5.0981 C   0  0  0  0  0  0  0  0  0  0  0  0
   28.3086   13.0469    7.6871 C   0  0  0  0  0  0  0  0  0  0  0  0
  1  2  1  0
  2  3  2  0
  3  4  1  0
  4  5  2  0
  5  6  1  0
  6  7  2  0
  6  8  1  0
  5  9  1  0
  9 10  1  0
 10 11  1  0
 11 12  2  0
 11 13  1  0
 13 14  2  0
 14 15  1  0
 15 16  1  0
 15 17  2  0
 17 18  1  0
 18 19  2  0
 19 20  1  0
 20 21  1  0
 20 22  2  0
 22 23  1  0
 23 24  1  0
  9 25  2  0
 25  2  1  0
 19 13  1  0
 23 18  1  0
M  CHG  2   6   1   8  -1
A    1
 C1 
A    2
 C2 
A    3
 C3 
A    4
 C4 
A    5
 C5 
A    6
 N1 
A    7
 O1 
A    8
 O2 
A    9
 C6 
A   10
 O3 
A   11
 C7 
A   12
 O4 
A   13
 C8 
A   14
 C9 
A   15
 C10
A   16
 C11
A   17
 N2 
A   18
 C12
A   19
 C13
A   20
 C14
A   21
 C15
A   22
 N3 
A   23
 N4 
A   24
 C16
A   25
 C17
M  END
>  <ref_pdb>  (150) 
Ax0310a

>  <ref_mols>  (150) 
Ax0446a,Ax1080a,Ax0812a,Ax0719a,Ax1140a,Ax0528a,Ax0310a

>  <original SMILES>  (150) 
Cc1ccc([N+](=O)[O-])c(OC(=O)c2cc(C)nc3c2c(C)nn3C)c1

>  <rationale>  (150) 
info info set:screening_whole;hydroph_interaction:P107+Y89+Y90+V124+H21; pistack:H21; 

>  <experiment>  (150) 
screening_whole

>  <cluster_label>  (150) 
9

>  <cluster_rank>  (150) 
11

>  <N_interactions>  (150) 
7

>  <∆∆G>  (150) 
-8.536194

>  <comRMSD>  (150) 
0.919103

>  <ROCS_TanimotoCombo>  (150) 
0.462

>  <ROCS_ShapeTanimoto>  (150) 
0.276

>  <ROCS_ColorTanimoto>  (150) 
0.186

$$$$
EN300_801059
     RDKit          3D

 17 18  0  0  0  0  0  0  0  0999 V2000
   29.2292    7.6142    8.5567 C   0  0  0  0  0  0  0  0  0  0  0  0
   29.9881    8.6363    9.1225 C   0  0  0  0  0  0  0  0  0  0  0  0
   29.9836    7.9498   10.3950 C   0  0  0  0  0  0  0  0  0  0  0  0
   29.1245    9.8512    8.9590 C   0  0  0  0  0  0  0  0  0  0  0  0
   31.2793    8.5438    8.3731 C   0  0  0  0  0  0  0  0  0  0  0  0
   31.7150    9.6657    7.4236 C   0  0  0  0  0  0  0  0  0  0  0  0
   32.5880    9.1233    6.5701 N   0  0  0  0  0  0  0  0  0  0  0  0
   33.1126    9.8229    5.6003 C   0  0  0  0  0  0  0  0  0  0  0  0
   34.0869    9.0873    4.6651 C   0  0  0  0  0  0  0  0  0  0  0  0
   34.7045    9.8290    3.4858 C   0  0  0  0  0  0  0  0  0  0  0  0
   34.3139   11.2842    3.3197 C   0  0  0  0  0  0  0  0  0  0  0  0
   34.9676   12.1558    1.9985 Cl  0  0  0  0  0  0  0  0  0  0  0  0
   33.3607   11.9679    4.2956 C   0  0  0  0  0  0  0  0  0  0  0  0
   32.7750   11.1675    5.4414 C   0  0  0  0  0  0  0  0  0  0  0  0
   31.8834   11.7526    6.3529 C   0  0  0  0  0  0  0  0  0  0  0  0
   31.3280   11.0060    7.3738 C   0  0  0  0  0  0  0  0  0  0  0  0
   30.4613   11.7198    8.1763 O   0  0  0  0  0  0  0  0  0  0  0  0
  1  2  1  0
  2  3  1  0
  2  4  1  0
  2  5  1  0
  5  6  1  0
  6  7  2  0
  7  8  1  0
  8  9  2  0
  9 10  1  0
 10 11  2  0
 11 12  1  0
 11 13  1  0
 13 14  2  0
 14 15  1  0
 15 16  2  0
 16 17  1  0
 16  6  1  0
 14  8  1  0
A    1
 C1 
A    2
 C2 
A    3
 C3 
A    4
 C4 
A    5
 C5 
A    6
 C6 
A    7
 N1 
A    8
 C7 
A    9
 C8 
A   10
 C9 
A   11
 C10
A   12
CL1 
A   13
 C11
A   14
 C12
A   15
 C13
A   16
 C14
A   17
 O1 
M  END
>  <ref_pdb>  (151) 
Ax0310a

>  <ref_mols>  (151) 
Ax0446a,Ax1080a,Ax0812a,Ax0719a,Ax1140a,Ax0528a,Ax0310a

>  <original SMILES>  (151) 
CC(C)(C)Cc1nc2ccc(Cl)cc2cc1O

>  <rationale>  (151) 
info info set:bb_densepocket2;hbond:S125+G127; hydroph_interaction:P107+V124+D109; 

>  <experiment>  (151) 
bb_densepocket2

>  <cluster_label>  (151) 
3

>  <cluster_rank>  (151) 
11

>  <N_interactions>  (151) 
5

>  <∆∆G>  (151) 
-6.207131

>  <comRMSD>  (151) 
0.697287

>  <ROCS_TanimotoCombo>  (151) 
0.646

>  <ROCS_ShapeTanimoto>  (151) 
0.24

>  <ROCS_ColorTanimoto>  (151) 
0.406

$$$$
Z228586844
     RDKit          3D

 18 19  0  0  0  0  0  0  0  0999 V2000
   31.9407   14.1264    9.0287 O   0  0  0  0  0  0  0  0  0  0  0  0
   31.1790   13.3588    8.4445 C   0  0  0  0  0  0  0  0  0  0  0  0
   31.6974   12.1187    7.7167 C   0  0  0  0  0  0  0  0  0  0  0  0
   30.8029   10.9480    8.1318 C   0  0  0  0  0  0  0  0  0  0  0  0
   31.2338    9.6740    7.4957 C   0  0  0  0  0  0  0  0  0  0  0  0
   32.4042    9.6333    6.5624 C   0  0  0  0  0  0  0  0  0  0  0  0
   33.1368   10.7893    6.2550 C   0  0  0  0  0  0  0  0  0  0  0  0
   34.1933   10.5885    5.3630 C   0  0  0  0  0  0  0  0  0  0  0  0
   34.6153    9.2971    5.3000 F   0  0  0  0  0  0  0  0  0  0  0  0
   33.8634   10.9369    4.1036 F   0  0  0  0  0  0  0  0  0  0  0  0
   35.2869   11.3519    5.5989 F   0  0  0  0  0  0  0  0  0  0  0  0
   32.8132   12.0382    6.8150 C   0  0  0  0  0  0  0  0  0  0  0  0
   29.8097   13.5694    8.4220 N   0  0  0  0  0  0  0  0  0  0  0  0
   29.0936   14.4728    9.3505 C   0  0  0  0  0  0  0  0  0  0  0  0
   28.1550   15.3994    8.6050 C   0  0  0  0  0  0  0  0  0  0  0  0
   27.4561   14.7883    7.4598 N   0  0  0  0  0  0  0  0  0  0  0  0
   28.3392   13.9705    6.6339 C   0  0  0  0  0  0  0  0  0  0  0  0
   29.0232   13.0006    7.3350 C   0  0  0  0  0  0  0  0  0  0  0  0
  1  2  2  0
  2  3  1  0
  3  4  2  0
  4  5  1  0
  5  6  2  0
  6  7  1  0
  7  8  1  0
  8  9  1  0
  8 10  1  0
  8 11  1  0
  7 12  2  0
  2 13  1  0
 13 14  1  0
 14 15  1  0
 15 16  1  0
 16 17  1  0
 17 18  1  0
 12  3  1  0
 18 13  1  0
A    1
 O1 
A    2
 C1 
A    3
 C2 
A    4
 C3 
A    5
 C4 
A    6
 C5 
A    7
 C6 
A    8
 C7 
A    9
 F1 
A   10
 F2 
A   11
 F3 
A   12
 C8 
A   13
 N1 
A   14
 C9 
A   15
 C10
A   16
 N2 
A   17
 C11
A   18
 C12
M  END
>  <ref_pdb>  (152) 
Ax0310a

>  <ref_mols>  (152) 
Ax0446a,Ax1080a,Ax0812a,Ax0719a,Ax1140a,Ax0528a,Ax0310a

>  <original SMILES>  (152) 
O=C(c1cccc(C(F)(F)F)c1)N1CCNCC1

>  <rationale>  (152) 
info info set:3d;halogenbond:S105; hbond:S87+E88; 

>  <experiment>  (152) 
3d

>  <cluster_label>  (152) 
8

>  <cluster_rank>  (152) 
11

>  <N_interactions>  (152) 
3

>  <∆∆G>  (152) 
-5.572085

>  <comRMSD>  (152) 
0.64443

>  <ROCS_TanimotoCombo>  (152) 
0.311

>  <ROCS_ShapeTanimoto>  (152) 
0.221

>  <ROCS_ColorTanimoto>  (152) 
0.09

$$$$
EN300_25779148
     RDKit          3D

 20 21  0  0  0  0  0  0  0  0999 V2000
   34.4669   12.6931    5.8934 C   0  0  0  0  0  0  0  0  0  0  0  0
   34.5044   13.5912    7.1261 C   0  0  0  0  0  0  0  0  0  0  0  0
   34.6042   14.9738    6.6559 C   0  0  0  0  0  0  0  0  0  0  0  0
   35.7547   13.4436    7.6953 O   0  0  0  0  0  0  0  0  0  0  0  0
   35.5539   13.2359    9.1151 B   0  0  0  0  0  0  0  0  0  0  0  0
   36.7629   12.7109    9.9718 C   0  0  0  0  0  0  0  0  0  0  0  0
   36.5476   11.8024   11.1035 C   0  0  0  0  0  0  0  0  0  0  0  0
   37.5405   11.3557   11.8827 C   0  0  0  0  0  0  0  0  0  0  0  0
   37.1635   10.5617   12.8876 O   0  0  0  0  0  0  0  0  0  0  0  0
   38.8330   11.7196   11.6234 C   0  0  0  0  0  0  0  0  0  0  0  0
   39.0891   12.5691   10.5256 C   0  0  0  0  0  0  0  0  0  0  0  0
   40.6757   13.0330   10.1290 S   0  0  0  0  0  6  0  0  0  0  0  0
   40.6315   13.7988    8.6445 N   0  0  0  0  0  0  0  0  0  0  0  0
   41.1641   14.0120   11.0633 O   0  0  0  0  0  0  0  0  0  0  0  0
   41.4451   11.8429    9.8468 O   0  0  0  0  0  0  0  0  0  0  0  0
   38.0436   13.0530    9.7291 C   0  0  0  0  0  0  0  0  0  0  0  0
   34.2188   12.6467    9.1600 O   0  0  0  0  0  0  0  0  0  0  0  0
   33.4573   13.1711    8.1708 C   0  0  0  0  0  0  0  0  0  0  0  0
   32.4890   12.1678    7.5687 C   0  0  0  0  0  0  0  0  0  0  0  0
   32.6374   14.1558    8.9442 C   0  0  0  0  0  0  0  0  0  0  0  0
  1  2  1  0
  2  3  1  0
  2  4  1  0
  4  5  1  0
  5  6  1  0
  6  7  2  0
  7  8  1  0
  8  9  1  0
  8 10  2  0
 10 11  1  0
 11 12  1  0
 12 13  1  0
 12 14  2  0
 12 15  2  0
 11 16  2  0
  5 17  1  0
 17 18  1  0
 18 19  1  0
 18 20  1  0
 18  2  1  0
 16  6  1  0
A    1
 C1 
A    2
 C2 
A    3
 C3 
A    4
 O1 
A    5
 B1 
A    6
 C4 
A    7
 C5 
A    8
 C6 
A    9
 O2 
A   10
 C7 
A   11
 C8 
A   12
 S1 
A   13
 N1 
A   14
 O3 
A   15
 O4 
A   16
 C9 
A   17
 O5 
A   18
 C10
A   19
 C11
A   20
 C12
M  END
>  <ref_pdb>  (153) 
Ax0310a

>  <ref_mols>  (153) 
Ax0446a,Ax1080a,Ax0812a,Ax0719a,Ax1140a,Ax0528a,Ax0310a

>  <original SMILES>  (153) 
CC1(C)OB(c2cc(O)cc(S(N)(=O)=O)c2)OC1(C)C

>  <rationale>  (153) 
info info set:sulfonimide_joint;hbond:G127+T126+E85+N129; 

>  <experiment>  (153) 
sulfonimide_joint

>  <cluster_label>  (153) 
17

>  <cluster_rank>  (153) 
12

>  <N_interactions>  (153) 
4

>  <∆∆G>  (153) 
-2.989648

>  <comRMSD>  (153) 
0.698605

>  <ROCS_TanimotoCombo>  (153) 
0.326

>  <ROCS_ShapeTanimoto>  (153) 
0.219

>  <ROCS_ColorTanimoto>  (153) 
0.106

$$$$
EN300_1120885
     RDKit          3D

 12 12  0  0  0  0  0  0  0  0999 V2000
   34.7615   14.6674    7.9262 N   0  0  0  0  0  0  0  0  0  0  0  0
   33.3825   13.7671    8.2730 S   0  0  0  0  0  6  0  0  0  0  0  0
   33.9092   12.6183    8.8654 O   0  0  0  0  0  0  0  0  0  0  0  0
   32.4482   14.5770    9.0335 O   0  0  0  0  0  0  0  0  0  0  0  0
   32.7921   13.4418    6.6001 C   0  0  0  0  0  0  0  0  0  0  0  0
   33.1590   12.0889    6.0329 C   0  0  0  0  0  0  0  0  0  0  0  0
   32.3317   11.0505    6.7181 C   0  0  0  0  0  0  0  0  0  0  0  0
   32.6747    9.7017    6.6180 C   0  0  0  0  0  0  0  0  0  0  0  0
   31.9638    8.7264    7.2413 N   0  0  0  0  0  0  0  0  0  0  0  0
   30.9048    9.1524    7.9505 C   0  0  0  0  0  0  0  0  0  0  0  0
   30.5636   10.4943    8.0418 C   0  0  0  0  0  0  0  0  0  0  0  0
   31.2651   11.4601    7.4305 N   0  0  0  0  0  0  0  0  0  0  0  0
  1  2  1  0
  2  3  2  0
  2  4  2  0
  2  5  1  0
  5  6  1  0
  6  7  1  0
  7  8  2  0
  8  9  1  0
  9 10  2  0
 10 11  1  0
 11 12  2  0
 12  7  1  0
A    1
 N1 
A    2
 S1 
A    3
 O1 
A    4
 O2 
A    5
 C1 
A    6
 C2 
A    7
 C3 
A    8
 C4 
A    9
 N2 
A   10
 C5 
A   11
 C6 
A   12
 N3 
M  END
>  <ref_pdb>  (154) 
Ax0310a

>  <ref_mols>  (154) 
Ax0446a,Ax1080a,Ax0812a,Ax0719a,Ax1140a,Ax0528a,Ax0310a

>  <original SMILES>  (154) 
NS(=O)(=O)CCc1cnccn1

>  <rationale>  (154) 
info info set:sulfonimide_whole;hbond:S87+G127+A86; 

>  <experiment>  (154) 
sulfonimide_whole

>  <cluster_label>  (154) 
5

>  <cluster_rank>  (154) 
12

>  <N_interactions>  (154) 
3

>  <∆∆G>  (154) 
-4.227913

>  <comRMSD>  (154) 
0.581051

>  <ROCS_TanimotoCombo>  (154) 
0.357

>  <ROCS_ShapeTanimoto>  (154) 
0.181

>  <ROCS_ColorTanimoto>  (154) 
0.176

$$$$
Z4868845622
     RDKit          3D

 11 12  0  0  0  0  0  0  0  0999 V2000
   33.6787   13.9021    8.6507 C   0  0  0  0  0  0  0  0  0  0  0  0
   32.5625   13.0583    8.2717 N   0  0  0  0  0  0  0  0  0  0  0  0
   32.8127   12.1636    7.2806 C   0  0  0  0  0  0  0  0  0  0  0  0
   31.6255   11.3569    7.0302 C   0  0  0  0  0  0  0  0  0  0  0  0
   32.1837   10.2471    6.2776 C   0  0  0  0  0  0  0  0  0  0  0  0
   31.5674    9.3977    7.3558 N   0  0  0  0  0  0  0  0  0  0  0  0
   30.9774   10.4242    8.0159 C   0  0  0  0  0  0  0  0  0  0  0  0
   30.6791   12.3079    6.5573 O   0  0  0  0  0  0  0  0  0  0  0  0
   30.2900   13.0662    7.4831 C   0  0  0  0  0  0  0  0  0  0  0  0
   31.2175   13.6432    8.3109 C   0  0  0  0  0  0  0  0  0  0  0  0
   30.9412   14.6031    9.0326 O   0  0  0  0  0  0  0  0  0  0  0  0
  1  2  1  0
  2  3  1  0
  3  4  1  0
  4  5  1  0
  5  6  1  0
  6  7  1  0
  4  8  1  0
  8  9  1  0
  9 10  1  0
 10 11  2  0
 10  2  1  0
  7  4  1  0
A    1
 C1 
A    2
 N1 
A    3
 C2 
A    4
 C3 
A    5
 C4 
A    6
 N2 
A    7
 C5 
A    8
 O1 
A    9
 C6 
A   10
 C7 
A   11
 O2 
M  END
>  <ref_pdb>  (155) 
Ax0310a

>  <ref_mols>  (155) 
Ax0446a,Ax1080a,Ax0812a,Ax0719a,Ax1140a,Ax0528a,Ax0310a

>  <original SMILES>  (155) 
CN1CC2(CNC2)OCC1=O

>  <rationale>  (155) 
info info set:3d;hbond:S87+E106; 

>  <experiment>  (155) 
3d

>  <cluster_label>  (155) 
6

>  <cluster_rank>  (155) 
12

>  <N_interactions>  (155) 
2

>  <∆∆G>  (155) 
-2.18032

>  <comRMSD>  (155) 
0.511032

>  <ROCS_TanimotoCombo>  (155) 
0.301

>  <ROCS_ShapeTanimoto>  (155) 
0.166

>  <ROCS_ColorTanimoto>  (155) 
0.135

$$$$
Z6032156359
     RDKit          3D

 26 29  0  0  0  0  0  0  0  0999 V2000
   28.5915   15.6402    6.9871 N   0  0  0  0  0  0  0  0  0  0  0  0
   27.8099   14.6786    7.6774 C   0  0  0  0  0  0  0  0  0  0  0  0
   27.9289   13.3550    7.0474 C   0  0  2  0  0  0  0  0  0  0  0  0
   26.7796   13.0293    6.0877 C   0  0  0  0  0  0  0  0  0  0  0  0
   27.2131   13.5924    4.7131 C   0  0  0  0  0  0  0  0  0  0  0  0
   26.2777   13.3825    3.5155 C   0  0  0  0  0  0  0  0  0  0  0  0
   24.9114   12.5835    3.8199 C   0  0  0  0  0  0  0  0  0  0  0  0
   24.0177   12.3256    2.8629 F   0  0  0  0  0  0  0  0  0  0  0  0
   24.6360   12.1116    5.2727 C   0  0  0  0  0  0  0  0  0  0  0  0
   25.6567   12.4020    6.3561 C   0  0  0  0  0  0  0  0  0  0  0  0
   25.5471   12.0778    7.6312 F   0  0  0  0  0  0  0  0  0  0  0  0
   28.0285   12.2726    8.1883 C   0  0  0  0  0  0  0  0  0  0  0  0
   29.5447   12.4444    8.1859 C   0  0  1  0  0  0  0  0  0  0  0  0
   30.2453   11.2635    8.3883 N   0  0  0  0  0  0  0  0  0  0  0  0
   31.2521   10.7454    7.5692 C   0  0  0  0  0  0  0  0  0  0  0  0
   32.1274   11.5241    6.7860 C   0  0  0  0  0  0  0  0  0  0  0  0
   33.1563   10.9201    5.9387 C   0  0  0  0  0  0  0  0  0  0  0  0
   33.2355    9.5343    5.9388 C   0  0  0  0  0  0  0  0  0  0  0  0
   34.1759    8.8644    5.1498 N   0  0  0  0  0  0  0  0  0  0  0  0
   35.2368    9.4082    4.3579 C   0  0  0  0  0  0  0  0  0  0  0  0
   34.8669    9.7582    3.1096 C   0  0  0  0  0  0  0  0  0  0  0  0
   35.7586    8.9308    2.2886 C   0  0  0  0  0  0  0  0  0  0  0  0
   36.0498    8.3122    3.5412 C   0  0  0  0  0  0  0  0  0  0  0  0
   32.3969    8.7714    6.7055 N   0  0  0  0  0  0  0  0  0  0  0  0
   31.4573    9.3750    7.4739 C   0  0  0  0  0  0  0  0  0  0  0  0
   29.3615   12.7969    6.7049 C   0  0  0  0  0  0  0  0  0  0  0  0
  1  2  3  0
  3  2  1  1
  3  4  1  0
  4  5  2  0
  5  6  1  0
  6  7  2  0
  7  8  1  0
  7  9  1  0
  9 10  2  0
 10 11  1  0
  3 12  1  0
 12 13  1  0
 13 14  1  6
 14 15  1  0
 15 16  2  0
 16 17  1  0
 17 18  2  0
 18 19  1  0
 19 20  1  0
 20 21  1  0
 21 22  1  0
 22 23  1  0
 18 24  1  0
 24 25  2  0
 13 26  1  0
 26  3  1  0
 10  4  1  0
 25 15  1  0
 23 20  1  0
A    1
 N1 
A    2
 C1 
A    3
 C2 
A    4
 C3 
A    5
 C4 
A    6
 C5 
A    7
 C6 
A    8
 F1 
A    9
 C7 
A   10
 C8 
A   11
 F2 
A   12
 C9 
A   13
 C10
A   14
 N2 
A   15
 C11
A   16
 C12
A   17
 C13
A   18
 C14
A   19
 N3 
A   20
 C15
A   21
 C16
A   22
 C17
A   23
 C18
A   24
 N4 
A   25
 C19
A   26
 C20
M  END
>  <ref_pdb>  (156) 
Ax0310a

>  <ref_mols>  (156) 
Ax0446a,Ax1080a,Ax0812a,Ax0719a,Ax1140a,Ax0528a,Ax0310a

>  <original SMILES>  (156) 
N#C[C@]1(c2ccc(F)cc2F)C[C@@H](Nc2ccc(NC3CCC3)nc2)C1

>  <rationale>  (156) 
info info set:screening_pocket;hbond:S105+S125+E88; hydroph_interaction:P107+Y89+L22; 

>  <experiment>  (156) 
screening_pocket

>  <cluster_label>  (156) 
16

>  <cluster_rank>  (156) 
12

>  <N_interactions>  (156) 
6

>  <∆∆G>  (156) 
-3.572544

>  <comRMSD>  (156) 
0.512366

>  <ROCS_TanimotoCombo>  (156) 
0.624

>  <ROCS_ShapeTanimoto>  (156) 
0.235

>  <ROCS_ColorTanimoto>  (156) 
0.389

$$$$
Z420000170
     RDKit          3D

 17 18  0  0  0  0  0  0  0  0999 V2000
   29.2417   14.2213    5.2981 C   0  0  0  0  0  0  0  0  0  0  0  0
   28.9526   14.3457    6.8037 C   0  0  0  0  0  0  0  0  0  0  0  0
   28.3205   15.5006    7.3623 N   0  0  0  0  0  0  0  0  0  0  0  0
   28.1014   15.4185    8.7024 C   0  0  0  0  0  0  0  0  0  0  0  0
   28.6899   13.9117    9.4771 S   0  0  0  0  0  0  0  0  0  0  0  0
   29.2327   13.4064    7.8810 C   0  0  0  0  0  0  0  0  0  0  0  0
   29.9272   12.2080    7.4081 C   0  0  0  0  0  0  0  0  0  0  0  0
   30.3320   12.0981    6.2669 O   0  0  0  0  0  0  0  0  0  0  0  0
   30.1231   11.2293    8.3060 N   0  0  0  0  0  0  0  0  0  0  0  0
   31.1352   10.3016    7.9770 C   0  0  0  0  0  0  0  0  0  0  0  0
   32.2618   11.0946    7.3437 C   0  0  0  0  0  0  0  0  0  0  0  0
   32.5846   12.4087    7.6340 C   0  0  0  0  0  0  0  0  0  0  0  0
   33.6373   13.0946    7.0129 C   0  0  0  0  0  0  0  0  0  0  0  0
   34.4035   12.4429    6.0459 C   0  0  0  0  0  0  0  0  0  0  0  0
   34.1079   11.1314    5.7427 C   0  0  0  0  0  0  0  0  0  0  0  0
   33.0647   10.5176    6.4056 C   0  0  0  0  0  0  0  0  0  0  0  0
   32.7720    8.9507    6.0538 Cl  0  0  0  0  0  0  0  0  0  0  0  0
  1  2  1  0
  2  3  1  0
  3  4  2  0
  4  5  1  0
  5  6  1  0
  6  7  1  0
  7  8  2  0
  7  9  1  0
  9 10  1  0
 10 11  1  0
 11 12  2  0
 12 13  1  0
 13 14  2  0
 14 15  1  0
 15 16  2  0
 16 17  1  0
  6  2  2  0
 16 11  1  0
A    1
 C1 
A    2
 C2 
A    3
 N1 
A    4
 C3 
A    5
 S1 
A    6
 C4 
A    7
 C5 
A    8
 O1 
A    9
 N2 
A   10
 C6 
A   11
 C7 
A   12
 C8 
A   13
 C9 
A   14
 C10
A   15
 C11
A   16
 C12
A   17
CL1 
M  END
>  <ref_pdb>  (157) 
Ax0310a

>  <ref_mols>  (157) 
Ax0446a,Ax1080a,Ax0812a,Ax0719a,Ax1140a,Ax0528a,Ax0310a

>  <original SMILES>  (157) 
Cc1ncsc1C(=O)NCc1ccccc1Cl

>  <rationale>  (157) 
info info set:3d;halogenbond:S105; hbond:S87+S125; hydroph_interaction:E88; pistack:H21; 

>  <experiment>  (157) 
3d

>  <cluster_label>  (157) 
12

>  <cluster_rank>  (157) 
12

>  <N_interactions>  (157) 
5

>  <∆∆G>  (157) 
-2.114722

>  <comRMSD>  (157) 
0.89031

>  <ROCS_TanimotoCombo>  (157) 
0.313

>  <ROCS_ShapeTanimoto>  (157) 
0.188

>  <ROCS_ColorTanimoto>  (157) 
0.125

$$$$
EN300_17944866
     RDKit          3D

 20 21  0  0  0  0  0  0  0  0999 V2000
   33.5135   11.5020    3.6303 N   0  0  0  0  0  0  0  0  0  0  0  0
   34.2486   11.4705    5.1240 S   0  0  0  0  0  6  0  0  0  0  0  0
   34.6051   12.8365    5.4406 O   0  0  0  0  0  0  0  0  0  0  0  0
   35.2366   10.4200    5.0578 O   0  0  0  0  0  0  0  0  0  0  0  0
   32.9294   10.9456    6.2232 C   0  0  0  0  0  0  0  0  0  0  0  0
   32.7642    9.4808    6.4449 C   0  0  0  0  0  0  0  0  0  0  0  0
   31.7435    9.0591    7.3053 C   0  0  0  0  0  0  0  0  0  0  0  0
   30.9200    9.9911    7.9189 C   0  0  0  0  0  0  0  0  0  0  0  0
   31.1138   11.3572    7.6727 C   0  0  0  0  0  0  0  0  0  0  0  0
   30.3051   12.2820    8.2682 N   0  0  0  0  0  0  0  0  0  0  0  0
   30.6732   13.4797    8.7993 C   0  0  0  0  0  0  0  0  0  0  0  0
   31.9557   14.0624    8.9241 O   0  0  0  0  0  0  0  0  0  0  0  0
   29.4989   14.1625    9.2893 C   0  0  0  0  0  0  0  0  0  0  0  0
   29.4456   14.3798   10.6420 C   0  0  0  0  0  0  0  0  0  0  0  0
   28.3733   14.9782   11.1624 C   0  0  0  0  0  0  0  0  0  0  0  0
   27.3813   15.3625   10.3048 C   0  0  0  0  0  0  0  0  0  0  0  0
   26.3547   15.9503   10.7802 F   0  0  0  0  0  0  0  0  0  0  0  0
   27.4121   15.1599    8.9605 C   0  0  0  0  0  0  0  0  0  0  0  0
   28.4900   14.5490    8.4242 C   0  0  0  0  0  0  0  0  0  0  0  0
   32.0988   11.8450    6.8412 C   0  0  0  0  0  0  0  0  0  0  0  0
  1  2  1  0
  2  3  2  0
  2  4  2  0
  2  5  1  0
  5  6  2  0
  6  7  1  0
  7  8  2  0
  8  9  1  0
  9 10  1  0
 10 11  1  0
 11 12  2  0
 11 13  1  0
 13 14  2  0
 14 15  1  0
 15 16  2  0
 16 17  1  0
 16 18  1  0
 18 19  2  0
  9 20  2  0
 20  5  1  0
 19 13  1  0
A    1
 N1 
A    2
 S1 
A    3
 O1 
A    4
 O2 
A    5
 C1 
A    6
 C2 
A    7
 C3 
A    8
 C4 
A    9
 C5 
A   10
 N2 
A   11
 C6 
A   12
 O3 
A   13
 C7 
A   14
 C8 
A   15
 C9 
A   16
 C10
A   17
 F1 
A   18
 C11
A   19
 C12
A   20
 C13
M  END
>  <ref_pdb>  (158) 
Ax0310a

>  <ref_mols>  (158) 
Ax0446a,Ax1080a,Ax0812a,Ax0719a,Ax1140a,Ax0528a,Ax0310a

>  <original SMILES>  (158) 
NS(=O)(=O)c1cccc(NC(=O)c2ccc(F)cc2)c1

>  <rationale>  (158) 
info info set:sulfonimide_whole;hbond:S87; hydroph_interaction:Y89+Y90+H21+D39; 

>  <experiment>  (158) 
sulfonimide_whole

>  <cluster_label>  (158) 
8

>  <cluster_rank>  (158) 
12

>  <N_interactions>  (158) 
5

>  <∆∆G>  (158) 
-5.106658

>  <comRMSD>  (158) 
0.480672

>  <ROCS_TanimotoCombo>  (158) 
0.34

>  <ROCS_ShapeTanimoto>  (158) 
0.204

>  <ROCS_ColorTanimoto>  (158) 
0.136

$$$$
EN300_03223
     RDKit          3D

 24 26  0  0  0  0  0  0  0  0999 V2000
   31.1736   13.2271    6.9560 O   0  0  0  0  0  0  0  0  0  0  0  0
   31.5087   12.0609    7.0309 C   0  0  0  0  0  0  0  0  0  0  0  0
   30.6918   11.0719    7.8654 C   0  0  0  0  0  0  0  0  0  0  0  0
   29.8149   11.4937    8.5612 O   0  0  0  0  0  0  0  0  0  0  0  0
   29.4212   12.7757    8.3282 C   0  0  0  0  0  0  0  0  0  0  0  0
   28.3772   12.9772    7.2215 C   0  0  0  0  0  0  0  0  0  0  0  0
   27.9659   14.4370    6.9659 C   0  0  0  0  0  0  0  0  0  0  0  0
   28.6722   15.5193    7.8849 C   0  0  0  0  0  0  0  0  0  0  0  0
   29.6558   15.2220    8.9293 C   0  0  0  0  0  0  0  0  0  0  0  0
   29.9732   13.8162    9.0789 C   0  0  0  0  0  0  0  0  0  0  0  0
   30.8738   13.6508   10.0264 F   0  0  0  0  0  0  0  0  0  0  0  0
   30.9939    9.7822    7.7731 C   0  0  0  0  0  0  0  0  0  0  0  0
   30.3867    8.7440    8.4379 C   0  0  0  0  0  0  0  0  0  0  0  0
   29.1021    8.5646    8.1543 F   0  0  0  0  0  0  0  0  0  0  0  0
   30.5145    8.6511    9.7611 F   0  0  0  0  0  0  0  0  0  0  0  0
   30.9547    7.6736    7.9751 F   0  0  0  0  0  0  0  0  0  0  0  0
   32.0365    9.2819    6.9115 O   0  0  0  0  0  0  0  0  0  0  0  0
   32.8682   10.1669    6.3023 C   0  0  0  0  0  0  0  0  0  0  0  0
   33.9595    9.6392    5.6263 C   0  0  0  0  0  0  0  0  0  0  0  0
   34.8522   10.4959    4.9938 C   0  0  0  0  0  0  0  0  0  0  0  0
   35.9359   10.0363    4.3156 O   0  0  0  0  0  0  0  0  0  0  0  0
   34.6645   11.8735    5.0355 C   0  0  0  0  0  0  0  0  0  0  0  0
   33.5653   12.4019    5.7084 C   0  0  0  0  0  0  0  0  0  0  0  0
   32.6713   11.5377    6.3342 C   0  0  0  0  0  0  0  0  0  0  0  0
  1  2  2  0
  2  3  1  0
  3  4  1  0
  4  5  1  0
  5  6  2  0
  6  7  1  0
  7  8  2  0
  8  9  1  0
  9 10  2  0
 10 11  1  0
  3 12  2  0
 12 13  1  0
 13 14  1  0
 13 15  1  0
 13 16  1  0
 12 17  1  0
 17 18  1  0
 18 19  2  0
 19 20  1  0
 20 21  1  0
 20 22  2  0
 22 23  1  0
 23 24  2  0
 24  2  1  0
 10  5  1  0
 24 18  1  0
A    1
 O1 
A    2
 C1 
A    3
 C2 
A    4
 O2 
A    5
 C3 
A    6
 C4 
A    7
 C5 
A    8
 C6 
A    9
 C7 
A   10
 C8 
A   11
 F1 
A   12
 C9 
A   13
 C10
A   14
 F2 
A   15
 F3 
A   16
 F4 
A   17
 O3 
A   18
 C11
A   19
 C12
A   20
 C13
A   21
 O4 
A   22
 C14
A   23
 C15
A   24
 C16
M  END
>  <ref_pdb>  (159) 
Ax0310a

>  <ref_mols>  (159) 
Ax0446a,Ax1080a,Ax0812a,Ax0719a,Ax1140a,Ax0528a,Ax0310a

>  <original SMILES>  (159) 
O=c1c(Oc2ccccc2F)c(C(F)(F)F)oc2cc(O)ccc12

>  <rationale>  (159) 
info info set:bb_whole;halogenbond:P107; hbond:S87; hydroph_interaction:Y89+Y90; pistack:H21; 

>  <experiment>  (159) 
bb_whole

>  <cluster_label>  (159) 
9

>  <cluster_rank>  (159) 
12

>  <N_interactions>  (159) 
6

>  <∆∆G>  (159) 
-1.08013

>  <comRMSD>  (159) 
0.581502

>  <ROCS_TanimotoCombo>  (159) 
0.428

>  <ROCS_ShapeTanimoto>  (159) 
0.281

>  <ROCS_ColorTanimoto>  (159) 
0.147

$$$$
EN300_22121786
     RDKit          3D

 16 16  0  0  0  0  0  0  0  0999 V2000
   29.4475    9.4718    8.3248 C   0  0  0  0  0  0  0  0  0  0  0  0
   30.1038    8.5152    9.1192 C   0  0  0  0  0  0  0  0  0  0  0  0
   29.8004    8.1180   10.4647 C   0  0  0  0  0  0  0  0  0  0  0  0
   29.7662    7.2482    8.6251 C   0  0  0  0  0  0  0  0  0  0  0  0
   31.3756    8.9105    8.7724 O   0  0  0  0  0  0  0  0  0  0  0  0
   31.2889   10.1367    8.1881 C   0  0  0  0  0  0  0  0  0  0  0  0
   30.6321   11.0973    8.5792 O   0  0  0  0  0  0  0  0  0  0  0  0
   32.1184   10.1477    7.0557 N   0  0  0  0  0  0  0  0  0  0  0  0
   32.4626   11.3303    6.3557 C   0  0  0  0  0  0  0  0  0  0  0  0
   33.3576   10.8282    5.2556 C   0  0  0  0  0  0  0  0  0  0  0  0
   33.9476   11.8133    4.2610 C   0  0  0  0  0  0  0  0  0  0  0  0
   34.4818   11.1596    3.2098 F   0  0  0  0  0  0  0  0  0  0  0  0
   34.8956   12.5821    4.8186 F   0  0  0  0  0  0  0  0  0  0  0  0
   32.9712   12.6262    3.7909 F   0  0  0  0  0  0  0  0  0  0  0  0
   33.4206    9.4455    5.4550 C   0  0  0  0  0  0  0  0  0  0  0  0
   32.6919    9.0334    6.5058 N   0  0  0  0  0  0  0  0  0  0  0  0
  1  2  1  0
  2  3  1  0
  2  4  1  0
  2  5  1  0
  5  6  1  0
  6  7  2  0
  6  8  1  0
  8  9  1  0
  9 10  2  0
 10 11  1  0
 11 12  1  0
 11 13  1  0
 11 14  1  0
 10 15  1  0
 15 16  2  0
 16  8  1  0
A    1
 C1 
A    2
 C2 
A    3
 C3 
A    4
 C4 
A    5
 O1 
A    6
 C5 
A    7
 O2 
A    8
 N1 
A    9
 C6 
A   10
 C7 
A   11
 C8 
A   12
 F1 
A   13
 F2 
A   14
 F3 
A   15
 C9 
A   16
 N2 
M  END
>  <ref_pdb>  (160) 
Ax0310a

>  <ref_mols>  (160) 
Ax0446a,Ax1080a,Ax0812a,Ax0719a,Ax1140a,Ax0528a,Ax0310a

>  <original SMILES>  (160) 
CC(C)(C)OC(=O)n1cc(C(F)(F)F)cn1

>  <rationale>  (160) 
info info set:bb_densepocket2;hbond:S105+S125; hydroph_interaction:P107+V124+D109; 

>  <experiment>  (160) 
bb_densepocket2

>  <cluster_label>  (160) 
3

>  <cluster_rank>  (160) 
12

>  <N_interactions>  (160) 
6

>  <∆∆G>  (160) 
-2.286542

>  <comRMSD>  (160) 
0.702968

>  <ROCS_TanimotoCombo>  (160) 
0.636

>  <ROCS_ShapeTanimoto>  (160) 
0.223

>  <ROCS_ColorTanimoto>  (160) 
0.413

$$$$
EN300_12408
     RDKit          3D

 16 16  0  0  0  0  0  0  0  0999 V2000
   33.8936    9.0625    5.6738 C   0  0  0  0  0  0  0  0  0  0  0  0
   32.8552    9.8953    6.3966 C   0  0  0  0  0  0  0  0  0  0  0  0
   31.8499    9.1213    7.2681 C   0  0  0  0  0  0  0  0  0  0  0  0
   30.7978    9.9363    8.0118 C   0  0  0  0  0  0  0  0  0  0  0  0
   30.9052   11.4612    7.7633 C   0  0  0  0  0  0  0  0  0  0  0  0
   30.0336   12.3885    8.3393 N   0  0  0  0  0  0  0  0  0  0  0  0
   30.3285   13.6113    8.9014 C   0  0  0  0  0  0  0  0  0  0  0  0
   31.4485   14.1012    9.0534 O   0  0  0  0  0  0  0  0  0  0  0  0
   29.0925   14.3871    9.3551 C   0  0  0  0  0  0  0  0  0  0  0  0
   28.8159   14.5074   11.0389 Cl  0  0  0  0  0  0  0  0  0  0  0  0
   31.8886   12.0161    6.9359 C   0  0  0  0  0  0  0  0  0  0  0  0
   32.8232   11.2510    6.2839 C   0  0  0  0  0  0  0  0  0  0  0  0
   34.0417   12.0160    5.2561 S   0  0  0  0  0  6  0  0  0  0  0  0
   33.3566   11.9591    3.7266 N   0  0  0  0  0  0  0  0  0  0  0  0
   34.3111   13.3815    5.6263 O   0  0  0  0  0  0  0  0  0  0  0  0
   35.3023   11.1968    5.1819 O   0  0  0  0  0  0  0  0  0  0  0  0
  1  2  1  0
  2  3  2  0
  3  4  1  0
  4  5  2  0
  5  6  1  0
  6  7  1  0
  7  8  2  0
  7  9  1  0
  9 10  1  0
  5 11  1  0
 11 12  2  0
 12 13  1  0
 13 14  1  0
 13 15  2  0
 13 16  2  0
 12  2  1  0
A    1
 C1 
A    2
 C2 
A    3
 C3 
A    4
 C4 
A    5
 C5 
A    6
 N1 
A    7
 C6 
A    8
 O1 
A    9
 C7 
A   10
CL1 
A   11
 C8 
A   12
 C9 
A   13
 S1 
A   14
 N2 
A   15
 O2 
A   16
 O3 
M  END
>  <ref_pdb>  (161) 
Ax0310a

>  <ref_mols>  (161) 
Ax0446a,Ax1080a,Ax0812a,Ax0719a,Ax1140a,Ax0528a,Ax0310a

>  <original SMILES>  (161) 
Cc1ccc(NC(=O)CCl)cc1S(N)(=O)=O

>  <rationale>  (161) 
info info set:sulfonimide_whole;halogenbond:S125+Q95; hbond:S87; 

>  <experiment>  (161) 
sulfonimide_whole

>  <cluster_label>  (161) 
7

>  <cluster_rank>  (161) 
12

>  <N_interactions>  (161) 
3

>  <∆∆G>  (161) 
-6.090043

>  <comRMSD>  (161) 
0.492098

>  <ROCS_TanimotoCombo>  (161) 
0.346

>  <ROCS_ShapeTanimoto>  (161) 
0.206

>  <ROCS_ColorTanimoto>  (161) 
0.14

$$$$
Z196118744
     RDKit          3D

 24 27  0  0  0  0  0  0  0  0999 V2000
   31.6096   15.8339   10.0255 C   0  0  0  0  0  0  0  0  0  0  0  0
   31.4526   14.6190    9.2858 O   0  0  0  0  0  0  0  0  0  0  0  0
   30.2264   14.4070    8.7077 C   0  0  0  0  0  0  0  0  0  0  0  0
   28.9068   14.7324    9.3706 C   0  0  0  0  0  0  0  0  0  0  0  0
   27.6161   14.5954    8.9075 C   0  0  0  0  0  0  0  0  0  0  0  0
   27.8492   13.9777    7.4971 C   0  0  0  0  0  0  0  0  0  0  0  0
   29.0319   13.6582    6.8438 C   0  0  0  0  0  0  0  0  0  0  0  0
   30.2055   13.8846    7.4489 C   0  0  0  0  0  0  0  0  0  0  0  0
   31.4273   13.6214    6.7783 O   0  0  0  0  0  0  0  0  0  0  0  0
   31.6610   12.3602    6.8439 C   0  0  0  0  0  0  0  0  0  0  0  0
   30.8340   11.7758    7.4989 N   0  0  0  0  0  0  0  0  0  0  0  0
   31.0852   10.4723    7.5554 C   0  0  0  0  0  0  0  0  0  0  0  0
   30.3404    9.5289    8.2307 C   0  0  0  0  0  0  0  0  0  0  0  0
   28.9930    9.5997    9.1233 Cl  0  0  0  0  0  0  0  0  0  0  0  0
   30.9967    8.3983    7.9913 C   0  0  0  0  0  0  0  0  0  0  0  0
   30.3541    7.3737    8.6200 C   0  0  0  0  0  0  0  0  0  0  0  0
   32.0979    8.4481    7.2200 N   0  0  0  0  0  0  0  0  0  0  0  0
   32.1173    9.7785    6.9623 N   0  0  0  0  0  0  0  0  0  0  0  0
   33.0576   10.4448    6.1947 C   0  0  0  0  0  0  0  0  0  0  0  0
   34.1081    9.7881    5.5606 C   0  0  0  0  0  0  0  0  0  0  0  0
   35.0125   10.5456    4.8303 C   0  0  0  0  0  0  0  0  0  0  0  0
   34.8194   12.0446    4.7524 C   0  0  0  0  0  0  0  0  0  0  0  0
   33.7385   12.6364    5.4036 C   0  0  0  0  0  0  0  0  0  0  0  0
   32.8554   11.8320    6.1226 C   0  0  0  0  0  0  0  0  0  0  0  0
  1  2  1  0
  2  3  1  0
  3  4  2  0
  4  5  1  0
  5  6  2  0
  6  7  1  0
  7  8  2  0
  8  9  1  0
  9 10  1  0
 10 11  2  0
 11 12  1  0
 12 13  2  0
 13 14  1  0
 13 15  1  0
 15 16  1  0
 15 17  2  0
 17 18  1  0
 18 19  1  0
 19 20  2  0
 20 21  1  0
 21 22  2  0
 22 23  1  0
 23 24  2  0
  8  3  1  0
 24 10  1  0
 18 12  1  0
 24 19  1  0
A    1
 C1 
A    2
 O1 
A    3
 C2 
A    4
 C3 
A    5
 C4 
A    6
 C5 
A    7
 C6 
A    8
 C7 
A    9
 O2 
A   10
 C8 
A   11
 N1 
A   12
 C9 
A   13
 C10
A   14
CL1 
A   15
 C11
A   16
 C12
A   17
 N2 
A   18
 N3 
A   19
 C13
A   20
 C14
A   21
 C15
A   22
 C16
A   23
 C17
A   24
 C18
M  END
>  <ref_pdb>  (162) 
Ax0310a

>  <ref_mols>  (162) 
Ax0446a,Ax1080a,Ax0812a,Ax0719a,Ax1140a,Ax0528a,Ax0310a

>  <original SMILES>  (162) 
COc1ccccc1Oc1nc2c(Cl)c(C)nn2c2ccccc12

>  <rationale>  (162) 
info info set:screening_whole;hbond:S87+G127; hydroph_interaction:Y90+V124+D109; pistack:H21; 

>  <experiment>  (162) 
screening_whole

>  <cluster_label>  (162) 
3

>  <cluster_rank>  (162) 
13

>  <N_interactions>  (162) 
7

>  <∆∆G>  (162) 
-4.108107

>  <comRMSD>  (162) 
0.690612

>  <ROCS_TanimotoCombo>  (162) 
0.474

>  <ROCS_ShapeTanimoto>  (162) 
0.276

>  <ROCS_ColorTanimoto>  (162) 
0.199

$$$$
Z995472128
     RDKit          3D

 18 20  0  0  0  0  0  0  0  0999 V2000
   30.8018   15.6811    9.9392 C   0  0  0  0  0  0  0  0  0  0  0  0
   29.9077   14.8354    9.1152 C   0  0  0  0  0  0  0  0  0  0  0  0
   30.4525   13.8327    8.4588 N   0  0  0  0  0  0  0  0  0  0  0  0
   29.4145   13.3141    7.8758 C   0  0  0  0  0  0  0  0  0  0  0  0
   29.3240   12.2484    7.0718 C   0  0  0  0  0  0  0  0  0  0  0  0
   30.6572   11.7521    6.9938 N   0  0  0  0  0  0  0  0  0  0  0  0
   31.1597   10.7186    7.7267 C   0  0  0  0  0  0  0  0  0  0  0  0
   30.5986   10.0844    8.6186 O   0  0  0  0  0  0  0  0  0  0  0  0
   32.4583   10.4879    7.2715 N   0  0  0  0  0  0  0  0  0  0  0  0
   32.8001   11.3229    6.1109 C   0  0  0  0  0  0  0  0  0  0  0  0
   33.4663   10.5203    4.9651 C   0  0  0  0  0  0  0  0  0  0  0  0
   34.8272   11.1417    5.0839 C   0  0  0  0  0  0  0  0  0  0  0  0
   34.1114   12.1337    5.9858 C   0  0  0  0  0  0  0  0  0  0  0  0
   31.5563   12.2316    5.9748 C   0  0  0  0  0  0  0  0  0  0  0  0
   31.3468   13.1496    5.2011 O   0  0  0  0  0  0  0  0  0  0  0  0
   28.2494   13.9312    8.1117 O   0  0  0  0  0  0  0  0  0  0  0  0
   28.5388   14.8481    8.8594 C   0  0  0  0  0  0  0  0  0  0  0  0
   27.3770   15.6499    9.2465 C   0  0  0  0  0  0  0  0  0  0  0  0
  1  2  1  0
  2  3  1  0
  3  4  2  0
  4  5  1  0
  5  6  1  0
  6  7  1  0
  7  8  2  0
  7  9  1  0
  9 10  1  0
 10 11  1  0
 11 12  1  0
 12 13  1  0
 10 14  1  0
 14 15  2  0
  4 16  1  0
 16 17  1  0
 17 18  1  0
 17  2  2  0
 14  6  1  0
 13 10  1  0
A    1
 C1 
A    2
 C2 
A    3
 N1 
A    4
 C3 
A    5
 C4 
A    6
 N2 
A    7
 C5 
A    8
 O1 
A    9
 N3 
A   10
 C6 
A   11
 C7 
A   12
 C8 
A   13
 C9 
A   14
 C10
A   15
 O2 
A   16
 O3 
A   17
 C11
A   18
 C12
M  END
>  <ref_pdb>  (163) 
Ax0310a

>  <ref_mols>  (163) 
Ax0446a,Ax1080a,Ax0812a,Ax0719a,Ax1140a,Ax0528a,Ax0310a

>  <original SMILES>  (163) 
Cc1nc(CN2C(=O)NC3(CCC3)C2=O)oc1C

>  <rationale>  (163) 
info info set:3d;hbond:S87+G127; hydroph_interaction:P107+Y89+H21; 

>  <experiment>  (163) 
3d

>  <cluster_label>  (163) 
9

>  <cluster_rank>  (163) 
13

>  <N_interactions>  (163) 
5

>  <∆∆G>  (163) 
-3.579894

>  <comRMSD>  (163) 
0.865409

>  <ROCS_TanimotoCombo>  (163) 
0.339

>  <ROCS_ShapeTanimoto>  (163) 
0.218

>  <ROCS_ColorTanimoto>  (163) 
0.12

$$$$
Z605849578
     RDKit          3D

 17 19  0  0  0  0  0  0  0  0999 V2000
   30.5319   11.0822    8.8619 O   0  0  0  0  0  0  0  0  0  0  0  0
   31.1657   12.1631    8.1600 S   0  0  0  0  0  6  0  0  0  0  0  0
   32.4750   12.7013    8.5248 O   0  0  0  0  0  0  0  0  0  0  0  0
   29.9333   13.4165    7.9633 C   0  0  0  0  0  0  0  0  0  0  0  0
   29.6826   14.4432    9.0497 C   0  0  0  0  0  0  0  0  0  0  0  0
   28.6906   15.2694    8.6443 N   0  0  0  0  0  0  0  0  0  0  0  0
   28.4027   14.9478    7.3464 N   0  0  0  0  0  0  0  0  0  0  0  0
   29.0527   13.6576    6.9376 C   0  0  0  0  0  0  0  0  0  0  0  0
   31.4350   11.2478    6.8141 N   0  0  0  0  0  0  0  0  0  0  0  0
   31.4460    9.8011    7.2739 C   0  0  0  0  0  0  0  0  0  0  0  0
   32.4777    9.1631    6.3946 C   0  0  0  0  0  0  0  0  0  0  0  0
   33.2775   10.2299    5.9781 C   0  0  0  0  0  0  0  0  0  0  0  0
   34.6015    9.9442    5.3257 C   0  0  0  0  0  0  0  0  0  0  0  0
   35.4067   11.1910    4.9389 C   0  0  0  0  0  0  0  0  0  0  0  0
   34.8734   12.4904    5.2087 C   0  0  0  0  0  0  0  0  0  0  0  0
   33.4868   12.6777    5.8726 C   0  0  0  0  0  0  0  0  0  0  0  0
   32.7316   11.4296    6.2258 C   0  0  0  0  0  0  0  0  0  0  0  0
  1  2  2  0
  2  3  2  0
  2  4  1  0
  4  5  2  0
  5  6  1  0
  6  7  2  0
  7  8  1  0
  2  9  1  0
  9 10  1  0
 10 11  1  0
 11 12  1  0
 12 13  2  0
 13 14  1  0
 14 15  2  0
 15 16  1  0
 16 17  2  0
  8  4  1  0
 17  9  1  0
 17 12  1  0
A    1
 O1 
A    2
 S1 
A    3
 O2 
A    4
 C1 
A    5
 C2 
A    6
 N1 
A    7
 N2 
A    8
 C3 
A    9
 N3 
A   10
 C4 
A   11
 C5 
A   12
 C6 
A   13
 C7 
A   14
 C8 
A   15
 C9 
A   16
 C10
A   17
 C11
M  END
>  <ref_pdb>  (164) 
Ax0310a

>  <ref_mols>  (164) 
Ax0446a,Ax1080a,Ax0812a,Ax0719a,Ax1140a,Ax0528a,Ax0310a

>  <original SMILES>  (164) 
O=S(=O)(C1=CN=NC1)N1CCc2ccccc21

>  <rationale>  (164) 
info info set:3d;hbond:S87+G127+E88; 

>  <experiment>  (164) 
3d

>  <cluster_label>  (164) 
8

>  <cluster_rank>  (164) 
13

>  <N_interactions>  (164) 
3

>  <∆∆G>  (164) 
-0.922789

>  <comRMSD>  (164) 
0.677731

>  <ROCS_TanimotoCombo>  (164) 
0.346

>  <ROCS_ShapeTanimoto>  (164) 
0.22

>  <ROCS_ColorTanimoto>  (164) 
0.126

$$$$
EN300_1989145
     RDKit          3D

 14 14  0  0  0  0  0  0  0  0999 V2000
   29.1820   13.4082    7.3163 C   0  0  0  0  0  0  0  0  0  0  0  0
   30.5626   13.3687    7.7179 O   0  0  0  0  0  0  0  0  0  0  0  0
   31.0806   12.1243    7.5484 C   0  0  0  0  0  0  0  0  0  0  0  0
   30.3878   10.9187    8.0203 C   0  0  0  0  0  0  0  0  0  0  0  0
   31.0418    9.6125    7.7798 C   0  0  0  0  0  0  0  0  0  0  0  0
   30.1486    8.1652    8.5101 Br  0  0  0  0  0  0  0  0  0  0  0  0
   32.3380    9.4354    7.0317 C   0  0  0  0  0  0  0  0  0  0  0  0
   33.0312   10.5722    6.5887 C   0  0  0  0  0  0  0  0  0  0  0  0
   32.4237   11.9510    6.8748 C   0  0  0  0  0  0  0  0  0  0  0  0
   33.2203   13.1530    6.4969 C   0  0  0  0  0  0  0  0  0  0  0  0
   33.5761   13.7480    8.1964 S   0  0  0  0  0  6  0  0  0  0  0  0
   34.8440   14.8159    7.8772 N   0  0  0  0  0  0  0  0  0  0  0  0
   34.1680   12.7854    9.0575 O   0  0  0  0  0  0  0  0  0  0  0  0
   32.4487   14.4362    8.7900 O   0  0  0  0  0  0  0  0  0  0  0  0
  1  2  1  0
  2  3  1  0
  3  4  2  0
  4  5  1  0
  5  6  1  0
  5  7  2  0
  7  8  1  0
  8  9  2  0
  9 10  1  0
 10 11  1  0
 11 12  1  0
 11 13  2  0
 11 14  2  0
  9  3  1  0
A    1
 C1 
A    2
 O1 
A    3
 C2 
A    4
 C3 
A    5
 C4 
A    6
BR1 
A    7
 C5 
A    8
 C6 
A    9
 C7 
A   10
 C8 
A   11
 S1 
A   12
 N1 
A   13
 O2 
A   14
 O3 
M  END
>  <ref_pdb>  (165) 
Ax0310a

>  <ref_mols>  (165) 
Ax0446a,Ax1080a,Ax0812a,Ax0719a,Ax1140a,Ax0528a,Ax0310a

>  <original SMILES>  (165) 
COc1cc(Br)ccc1CS(N)(=O)=O

>  <rationale>  (165) 
info info set:sulfonimide_whole;hbond:S87+G127+A86; 

>  <experiment>  (165) 
sulfonimide_whole

>  <cluster_label>  (165) 
5

>  <cluster_rank>  (165) 
13

>  <N_interactions>  (165) 
3

>  <∆∆G>  (165) 
-6.238854

>  <comRMSD>  (165) 
0.778151

>  <ROCS_TanimotoCombo>  (165) 
0.353

>  <ROCS_ShapeTanimoto>  (165) 
0.187

>  <ROCS_ColorTanimoto>  (165) 
0.166

$$$$
EN300_1989103
     RDKit          3D

 13 14  0  0  0  0  0  0  0  0999 V2000
   28.6835   13.9434    9.7246 N   0  0  0  0  0  0  0  0  0  0  0  0
   29.7991   14.4263    8.5867 S   0  0  0  0  0  6  0  0  0  0  0  0
   30.8483   15.1250    9.3044 O   0  0  0  0  0  0  0  0  0  0  0  0
   29.0120   15.0362    7.4728 O   0  0  0  0  0  0  0  0  0  0  0  0
   30.5528   12.9459    7.9927 C   0  0  0  0  0  0  0  0  0  0  0  0
   31.5499   12.8079    6.9062 C   0  0  0  0  0  0  0  0  0  0  0  0
   31.8119   11.3548    6.8881 C   0  0  0  0  0  0  0  0  0  0  0  0
   32.8060   10.7494    5.9138 C   0  0  0  0  0  0  0  0  0  0  0  0
   32.9036    9.2462    6.1031 C   0  0  0  0  0  0  0  0  0  0  0  0
   32.0402    8.5635    7.1741 C   0  0  0  0  0  0  0  0  0  0  0  0
   31.1059    9.3792    8.0312 C   0  0  0  0  0  0  0  0  0  0  0  0
   31.0470   10.7079    7.8486 C   0  0  0  0  0  0  0  0  0  0  0  0
   30.3013   11.6868    8.4974 N   0  0  0  0  0  0  0  0  0  0  0  0
  1  2  1  0
  2  3  2  0
  2  4  2  0
  2  5  1  0
  5  6  2  0
  6  7  1  0
  7  8  2  0
  8  9  1  0
  9 10  2  0
 10 11  1  0
 11 12  2  0
 12 13  1  0
 13  5  1  0
 12  7  1  0
A    1
 N1 
A    2
 S1 
A    3
 O1 
A    4
 O2 
A    5
 C1 
A    6
 C2 
A    7
 C3 
A    8
 C4 
A    9
 C5 
A   10
 C6 
A   11
 C7 
A   12
 C8 
A   13
 N2 
M  END
>  <ref_pdb>  (166) 
Ax0310a

>  <ref_mols>  (166) 
Ax0446a,Ax1080a,Ax0812a,Ax0719a,Ax1140a,Ax0528a,Ax0310a

>  <original SMILES>  (166) 
NS(=O)(=O)c1cc2ccccc2[nH]1

>  <rationale>  (166) 
info info set:sulfonimide_whole;hbond:S87+G127+H21; hydroph_interaction:P107; 

>  <experiment>  (166) 
sulfonimide_whole

>  <cluster_label>  (166) 
7

>  <cluster_rank>  (166) 
13

>  <N_interactions>  (166) 
4

>  <∆∆G>  (166) 
-6.50836

>  <comRMSD>  (166) 
0.556197

>  <ROCS_TanimotoCombo>  (166) 
0.331

>  <ROCS_ShapeTanimoto>  (166) 
0.19

>  <ROCS_ColorTanimoto>  (166) 
0.141

$$$$
Z3366034340
     RDKit          3D

 18 20  0  0  0  0  0  0  0  0999 V2000
   28.7599   14.1554    4.4807 C   0  0  0  0  0  0  0  0  0  0  0  0
   28.9231   14.2786    5.9498 C   0  0  0  0  0  0  0  0  0  0  0  0
   29.8903   13.3516    6.4658 C   0  0  0  0  0  0  0  0  0  0  0  0
   29.8437   13.7287    7.8748 C   0  0  0  0  0  0  0  0  0  0  0  0
   30.6937   13.0189    8.7777 C   0  0  0  0  0  0  0  0  0  0  0  0
   30.4230   11.7101    8.5707 N   0  0  0  0  0  0  0  0  0  0  0  0
   31.3262   11.0060    7.7101 C   0  0  0  0  0  0  0  0  0  0  0  0
   31.3430    9.4693    7.7351 C   0  0  0  0  0  0  0  0  0  0  0  0
   32.1566    8.6751    6.9906 N   0  0  0  0  0  0  0  0  0  0  0  0
   32.9900    9.3713    6.1739 C   0  0  0  0  0  0  0  0  0  0  0  0
   33.9097    8.8760    5.3200 N   0  0  0  0  0  0  0  0  0  0  0  0
   34.6239    9.7990    4.6132 N   0  0  0  0  0  0  0  0  0  0  0  0
   34.1039   11.0899    5.0650 C   0  0  0  0  0  0  0  0  0  0  0  0
   34.6354   12.3967    4.5281 C   0  0  0  0  0  0  0  0  0  0  0  0
   33.0977   10.9093    6.0237 C   0  0  0  0  0  0  0  0  0  0  0  0
   32.1810   11.7113    6.8712 C   0  0  0  0  0  0  0  0  0  0  0  0
   28.9616   14.7326    8.1279 O   0  0  0  0  0  0  0  0  0  0  0  0
   28.3675   15.0825    6.8950 N   0  0  0  0  0  0  0  0  0  0  0  0
  1  2  1  0
  2  3  1  0
  3  4  2  0
  4  5  1  0
  5  6  1  0
  6  7  1  0
  7  8  2  0
  8  9  1  0
  9 10  2  0
 10 11  1  0
 11 12  1  0
 12 13  2  0
 13 14  1  0
 13 15  1  0
 15 16  2  0
  4 17  1  0
 17 18  1  0
 18  2  2  0
 16  7  1  0
 15 10  1  0
A    1
 C1 
A    2
 C2 
A    3
 C3 
A    4
 C4 
A    5
 C5 
A    6
 N1 
A    7
 C6 
A    8
 C7 
A    9
 N2 
A   10
 C8 
A   11
 N3 
A   12
 N4 
A   13
 C9 
A   14
 C10
A   15
 C11
A   16
 C12
A   17
 O1 
A   18
 N5 
M  END
>  <ref_pdb>  (167) 
Ax0310a

>  <ref_mols>  (167) 
Ax0446a,Ax1080a,Ax0812a,Ax0719a,Ax1140a,Ax0528a,Ax0310a

>  <original SMILES>  (167) 
Cc1cc(CNc2cnc3[nH]nc(C)c3c2)on1

>  <rationale>  (167) 
info info set:screening_pocket;hbond:S105+S125+G127; hydroph_interaction:P107+E88; pistack:H21; 

>  <experiment>  (167) 
screening_pocket

>  <cluster_label>  (167) 
12

>  <cluster_rank>  (167) 
13

>  <N_interactions>  (167) 
6

>  <∆∆G>  (167) 
-3.66631

>  <comRMSD>  (167) 
0.393669

>  <ROCS_TanimotoCombo>  (167) 
0.632

>  <ROCS_ShapeTanimoto>  (167) 
0.258

>  <ROCS_ColorTanimoto>  (167) 
0.374

$$$$
EN300_3224935
     RDKit          3D

 20 21  0  0  0  0  0  0  0  0999 V2000
   34.9907   12.9204    6.1917 C   0  0  0  0  0  0  0  0  0  0  0  0
   34.8122   13.6829    7.4673 C   0  0  0  0  0  0  0  0  0  0  0  0
   34.7138   15.0816    7.2446 C   0  0  0  0  0  0  0  0  0  0  0  0
   35.9835   13.6657    8.2957 O   0  0  0  0  0  0  0  0  0  0  0  0
   35.6244   12.9652    9.5043 B   0  0  0  0  0  0  0  0  0  0  0  0
   36.7411   12.2449   10.4448 C   0  0  0  0  0  0  0  0  0  0  0  0
   36.3598   11.2077   11.2805 C   0  0  0  0  0  0  0  0  0  0  0  0
   37.1567   10.5187   12.1134 C   0  0  0  0  0  0  0  0  0  0  0  0
   38.5995   10.9329   12.1217 C   0  0  0  0  0  0  0  0  0  0  0  0
   38.9994   11.9577   11.2833 C   0  0  0  0  0  0  0  0  0  0  0  0
   40.3391   12.3407   11.2697 N   0  0  0  0  0  0  0  0  0  0  0  0
   41.0417   13.0141   12.6076 S   0  0  0  0  0  6  0  0  0  0  0  0
   42.3851   12.0353   13.2247 C   0  0  0  0  0  0  0  0  0  0  0  0
   41.5911   14.2341   12.0734 O   0  0  0  0  0  0  0  0  0  0  0  0
   40.0567   13.0420   13.6658 O   0  0  0  0  0  0  0  0  0  0  0  0
   38.0586   12.5977   10.4597 C   0  0  0  0  0  0  0  0  0  0  0  0
   34.2515   12.4798    9.3180 O   0  0  0  0  0  0  0  0  0  0  0  0
   33.6235   13.1527    8.3153 C   0  0  0  0  0  0  0  0  0  0  0  0
   32.7497   12.2601    7.4637 C   0  0  0  0  0  0  0  0  0  0  0  0
   32.7441   14.1476    9.0105 C   0  0  0  0  0  0  0  0  0  0  0  0
  1  2  1  0
  2  3  1  0
  2  4  1  0
  4  5  1  0
  5  6  1  0
  6  7  2  0
  7  8  1  0
  8  9  2  0
  9 10  1  0
 10 11  1  0
 11 12  1  0
 12 13  1  0
 12 14  2  0
 12 15  2  0
 10 16  2  0
  5 17  1  0
 17 18  1  0
 18 19  1  0
 18 20  1  0
 18  2  1  0
 16  6  1  0
A    1
 C1 
A    2
 C2 
A    3
 C3 
A    4
 O1 
A    5
 B1 
A    6
 C4 
A    7
 C5 
A    8
 C6 
A    9
 C7 
A   10
 C8 
A   11
 N1 
A   12
 S1 
A   13
 C9 
A   14
 O2 
A   15
 O3 
A   16
 C10
A   17
 O4 
A   18
 C11
A   19
 C12
A   20
 C13
M  END
>  <ref_pdb>  (168) 
Ax0310a

>  <ref_mols>  (168) 
Ax0446a,Ax1080a,Ax0812a,Ax0719a,Ax1140a,Ax0528a,Ax0310a

>  <original SMILES>  (168) 
CC1(C)OB(c2cccc(NS(C)(=O)=O)c2)OC1(C)C

>  <rationale>  (168) 
info info set:sulfonimide_joint;hbond:G127+E85; hydroph_interaction:L100+L131; 

>  <experiment>  (168) 
sulfonimide_joint

>  <cluster_label>  (168) 
17

>  <cluster_rank>  (168) 
13

>  <N_interactions>  (168) 
4

>  <∆∆G>  (168) 
-0.86246

>  <comRMSD>  (168) 
0.771161

>  <ROCS_TanimotoCombo>  (168) 
0.334

>  <ROCS_ShapeTanimoto>  (168) 
0.224

>  <ROCS_ColorTanimoto>  (168) 
0.11

$$$$
Z1258721789
     RDKit          3D

 12 13  0  0  0  0  0  0  0  0999 V2000
   31.2892   12.7970    8.3150 C   0  0  0  0  0  0  0  0  0  0  0  0
   30.6195   11.7334    7.4512 C   0  0  0  0  0  0  0  0  0  0  0  0
   29.1857   12.2489    7.1631 C   0  0  0  0  0  0  0  0  0  0  0  0
   30.5616   10.3328    8.1225 C   0  0  0  0  0  0  0  0  0  0  0  0
   31.6012    9.4387    7.6635 N   0  0  0  0  0  0  0  0  0  0  0  0
   32.4550    9.7446    6.6401 C   0  0  0  0  0  0  0  0  0  0  0  0
   32.6799   11.1856    6.2149 C   0  0  0  0  0  0  0  0  0  0  0  0
   33.3985   12.2546    6.7890 C   0  0  0  0  0  0  0  0  0  0  0  0
   34.6240   12.6118    5.9086 C   0  0  0  0  0  0  0  0  0  0  0  0
   34.6537   11.5339    4.8680 C   0  0  0  0  0  0  0  0  0  0  0  0
   33.2661   10.9819    4.7968 C   0  0  0  0  0  0  0  0  0  0  0  0
   31.3189   11.6819    6.1585 O   0  0  0  0  0  0  0  0  0  0  0  0
  1  2  1  0
  2  3  1  0
  2  4  1  0
  4  5  1  0
  5  6  1  0
  6  7  1  0
  7  8  1  0
  8  9  1  0
  9 10  1  0
 10 11  1  0
  7 12  1  0
 12  2  1  0
 11  7  1  0
A    1
 C1 
A    2
 C2 
A    3
 C3 
A    4
 C4 
A    5
 N1 
A    6
 C5 
A    7
 C6 
A    8
 C7 
A    9
 C8 
A   10
 C9 
A   11
 C10
A   12
 O1 
M  END
>  <ref_pdb>  (169) 
Ax0310a

>  <ref_mols>  (169) 
Ax0446a,Ax1080a,Ax0812a,Ax0719a,Ax1140a,Ax0528a,Ax0310a

>  <original SMILES>  (169) 
CC1(C)CNCC2(CCCC2)O1

>  <rationale>  (169) 
info info set:3d;hbond:E106; hydroph_interaction:P107; 

>  <experiment>  (169) 
3d

>  <cluster_label>  (169) 
6

>  <cluster_rank>  (169) 
13

>  <N_interactions>  (169) 
3

>  <∆∆G>  (169) 
-2.483392

>  <comRMSD>  (169) 
0.772361

>  <ROCS_TanimotoCombo>  (169) 
0.297

>  <ROCS_ShapeTanimoto>  (169) 
0.187

>  <ROCS_ColorTanimoto>  (169) 
0.11

$$$$
Z4107137992
     RDKit          3D

 24 27  0  0  0  0  0  0  0  0999 V2000
   28.2579   11.3152    8.3511 C   0  0  0  0  0  0  0  0  0  0  0  0
   28.0823    9.9928    7.9007 O   0  0  0  0  0  0  0  0  0  0  0  0
   28.9285    9.0662    8.3908 C   0  0  0  0  0  0  0  0  0  0  0  0
   30.3629    9.4808    8.5652 C   0  0  0  0  0  0  0  0  0  0  0  0
   31.2798    9.9537    7.5209 N   0  0  0  0  0  0  0  0  0  0  0  0
   32.2459    9.0772    7.1067 N   0  0  0  0  0  0  0  0  0  0  0  0
   32.9860    9.7912    6.2340 C   0  0  0  0  0  0  0  0  0  0  0  0
   32.5209   11.1762    5.9984 C   0  0  0  0  0  0  0  0  0  0  0  0
   31.4243   11.2294    6.8219 C   0  0  0  0  0  0  0  0  0  0  0  0
   30.4449   12.3666    7.0921 C   0  0  0  0  0  0  0  0  0  0  0  0
   29.7197   12.8199    6.2094 O   0  0  0  0  0  0  0  0  0  0  0  0
   30.4124   12.8786    8.3654 N   0  0  0  0  0  0  0  0  0  0  0  0
   31.5084   13.6667    8.8206 C   0  0  0  0  0  0  0  0  0  0  0  0
   30.7352   14.5809    9.5037 C   0  0  0  0  0  0  0  0  0  0  0  0
   29.6006   14.0424    8.8691 C   0  0  0  0  0  0  0  0  0  0  0  0
   29.0197   15.0800    7.8677 C   0  0  0  0  0  0  0  0  0  0  0  0
   27.7017   14.7465    8.3698 O   0  0  0  0  0  0  0  0  0  0  0  0
   28.3050   14.0637    9.5305 C   0  0  0  0  0  0  0  0  0  0  0  0
   33.3081   11.9990    5.0602 C   0  0  0  0  0  0  0  0  0  0  0  0
   34.6304   11.9006    5.5196 C   0  0  2  0  0  0  0  0  0  0  0  0
   35.6354   12.6844    4.9620 C   0  0  0  0  0  0  0  0  0  0  0  0
   35.1655   10.5264    5.4551 O   0  0  0  0  0  0  0  0  0  0  0  0
   34.2407    9.3824    5.4981 C   0  0  2  0  0  0  0  0  0  0  0  0
   34.2688    8.9959    4.1828 C   0  0  0  0  0  0  0  0  0  0  0  0
  1  2  1  0
  2  3  1  0
  3  4  1  0
  4  5  1  0
  5  6  1  0
  6  7  2  0
  7  8  1  0
  8  9  2  0
  9 10  1  0
 10 11  2  0
 10 12  1  0
 12 13  1  0
 13 14  1  0
 14 15  1  0
 15 16  1  0
 16 17  1  0
 17 18  1  0
  8 19  1  0
 19 20  1  0
 20 21  1  6
 20 22  1  0
 22 23  1  0
 23 24  1  6
  9  5  1  0
 15 12  1  0
 23  7  1  0
 18 15  1  0
A    1
 C1 
A    2
 O1 
A    3
 C2 
A    4
 C3 
A    5
 N1 
A    6
 N2 
A    7
 C4 
A    8
 C5 
A    9
 C6 
A   10
 C7 
A   11
 O2 
A   12
 N3 
A   13
 C8 
A   14
 C9 
A   15
 C10
A   16
 C11
A   17
 O3 
A   18
 C12
A   19
 C13
A   20
 C14
A   21
 C15
A   22
 O4 
A   23
 C16
A   24
 C17
M  END
>  <ref_pdb>  (170) 
Ax0310a

>  <ref_mols>  (170) 
Ax0446a,Ax1080a,Ax0812a,Ax0719a,Ax1140a,Ax0528a,Ax0310a

>  <original SMILES>  (170) 
COCCn1nc2c(c1C(=O)N1CCC13COC3)C[C@H](C)O[C@@H]2C

>  <rationale>  (170) 
info info set:screening_whole;hbond:C110; hydroph_interaction:P107; 

>  <experiment>  (170) 
screening_whole

>  <cluster_label>  (170) 
16

>  <cluster_rank>  (170) 
13

>  <N_interactions>  (170) 
2

>  <∆∆G>  (170) 
-1.756023

>  <comRMSD>  (170) 
0.894881

>  <ROCS_TanimotoCombo>  (170) 
0.464

>  <ROCS_ShapeTanimoto>  (170) 
0.267

>  <ROCS_ColorTanimoto>  (170) 
0.197

$$$$
EN300_1700412
     RDKit          3D

 23 25  0  0  0  0  0  0  0  0999 V2000
   37.4626   12.6822    4.4858 N   0  0  0  0  0  0  0  0  0  0  0  0
   36.1785   12.8295    5.1571 C   0  0  0  0  0  0  0  0  0  0  0  0
   35.9027   14.0155    5.7425 N   0  0  0  0  0  0  0  0  0  0  0  0
   34.7197   14.1620    6.3717 C   0  0  0  0  0  0  0  0  0  0  0  0
   33.7231   13.2519    6.5015 N   0  0  0  0  0  0  0  0  0  0  0  0
   34.0500   12.0926    5.9004 C   0  0  0  0  0  0  0  0  0  0  0  0
   35.2230   11.8047    5.2247 C   0  0  0  0  0  0  0  0  0  0  0  0
   35.2096   10.5113    4.7393 N   0  0  0  0  0  0  0  0  0  0  0  0
   34.0426   10.0267    5.1185 C   0  0  0  0  0  0  0  0  0  0  0  0
   33.3035   10.9452    5.8189 N   0  0  0  0  0  0  0  0  0  0  0  0
   31.9832   10.7703    6.3703 C   0  0  2  0  0  0  0  0  0  0  0  0
   31.5510   11.9204    6.9156 O   0  0  0  0  0  0  0  0  0  0  0  0
   30.3747   11.5522    7.4748 C   0  0  2  0  0  0  0  0  0  0  0  0
   29.8984   12.6390    8.4058 C   0  0  0  0  0  0  0  0  0  0  0  0
   29.4546   13.8697    7.8458 O   0  0  0  0  0  0  0  0  0  0  0  0
   29.0879   14.9270    8.9370 P   0  0  0  0  0  5  0  0  0  0  0  0
   28.4776   16.1499    8.4100 O   0  0  0  0  0  0  0  0  0  0  0  0
   28.2860   14.2110   10.1040 O   0  0  0  0  0  0  0  0  0  0  0  0
   30.4824   15.2407    9.6533 O   0  0  0  0  0  0  0  0  0  0  0  0
   30.6207   10.1680    8.1302 C   0  0  1  0  0  0  0  0  0  0  0  0
   29.5913    9.1914    7.9940 O   0  0  0  0  0  0  0  0  0  0  0  0
   31.7232    9.7002    7.4239 C   0  0  1  0  0  0  0  0  0  0  0  0
   31.5892    8.3956    6.9892 O   0  0  0  0  0  0  0  0  0  0  0  0
  1  2  1  0
  2  3  2  0
  3  4  1  0
  4  5  2  0
  5  6  1  0
  6  7  2  0
  7  8  1  0
  8  9  2  0
  9 10  1  0
 11 10  1  1
 11 12  1  0
 12 13  1  0
 13 14  1  1
 14 15  1  0
 15 16  1  0
 16 17  2  0
 16 18  1  0
 16 19  1  0
 13 20  1  0
 20 21  1  6
 20 22  1  0
 22 23  1  6
  7  2  1  0
 22 11  1  0
 10  6  1  0
A    1
 N1 
A    2
 C1 
A    3
 N2 
A    4
 C2 
A    5
 N3 
A    6
 C3 
A    7
 C4 
A    8
 N4 
A    9
 C5 
A   10
 N5 
A   11
 C6 
A   12
 O1 
A   13
 C7 
A   14
 C8 
A   15
 O2 
A   16
 P1 
A   17
 O3 
A   18
 O4 
A   19
 O5 
A   20
 C9 
A   21
 O6 
A   22
 C10
A   23
 O7 
M  END
>  <ref_pdb>  (171) 
Ax0310a

>  <ref_mols>  (171) 
Ax0446a,Ax1080a,Ax0812a,Ax0719a,Ax1140a,Ax0528a,Ax0310a

>  <original SMILES>  (171) 
Nc1ncnc2c1ncn2[C@@H]1O[C@H](COP(=O)(O)O)[C@@H](O)[C@H]1O

>  <rationale>  (171) 
info info set:bb_whole;hbond:S87+S105+S125+G127+Y90+C110; saltbridge:H21; 

>  <experiment>  (171) 
bb_whole

>  <cluster_label>  (171) 
16

>  <cluster_rank>  (171) 
14

>  <N_interactions>  (171) 
7

>  <∆∆G>  (171) 
-0.268355

>  <comRMSD>  (171) 
0.913822

>  <ROCS_TanimotoCombo>  (171) 
0.412

>  <ROCS_ShapeTanimoto>  (171) 
0.268

>  <ROCS_ColorTanimoto>  (171) 
0.144

$$$$
EN300_21666109
     RDKit          3D

 20 21  0  0  0  0  0  0  0  0999 V2000
   34.6933   12.6288    6.0854 C   0  0  0  0  0  0  0  0  0  0  0  0
   34.7270   13.5555    7.2553 C   0  0  0  0  0  0  0  0  0  0  0  0
   34.7544   14.8879    7.0349 C   0  0  0  0  0  0  0  0  0  0  0  0
   35.9732   13.3834    7.8957 O   0  0  0  0  0  0  0  0  0  0  0  0
   35.7060   13.0803    9.3009 B   0  0  0  0  0  0  0  0  0  0  0  0
   36.7967   12.4476   10.3088 C   0  0  0  0  0  0  0  0  0  0  0  0
   36.3809   11.3822   11.3266 C   0  0  0  0  0  0  0  0  0  0  0  0
   37.2296   10.8579   12.2389 C   0  0  0  0  0  0  0  0  0  0  0  0
   38.5016   11.2533   12.2702 C   0  0  0  0  0  0  0  0  0  0  0  0
   39.3609   10.7480   13.2246 N   0  0  0  0  0  0  0  0  0  0  0  0
   38.9715   12.2644   11.2353 C   0  0  0  0  0  0  0  0  0  0  0  0
   40.6402   12.6735   11.2751 S   0  0  0  0  0  6  0  0  0  0  0  0
   41.3178   12.1580   12.7706 N   0  0  0  0  0  0  0  0  0  0  0  0
   41.2661   11.9507   10.1801 O   0  0  0  0  0  0  0  0  0  0  0  0
   40.6917   14.1083   11.2943 O   0  0  0  0  0  0  0  0  0  0  0  0
   38.1082   12.8262   10.3085 C   0  0  0  0  0  0  0  0  0  0  0  0
   34.3065   12.5880    9.2771 O   0  0  0  0  0  0  0  0  0  0  0  0
   33.6416   13.1804    8.2313 C   0  0  0  0  0  0  0  0  0  0  0  0
   32.6903   12.3173    7.6657 C   0  0  0  0  0  0  0  0  0  0  0  0
   32.8365   14.1836    8.9979 C   0  0  0  0  0  0  0  0  0  0  0  0
  1  2  1  0
  2  3  1  0
  2  4  1  0
  4  5  1  0
  5  6  1  0
  6  7  2  0
  7  8  1  0
  8  9  2  0
  9 10  1  0
  9 11  1  0
 11 12  1  0
 12 13  1  0
 12 14  2  0
 12 15  2  0
 11 16  2  0
  5 17  1  0
 17 18  1  0
 18 19  1  0
 18 20  1  0
 18  2  1  0
 16  6  1  0
A    1
 C1 
A    2
 C2 
A    3
 C3 
A    4
 O1 
A    5
 B1 
A    6
 C4 
A    7
 C5 
A    8
 C6 
A    9
 C7 
A   10
 N1 
A   11
 C8 
A   12
 S1 
A   13
 N2 
A   14
 O2 
A   15
 O3 
A   16
 C9 
A   17
 O4 
A   18
 C10
A   19
 C11
A   20
 C12
M  END
>  <ref_pdb>  (172) 
Ax0310a

>  <ref_mols>  (172) 
Ax0446a,Ax1080a,Ax0812a,Ax0719a,Ax1140a,Ax0528a,Ax0310a

>  <original SMILES>  (172) 
CC1(C)OB(c2ccc(N)c(S(N)(=O)=O)c2)OC1(C)C

>  <rationale>  (172) 
info info set:sulfonimide_joint;hbond:G127+N129; hydroph_interaction:V84+L100; 

>  <experiment>  (172) 
sulfonimide_joint

>  <cluster_label>  (172) 
17

>  <cluster_rank>  (172) 
14

>  <N_interactions>  (172) 
4

>  <∆∆G>  (172) 
-0.995058

>  <comRMSD>  (172) 
0.704131

>  <ROCS_TanimotoCombo>  (172) 
0.322

>  <ROCS_ShapeTanimoto>  (172) 
0.214

>  <ROCS_ColorTanimoto>  (172) 
0.108

$$$$
EN300_33051352
     RDKit          3D

 11 11  0  0  0  0  0  0  0  0999 V2000
   34.8217   14.7266    7.4658 N   0  0  0  0  0  0  0  0  0  0  0  0
   33.7238   13.4928    7.8494 S   0  0  0  0  0  6  0  0  0  0  0  0
   34.2800   12.8630    8.9959 O   0  0  0  0  0  0  0  0  0  0  0  0
   32.3900   13.9730    7.9336 O   0  0  0  0  0  0  0  0  0  0  0  0
   33.7547   12.4813    6.3849 C   0  0  0  0  0  0  0  0  0  0  0  0
   32.6297   11.5008    6.4395 C   0  0  1  0  0  0  0  0  0  0  0  0
   32.6885   10.1026    6.4554 C   0  0  0  0  0  0  0  0  0  0  0  0
   31.9543    9.2477    7.3284 N   0  0  0  0  0  0  0  0  0  0  0  0
   30.7972    9.8366    8.0131 C   0  0  0  0  0  0  0  0  0  0  0  0
   30.6353   11.3291    7.7315 C   0  0  0  0  0  0  0  0  0  0  0  0
   31.8885   11.9708    7.5808 O   0  0  0  0  0  0  0  0  0  0  0  0
  1  2  1  0
  2  3  2  0
  2  4  2  0
  2  5  1  0
  6  5  1  1
  6  7  1  0
  7  8  1  0
  8  9  1  0
  9 10  1  0
 10 11  1  0
 11  6  1  0
A    1
 N1 
A    2
 S1 
A    3
 O1 
A    4
 O2 
A    5
 C1 
A    6
 C2 
A    7
 C3 
A    8
 N2 
A    9
 C4 
A   10
 C5 
A   11
 O3 
M  END
>  <ref_pdb>  (173) 
Ax0310a

>  <ref_mols>  (173) 
Ax0446a,Ax1080a,Ax0812a,Ax0719a,Ax1140a,Ax0528a,Ax0310a

>  <original SMILES>  (173) 
NS(=O)(=O)C[C@H]1CNCCO1

>  <rationale>  (173) 
info info set:sulfonimide_joint;hbond:S87+G127+E106+E85; 

>  <experiment>  (173) 
sulfonimide_joint

>  <cluster_label>  (173) 
6

>  <cluster_rank>  (173) 
14

>  <N_interactions>  (173) 
4

>  <∆∆G>  (173) 
-1.830299

>  <comRMSD>  (173) 
0.759142

>  <ROCS_TanimotoCombo>  (173) 
0.299

>  <ROCS_ShapeTanimoto>  (173) 
0.156

>  <ROCS_ColorTanimoto>  (173) 
0.143

$$$$
Z391923968
     RDKit          3D

 25 27  0  0  0  0  0  0  0  0999 V2000
   29.7348   13.8344    4.5534 C   0  0  0  0  0  0  0  0  0  0  0  0
   29.5197   13.3319    5.8620 O   0  0  0  0  0  0  0  0  0  0  0  0
   29.1174   14.3517    6.6112 C   0  0  0  0  0  0  0  0  0  0  0  0
   29.1029   15.4872    6.2839 O   0  0  0  0  0  0  0  0  0  0  0  0
   28.5786   14.0591    7.9209 C   0  0  0  0  0  0  0  0  0  0  0  0
   28.0004   15.3175    8.3987 C   0  0  0  0  0  0  0  0  0  0  0  0
   27.3745   15.3220    9.5647 C   0  0  0  0  0  0  0  0  0  0  0  0
   27.3257   14.1727   10.2395 C   0  0  0  0  0  0  0  0  0  0  0  0
   27.8668   13.0239    9.7780 C   0  0  0  0  0  0  0  0  0  0  0  0
   28.5741   12.9159    8.5626 C   0  0  0  0  0  0  0  0  0  0  0  0
   29.2621   11.8574    7.8768 N   0  0  0  0  0  0  0  0  0  0  0  0
   30.2346   10.9301    8.2624 C   0  0  0  0  0  0  0  0  0  0  0  0
   30.2793   10.2304    9.2335 O   0  0  0  0  0  0  0  0  0  0  0  0
   31.2555   10.6328    7.3864 C   0  0  0  0  0  0  0  0  0  0  0  0
   31.9167   11.7161    6.5464 C   0  0  0  0  0  0  0  0  0  0  0  0
   32.9794   11.0753    5.6481 C   0  0  0  0  0  0  0  0  0  0  0  0
   33.7362   12.0014    4.7162 C   0  0  0  0  0  0  0  0  0  0  0  0
   34.6902   11.4308    3.8801 C   0  0  0  0  0  0  0  0  0  0  0  0
   34.9236   10.0476    3.9218 C   0  0  0  0  0  0  0  0  0  0  0  0
   35.9386    9.4166    3.0228 C   0  0  0  0  0  0  0  0  0  0  0  0
   34.2067    9.2286    4.8090 C   0  0  0  0  0  0  0  0  0  0  0  0
   33.2384    9.7085    5.6742 C   0  0  0  0  0  0  0  0  0  0  0  0
   32.5861    8.8704    6.4874 N   0  0  0  0  0  0  0  0  0  0  0  0
   31.6231    9.3291    7.3129 C   0  0  0  0  0  0  0  0  0  0  0  0
   30.9796    8.4017    8.1090 C   0  0  0  0  0  0  0  0  0  0  0  0
  1  2  1  0
  2  3  1  0
  3  4  2  0
  3  5  1  0
  5  6  2  0
  6  7  1  0
  7  8  2  0
  8  9  1  0
  9 10  2  0
 10 11  1  0
 11 12  1  0
 12 13  2  0
 12 14  1  0
 14 15  2  0
 15 16  1  0
 16 17  2  0
 17 18  1  0
 18 19  2  0
 19 20  1  0
 19 21  1  0
 21 22  2  0
 22 23  1  0
 23 24  2  0
 24 25  1  0
 10  5  1  0
 24 14  1  0
 22 16  1  0
A    1
 C1 
A    2
 O1 
A    3
 C2 
A    4
 O2 
A    5
 C3 
A    6
 C4 
A    7
 C5 
A    8
 C6 
A    9
 C7 
A   10
 C8 
A   11
 N1 
A   12
 C9 
A   13
 O3 
A   14
 C10
A   15
 C11
A   16
 C12
A   17
 C13
A   18
 C14
A   19
 C15
A   20
 C16
A   21
 C17
A   22
 C18
A   23
 N2 
A   24
 C19
A   25
 C20
M  END
>  <ref_pdb>  (174) 
Ax0310a

>  <ref_mols>  (174) 
Ax0446a,Ax1080a,Ax0812a,Ax0719a,Ax1140a,Ax0528a,Ax0310a

>  <original SMILES>  (174) 
COC(=O)c1ccccc1NC(=O)c1cc2ccc(C)cc2nc1C

>  <rationale>  (174) 
info info set:screening_pocket;hydroph_interaction:P107+Y89+Y90+H21; pication:H21; 

>  <experiment>  (174) 
screening_pocket

>  <cluster_label>  (174) 
12

>  <cluster_rank>  (174) 
14

>  <N_interactions>  (174) 
6

>  <∆∆G>  (174) 
-2.066048

>  <comRMSD>  (174) 
0.855046

>  <ROCS_TanimotoCombo>  (174) 
0.634

>  <ROCS_ShapeTanimoto>  (174) 
0.278

>  <ROCS_ColorTanimoto>  (174) 
0.356

$$$$
EN300_27115592
     RDKit          3D

 19 20  0  0  0  0  0  0  0  0999 V2000
   27.9032   14.3898   10.1023 C   0  0  0  0  0  0  0  0  0  0  0  0
   28.8942   14.4140    8.9737 C   0  0  0  0  0  0  0  0  0  0  0  0
   30.2712   14.6703    9.4731 C   0  0  0  0  0  0  0  0  0  0  0  0
   28.4948   15.4019    7.9088 C   0  0  0  0  0  0  0  0  0  0  0  0
   28.9172   13.1242    8.3834 O   0  0  0  0  0  0  0  0  0  0  0  0
   30.0062   12.7014    7.7275 C   0  0  0  0  0  0  0  0  0  0  0  0
   30.4654   13.1642    6.6976 O   0  0  0  0  0  0  0  0  0  0  0  0
   30.5000   11.6728    8.4269 N   0  0  0  0  0  0  0  0  0  0  0  0
   31.3262   10.7894    7.8119 C   0  0  2  0  0  0  0  0  0  0  0  0
   32.6307   11.1315    7.1899 C   0  0  0  0  0  0  0  0  0  0  0  0
   32.7959   10.0295    6.4357 C   0  0  2  0  0  0  0  0  0  0  0  0
   33.7590    9.9510    5.4069 C   0  0  0  0  0  0  0  0  0  0  0  0
   34.8631    9.4315    5.4120 O   0  0  0  0  0  0  0  0  0  0  0  0
   33.3927   10.5455    4.2511 O   0  0  0  0  0  0  0  0  0  0  0  0
   31.5370   10.9606    6.2596 C   0  0  0  0  0  0  0  0  0  0  0  0
   32.1468    8.7605    6.9667 O   0  0  0  0  0  0  0  0  0  0  0  0
   31.1297    9.2259    7.9094 C   0  0  0  0  0  0  0  0  0  0  0  0
   31.2167    8.3781    9.1001 C   0  0  0  0  0  0  0  0  0  0  0  0
   29.7827    8.5974    8.1670 C   0  0  0  0  0  0  0  0  0  0  0  0
  1  2  1  0
  2  3  1  0
  2  4  1  0
  2  5  1  0
  5  6  1  0
  6  7  2  0
  6  8  1  0
  9  8  1  1
  9 10  1  0
 10 11  1  0
 11 12  1  6
 12 13  2  0
 12 14  1  0
 11 15  1  0
 11 16  1  0
 16 17  1  0
 17 18  1  0
 17 19  1  0
 15  9  1  0
 17  9  1  0
A    1
 C1 
A    2
 C2 
A    3
 C3 
A    4
 C4 
A    5
 O1 
A    6
 C5 
A    7
 O2 
A    8
 N1 
A    9
 C6 
A   10
 C7 
A   11
 C8 
A   12
 C9 
A   13
 O3 
A   14
 O4 
A   15
 C10
A   16
 O5 
A   17
 C11
A   18
 C12
A   19
 C13
M  END
>  <ref_pdb>  (175) 
Ax0310a

>  <ref_mols>  (175) 
Ax0446a,Ax1080a,Ax0812a,Ax0719a,Ax1140a,Ax0528a,Ax0310a

>  <original SMILES>  (175) 
CC(C)(C)OC(=O)N[C@]12C[C@](C(=O)O)(C1)OC2(C)C

>  <rationale>  (175) 
info info set:bb_whole;hbond:S87+S125+G127; hydroph_interaction:P107+Y89+Y90+V124; 

>  <experiment>  (175) 
bb_whole

>  <cluster_label>  (175) 
3

>  <cluster_rank>  (175) 
14

>  <N_interactions>  (175) 
7

>  <∆∆G>  (175) 
-4.350561

>  <comRMSD>  (175) 
0.863382

>  <ROCS_TanimotoCombo>  (175) 
0.436

>  <ROCS_ShapeTanimoto>  (175) 
0.24

>  <ROCS_ColorTanimoto>  (175) 
0.196

$$$$
EN300_108163
     RDKit          3D

 14 14  0  0  0  0  0  0  0  0999 V2000
   34.9009   14.8810    8.0731 N   0  0  0  0  0  0  0  0  0  0  0  0
   33.6540   13.8102    8.3713 S   0  0  0  0  0  6  0  0  0  0  0  0
   32.5225   14.4931    8.9579 O   0  0  0  0  0  0  0  0  0  0  0  0
   34.2998   12.8128    9.1433 O   0  0  0  0  0  0  0  0  0  0  0  0
   33.3022   13.1894    6.7075 C   0  0  0  0  0  0  0  0  0  0  0  0
   32.6075   11.8893    6.9268 C   0  0  0  0  0  0  0  0  0  0  0  0
   33.0974   10.5236    6.6489 C   0  0  0  0  0  0  0  0  0  0  0  0
   32.3543    9.2725    6.9689 C   0  0  0  0  0  0  0  0  0  0  0  0
   30.9769    9.0491    7.6361 C   0  0  0  0  0  0  0  0  0  0  0  0
   30.4990   10.3557    7.8492 C   0  0  0  0  0  0  0  0  0  0  0  0
   31.1615   11.7288    7.5382 C   0  0  0  0  0  0  0  0  0  0  0  0
   30.3988   12.8273    7.8282 N   0  0  0  0  0  4  0  0  0  0  0  0
   29.7823   13.2933    6.8488 O   0  0  0  0  0  0  0  0  0  0  0  0
   30.6522   13.4831    8.8334 O   0  0  0  0  0  1  0  0  0  0  0  0
  1  2  1  0
  2  3  2  0
  2  4  2  0
  2  5  1  0
  5  6  1  0
  6  7  2  0
  7  8  1  0
  8  9  2  0
  9 10  1  0
 10 11  2  0
 11 12  1  0
 12 13  2  0
 12 14  1  0
 11  6  1  0
M  CHG  2  12   1  14  -1
A    1
 N1 
A    2
 S1 
A    3
 O1 
A    4
 O2 
A    5
 C1 
A    6
 C2 
A    7
 C3 
A    8
 C4 
A    9
 C5 
A   10
 C6 
A   11
 C7 
A   12
 N2 
A   13
 O3 
A   14
 O4 
M  END
>  <ref_pdb>  (176) 
Ax0310a

>  <ref_mols>  (176) 
Ax0446a,Ax1080a,Ax0812a,Ax0719a,Ax1140a,Ax0528a,Ax0310a

>  <original SMILES>  (176) 
NS(=O)(=O)Cc1ccccc1[N+](=O)[O-]

>  <rationale>  (176) 
info info set:sulfonimide_whole;hbond:S87+G127+A86; 

>  <experiment>  (176) 
sulfonimide_whole

>  <cluster_label>  (176) 
5

>  <cluster_rank>  (176) 
14

>  <N_interactions>  (176) 
3

>  <∆∆G>  (176) 
-3.422818

>  <comRMSD>  (176) 
0.576577

>  <ROCS_TanimotoCombo>  (176) 
0.357

>  <ROCS_ShapeTanimoto>  (176) 
0.199

>  <ROCS_ColorTanimoto>  (176) 
0.158

$$$$
Z155070388
     RDKit          3D

 12 12  0  0  0  0  0  0  0  0999 V2000
   28.7216   15.9333    8.0906 N   0  0  0  0  0  0  0  0  0  0  0  0
   28.8076   14.5961    7.6704 C   0  0  0  0  0  0  0  0  0  0  0  0
   29.8100   13.6263    8.3119 C   0  0  0  0  0  0  0  0  0  0  0  0
   29.6485   12.3412    7.5412 C   0  0  0  0  0  0  0  0  0  0  0  0
   30.3611   11.0698    8.0835 C   0  0  0  0  0  0  0  0  0  0  0  0
   30.1148   10.2736    9.2156 O   0  0  0  0  0  0  0  0  0  0  0  0
   31.4651   10.6603    7.1507 C   0  0  0  0  0  0  0  0  0  0  0  0
   32.0958   11.6381    6.2042 C   0  0  0  0  0  0  0  0  0  0  0  0
   33.2429   11.1986    5.2251 C   0  0  0  0  0  0  0  0  0  0  0  0
   33.5538    9.6985    5.4331 C   0  0  0  0  0  0  0  0  0  0  0  0
   32.9651    8.8537    6.3013 N   0  0  0  0  0  0  0  0  0  0  0  0
   31.9869    9.2493    7.1200 C   0  0  0  0  0  0  0  0  0  0  0  0
  1  2  3  0
  2  3  1  0
  3  4  1  0
  4  5  1  0
  5  6  2  0
  5  7  1  0
  7  8  2  0
  8  9  1  0
  9 10  2  0
 10 11  1  0
 11 12  2  0
 12  7  1  0
A    1
 N1 
A    2
 C1 
A    3
 C2 
A    4
 C3 
A    5
 C4 
A    6
 O1 
A    7
 C5 
A    8
 C6 
A    9
 C7 
A   10
 C8 
A   11
 N2 
A   12
 C9 
M  END
>  <ref_pdb>  (177) 
Ax0310a

>  <ref_mols>  (177) 
Ax0446a,Ax1080a,Ax0812a,Ax0719a,Ax1140a,Ax0528a,Ax0310a

>  <original SMILES>  (177) 
N#CCCC(=O)c1cccnc1

>  <rationale>  (177) 
info info set:screening_pocket;hbond:S125+Y90+E88; hydroph_interaction:P107; 

>  <experiment>  (177) 
screening_pocket

>  <cluster_label>  (177) 
8

>  <cluster_rank>  (177) 
14

>  <N_interactions>  (177) 
4

>  <∆∆G>  (177) 
-2.009237

>  <comRMSD>  (177) 
0.691777

>  <ROCS_TanimotoCombo>  (177) 
0.649

>  <ROCS_ShapeTanimoto>  (177) 
0.192

>  <ROCS_ColorTanimoto>  (177) 
0.457

$$$$
EN300_26665331
     RDKit          3D

 18 19  0  0  0  0  0  0  0  0999 V2000
   29.9150   15.0731    9.2050 C   0  0  0  0  0  0  0  0  0  0  0  0
   28.6622   14.5311    8.5410 C   0  0  0  0  0  0  0  0  0  0  0  0
   28.5064   14.9800    7.1306 C   0  0  0  0  0  0  0  0  0  0  0  0
   27.4290   15.0077    9.2370 C   0  0  0  0  0  0  0  0  0  0  0  0
   28.7450   13.1205    8.3901 O   0  0  0  0  0  0  0  0  0  0  0  0
   29.7770   12.6669    7.6702 C   0  0  0  0  0  0  0  0  0  0  0  0
   30.2182   13.1311    6.6340 O   0  0  0  0  0  0  0  0  0  0  0  0
   30.3149   11.5002    8.3445 N   0  0  0  0  0  0  0  0  0  0  0  0
   31.2135   10.6257    7.6846 C   0  0  0  0  0  0  0  0  0  0  0  0
   31.1894    9.2008    7.6532 N   0  0  0  0  0  0  0  0  0  0  0  0
   32.2617    8.6949    6.8720 N   0  0  0  0  0  0  0  0  0  0  0  0
   32.9467    9.7420    6.4222 C   0  0  0  0  0  0  0  0  0  0  0  0
   34.0630    9.7078    5.6316 N   0  0  0  0  0  0  0  0  0  0  0  0
   34.5586   10.9512    5.3459 C   0  0  0  0  0  0  0  0  0  0  0  0
   35.6897   10.9416    4.5687 O   0  0  0  0  0  0  0  0  0  0  0  0
   33.9886   12.2990    5.8030 C   0  0  0  0  0  0  0  0  0  0  0  0
   32.8530   12.2942    6.5943 C   0  0  0  0  0  0  0  0  0  0  0  0
   32.4006   11.0015    6.8599 C   0  0  0  0  0  0  0  0  0  0  0  0
  1  2  1  0
  2  3  1  0
  2  4  1  0
  2  5  1  0
  5  6  1  0
  6  7  2  0
  6  8  1  0
  8  9  1  0
  9 10  1  0
 10 11  1  0
 11 12  2  0
 12 13  1  0
 13 14  2  0
 14 15  1  0
 14 16  1  0
 16 17  2  0
 17 18  1  0
 18  9  2  0
 18 12  1  0
A    1
 C1 
A    2
 C2 
A    3
 C3 
A    4
 C4 
A    5
 O1 
A    6
 C5 
A    7
 O2 
A    8
 N1 
A    9
 C6 
A   10
 N2 
A   11
 N3 
A   12
 C7 
A   13
 N4 
A   14
 C8 
A   15
 O3 
A   16
 C9 
A   17
 C10
A   18
 C11
M  END
>  <ref_pdb>  (178) 
Ax0310a

>  <ref_mols>  (178) 
Ax0446a,Ax1080a,Ax0812a,Ax0719a,Ax1140a,Ax0528a,Ax0310a

>  <original SMILES>  (178) 
CC(C)(C)OC(=O)Nc1[nH]nc2nc(O)ccc12

>  <rationale>  (178) 
info info set:bb_whole;hbond:S87+S105+S125+G127; hydroph_interaction:Y90+H21; 

>  <experiment>  (178) 
bb_whole

>  <cluster_label>  (178) 
9

>  <cluster_rank>  (178) 
14

>  <N_interactions>  (178) 
7

>  <∆∆G>  (178) 
-6.764664

>  <comRMSD>  (178) 
0.508253

>  <ROCS_TanimotoCombo>  (178) 
0.411

>  <ROCS_ShapeTanimoto>  (178) 
0.236

>  <ROCS_ColorTanimoto>  (178) 
0.175

$$$$
EN300_01954
     RDKit          3D

 15 15  0  0  0  0  0  0  0  0999 V2000
   33.4398   11.5705    3.7058 N   0  0  0  0  0  0  0  0  0  0  0  0
   34.1498   11.5393    5.2118 S   0  0  0  0  0  6  0  0  0  0  0  0
   34.5213   12.9032    5.5206 O   0  0  0  0  0  0  0  0  0  0  0  0
   35.1295   10.4790    5.1507 O   0  0  0  0  0  0  0  0  0  0  0  0
   32.8154   11.0361    6.3099 C   0  0  0  0  0  0  0  0  0  0  0  0
   32.6562    9.5711    6.5316 C   0  0  0  0  0  0  0  0  0  0  0  0
   31.6330    9.1643    7.3891 C   0  0  0  0  0  0  0  0  0  0  0  0
   30.8049   10.1056    7.9978 C   0  0  0  0  0  0  0  0  0  0  0  0
   30.9693   11.4902    7.7675 C   0  0  0  0  0  0  0  0  0  0  0  0
   30.0801   12.3509    8.4209 N   0  0  0  0  0  0  0  0  0  0  0  0
   30.3440   13.5755    8.9971 C   0  0  0  0  0  0  0  0  0  0  0  0
   31.6241   14.1769    9.1335 O   0  0  0  0  0  0  0  0  0  0  0  0
   29.1289   14.2933    9.5018 C   0  0  0  0  0  0  0  0  0  0  0  0
   28.2498   15.0594    8.1700 Cl  0  0  0  0  0  0  0  0  0  0  0  0
   31.9754   11.9528    6.9256 C   0  0  0  0  0  0  0  0  0  0  0  0
  1  2  1  0
  2  3  2  0
  2  4  2  0
  2  5  1  0
  5  6  2  0
  6  7  1  0
  7  8  2  0
  8  9  1  0
  9 10  1  0
 10 11  1  0
 11 12  2  0
 11 13  1  0
 13 14  1  0
  9 15  2  0
 15  5  1  0
A    1
 N1 
A    2
 S1 
A    3
 O1 
A    4
 O2 
A    5
 C1 
A    6
 C2 
A    7
 C3 
A    8
 C4 
A    9
 C5 
A   10
 N2 
A   11
 C6 
A   12
 O3 
A   13
 C7 
A   14
CL1 
A   15
 C8 
M  END
>  <ref_pdb>  (179) 
Ax0310a

>  <ref_mols>  (179) 
Ax0446a,Ax1080a,Ax0812a,Ax0719a,Ax1140a,Ax0528a,Ax0310a

>  <original SMILES>  (179) 
NS(=O)(=O)c1cccc(NC(=O)CCl)c1

>  <rationale>  (179) 
info info set:sulfonimide_whole;halogenbond:E88; hbond:S87; 

>  <experiment>  (179) 
sulfonimide_whole

>  <cluster_label>  (179) 
7

>  <cluster_rank>  (179) 
14

>  <N_interactions>  (179) 
2

>  <∆∆G>  (179) 
-6.952886

>  <comRMSD>  (179) 
0.263532

>  <ROCS_TanimotoCombo>  (179) 
0.346

>  <ROCS_ShapeTanimoto>  (179) 
0.206

>  <ROCS_ColorTanimoto>  (179) 
0.14

$$$$
EN300_278339
     RDKit          3D

 15 15  0  0  0  0  0  0  0  0999 V2000
   34.8025   14.2155    6.9335 C   0  0  0  0  0  0  0  0  0  0  0  0
   33.8347   13.6808    6.0069 O   0  0  0  0  0  0  0  0  0  0  0  0
   33.5006   12.3586    6.1708 C   0  0  0  0  0  0  0  0  0  0  0  0
   34.3622   11.3689    5.4889 C   0  0  0  0  0  0  0  0  0  0  0  0
   33.9597    9.9265    5.6869 C   0  0  0  0  0  0  0  0  0  0  0  0
   32.7758    9.2521    6.5082 C   0  0  0  0  0  0  0  0  0  0  0  0
   31.9318   10.3673    7.1938 C   0  0  0  0  0  0  0  0  0  0  0  0
   30.5464    9.8855    8.1942 S   0  0  0  0  0  6  0  0  0  0  0  0
   30.9064    8.7283    9.3761 N   0  0  0  0  0  0  0  0  0  0  0  0
   29.6710    8.9401    7.6751 O   0  0  0  0  0  0  0  0  0  0  0  0
   30.1089   11.1699    8.7784 O   0  0  0  0  0  0  0  0  0  0  0  0
   32.2793   11.9220    7.0219 C   0  0  0  0  0  0  0  0  0  0  0  0
   31.4458   12.8815    7.6545 N   0  0  0  0  0  4  0  0  0  0  0  0
   30.5235   13.2896    6.9305 O   0  0  0  0  0  0  0  0  0  0  0  0
   31.9571   13.5507    8.5630 O   0  0  0  0  0  1  0  0  0  0  0  0
  1  2  1  0
  2  3  1  0
  3  4  2  0
  4  5  1  0
  5  6  2  0
  6  7  1  0
  7  8  1  0
  8  9  1  0
  8 10  2  0
  8 11  2  0
  7 12  2  0
 12 13  1  0
 13 14  2  0
 13 15  1  0
 12  3  1  0
M  CHG  2  13   1  15  -1
A    1
 C1 
A    2
 O1 
A    3
 C2 
A    4
 C3 
A    5
 C4 
A    6
 C5 
A    7
 C6 
A    8
 S1 
A    9
 N1 
A   10
 O2 
A   11
 O3 
A   12
 C7 
A   13
 N2 
A   14
 O4 
A   15
 O5 
M  END
>  <ref_pdb>  (180) 
Ax0310a

>  <ref_mols>  (180) 
Ax0446a,Ax1080a,Ax0812a,Ax0719a,Ax1140a,Ax0528a,Ax0310a

>  <original SMILES>  (180) 
COc1cccc(S(N)(=O)=O)c1[N+](=O)[O-]

>  <rationale>  (180) 
info info set:sulfonimide_whole;hbond:S105+C110+T126; 

>  <experiment>  (180) 
sulfonimide_whole

>  <cluster_label>  (180) 
16

>  <cluster_rank>  (180) 
15

>  <N_interactions>  (180) 
3

>  <∆∆G>  (180) 
-3.156227

>  <comRMSD>  (180) 
0.802626

>  <ROCS_TanimotoCombo>  (180) 
0.33

>  <ROCS_ShapeTanimoto>  (180) 
0.2

>  <ROCS_ColorTanimoto>  (180) 
0.13

$$$$
Z4313779770
     RDKit          3D

 26 29  0  0  0  0  0  0  0  0999 V2000
   30.6450   13.1047    5.9828 O   0  0  0  0  0  0  0  0  0  0  0  0
   31.0633   12.1728    6.6625 C   0  0  0  0  0  0  0  0  0  0  0  0
   30.1195   11.4663    7.4838 N   0  0  0  0  0  0  0  0  0  0  0  0
   30.8094   10.5571    8.3391 C   0  0  0  0  0  0  0  0  0  0  0  0
   31.2890    9.2254    7.7966 C   0  0  0  0  0  0  0  0  0  0  0  0
   32.3415    9.2624    7.1432 O   0  0  0  0  0  0  0  0  0  0  0  0
   32.5402   10.2715    6.1253 C   0  0  2  0  0  0  0  0  0  0  0  0
   33.8396    9.7988    5.4151 C   0  0  0  0  0  0  0  0  0  0  0  0
   34.7229   10.9878    4.9353 C   0  0  0  0  0  0  0  0  0  0  0  0
   33.9490   12.2974    4.7049 C   0  0  0  0  0  0  0  0  0  0  0  0
   33.3285   12.6786    5.9619 N   0  0  0  0  0  0  0  0  0  0  0  0
   33.8434   14.0024    6.8547 S   0  0  0  0  0  6  0  0  0  0  0  0
   34.1863   15.0796    5.9716 O   0  0  0  0  0  0  0  0  0  0  0  0
   32.9257   14.0715    7.9840 O   0  0  0  0  0  0  0  0  0  0  0  0
   35.2633   13.6899    7.6534 C   0  0  0  0  0  0  0  0  0  0  0  0
   36.6381   13.6554    7.1470 C   0  0  0  0  0  0  0  0  0  0  0  0
   37.5248   13.3265    8.0696 N   0  0  0  0  0  0  0  0  0  0  0  0
   36.7586   13.1264    9.1858 N   0  0  0  0  0  0  0  0  0  0  0  0
   37.4350   12.6697   10.3476 C   0  0  0  0  0  0  0  0  0  0  0  0
   38.6303   13.4197   10.9903 C   0  0  0  0  0  0  0  0  0  0  0  0
   39.2413   12.7317   12.1979 C   0  0  0  0  0  0  0  0  0  0  0  0
   38.7467   11.5262   12.6556 C   0  0  0  0  0  0  0  0  0  0  0  0
   37.6681   10.9606   12.0026 C   0  0  0  0  0  0  0  0  0  0  0  0
   37.0105   11.4708   10.9086 C   0  0  0  0  0  0  0  0  0  0  0  0
   35.3940   13.3710    8.9537 C   0  0  0  0  0  0  0  0  0  0  0  0
   32.5289   11.6931    6.6927 C   0  0  1  0  0  0  0  0  0  0  0  0
  1  2  2  0
  2  3  1  0
  3  4  1  0
  4  5  1  0
  5  6  1  0
  6  7  1  0
  7  8  1  1
  8  9  1  0
  9 10  1  0
 10 11  1  0
 11 12  1  0
 12 13  2  0
 12 14  2  0
 12 15  1  0
 15 16  1  0
 16 17  2  0
 17 18  1  0
 18 19  1  0
 19 20  2  0
 20 21  1  0
 21 22  2  0
 22 23  1  0
 23 24  2  0
 18 25  1  0
 26 11  1  6
 26  2  1  0
 26  7  1  0
 25 15  2  0
 24 19  1  0
A    1
 O1 
A    2
 C1 
A    3
 N1 
A    4
 C2 
A    5
 C3 
A    6
 O2 
A    7
 C4 
A    8
 C5 
A    9
 C6 
A   10
 C7 
A   11
 N2 
A   12
 S1 
A   13
 O3 
A   14
 O4 
A   15
 C8 
A   16
 C9 
A   17
 N3 
A   18
 N4 
A   19
 C10
A   20
 C11
A   21
 C12
A   22
 C13
A   23
 C14
A   24
 C15
A   25
 C16
A   26
 C17
M  END
>  <ref_pdb>  (181) 
Ax0310a

>  <ref_mols>  (181) 
Ax0446a,Ax1080a,Ax0812a,Ax0719a,Ax1140a,Ax0528a,Ax0310a

>  <original SMILES>  (181) 
O=C1NCCO[C@@H]2CCCN(S(=O)(=O)c3cnn(-c4ccccc4)c3)[C@@H]12

>  <rationale>  (181) 
info info set:screening_whole;hbond:E85; hydroph_interaction:L100+L131; 

>  <experiment>  (181) 
screening_whole

>  <cluster_label>  (181) 
17

>  <cluster_rank>  (181) 
15

>  <N_interactions>  (181) 
4

>  <∆∆G>  (181) 
-0.407266

>  <comRMSD>  (181) 
0.860361

>  <ROCS_TanimotoCombo>  (181) 
0.456

>  <ROCS_ShapeTanimoto>  (181) 
0.257

>  <ROCS_ColorTanimoto>  (181) 
0.199

$$$$
Z4423586070
     RDKit          3D

 14 15  0  0  0  0  0  0  0  0999 V2000
   29.4403   14.1713    9.6598 C   0  0  0  0  0  0  0  0  0  0  0  0
   30.4903   13.3390    9.1489 O   0  0  0  0  0  0  0  0  0  0  0  0
   31.6627   14.0188    9.0370 C   0  0  0  0  0  0  0  0  0  0  0  0
   31.8813   15.0446    9.6515 O   0  0  0  0  0  0  0  0  0  0  0  0
   32.6006   13.5582    8.1966 C   0  0  0  0  0  0  0  0  0  0  0  0
   33.8795   14.1924    8.0545 C   0  0  0  0  0  0  0  0  0  0  0  0
   34.9406   13.5188    6.9272 S   0  0  0  0  0  0  0  0  0  0  0  0
   33.7745   12.3179    6.5637 C   0  0  0  0  0  0  0  0  0  0  0  0
   32.5878   12.4501    7.2956 C   0  0  0  0  0  0  0  0  0  0  0  0
   31.5632   11.4298    6.9693 C   0  0  0  0  0  0  0  0  0  0  0  0
   30.8294   11.9832    6.1740 O   0  0  0  0  0  0  0  0  0  0  0  0
   30.9131   10.5250    7.9566 C   0  0  0  0  0  0  0  0  0  0  0  0
   31.5153    9.3749    7.4736 N   0  0  0  0  0  0  0  0  0  0  0  0
   32.2352   10.0230    6.5059 C   0  0  0  0  0  0  0  0  0  0  0  0
  1  2  1  0
  2  3  1  0
  3  4  2  0
  3  5  1  0
  5  6  2  0
  6  7  1  0
  7  8  1  0
  8  9  2  0
  9 10  1  0
 10 11  1  0
 10 12  1  0
 12 13  1  0
 13 14  1  0
  9  5  1  0
 14 10  1  0
A    1
 C1 
A    2
 O1 
A    3
 C2 
A    4
 O2 
A    5
 C3 
A    6
 C4 
A    7
 S1 
A    8
 C5 
A    9
 C6 
A   10
 C7 
A   11
 O3 
A   12
 C8 
A   13
 N1 
A   14
 C9 
M  END
>  <ref_pdb>  (182) 
Ax0310a

>  <ref_mols>  (182) 
Ax0446a,Ax1080a,Ax0812a,Ax0719a,Ax1140a,Ax0528a,Ax0310a

>  <original SMILES>  (182) 
COC(=O)c1cscc1C1(O)CNC1

>  <rationale>  (182) 
info info set:3d;hbond:S87+E106; 

>  <experiment>  (182) 
3d

>  <cluster_label>  (182) 
6

>  <cluster_rank>  (182) 
15

>  <N_interactions>  (182) 
2

>  <∆∆G>  (182) 
-1.92305

>  <comRMSD>  (182) 
0.526483

>  <ROCS_TanimotoCombo>  (182) 
0.313

>  <ROCS_ShapeTanimoto>  (182) 
0.186

>  <ROCS_ColorTanimoto>  (182) 
0.127

$$$$
Z2659385219
     RDKit          3D

 19 20  0  0  0  0  0  0  0  0999 V2000
   26.9385   12.0139    6.8492 C   0  0  0  0  0  0  0  0  0  0  0  0
   27.4066   13.3922    7.1710 C   0  0  0  0  0  0  0  0  0  0  0  0
   28.5468   13.7652    8.0125 C   0  0  0  0  0  0  0  0  0  0  0  0
   28.9539   12.4171    8.3837 C   0  0  0  0  0  0  0  0  0  0  0  0
   30.3348   12.2210    8.3575 N   0  0  0  0  0  0  0  0  0  0  0  0
   30.7282   12.0381    7.1074 C   0  0  0  0  0  0  0  0  0  0  0  0
   30.2102   12.7855    5.9906 O   0  0  0  0  0  0  0  0  0  0  0  0
   31.6952   11.0199    6.6885 C   0  0  0  0  0  0  0  0  0  0  0  0
   32.6723   11.4234    5.8105 C   0  0  0  0  0  0  0  0  0  0  0  0
   33.6680   10.4492    5.3358 C   0  0  0  0  0  0  0  0  0  0  0  0
   34.6212   10.8296    4.4808 F   0  0  0  0  0  0  0  0  0  0  0  0
   33.5970    9.1405    5.7873 C   0  0  0  0  0  0  0  0  0  0  0  0
   32.6076    8.7837    6.6674 N   0  0  0  0  0  0  0  0  0  0  0  0
   31.7126    9.6904    7.0875 C   0  0  0  0  0  0  0  0  0  0  0  0
   30.8095    9.1463    7.9592 O   0  0  0  0  0  0  0  0  0  0  0  0
   28.7008   15.1006    8.0741 C   0  0  0  0  0  0  0  0  0  0  0  0
   27.7114   15.5907    7.3241 N   0  0  0  0  0  0  0  0  0  0  0  0
   26.9414   14.5414    6.7994 N   0  0  0  0  0  0  0  0  0  0  0  0
   25.7646   14.6260    5.9497 C   0  0  0  0  0  0  0  0  0  0  0  0
  1  2  1  0
  2  3  2  0
  3  4  1  0
  4  5  1  0
  5  6  1  0
  6  7  2  0
  6  8  1  0
  8  9  2  0
  9 10  1  0
 10 11  1  0
 10 12  2  0
 12 13  1  0
 13 14  2  0
 14 15  1  0
  3 16  1  0
 16 17  2  0
 17 18  1  0
 18 19  1  0
 18  2  1  0
 14  8  1  0
A    1
 C1 
A    2
 C2 
A    3
 C3 
A    4
 C4 
A    5
 N1 
A    6
 C5 
A    7
 O1 
A    8
 C6 
A    9
 C7 
A   10
 C8 
A   11
 F1 
A   12
 C9 
A   13
 N2 
A   14
 C10
A   15
 O2 
A   16
 C11
A   17
 N3 
A   18
 N4 
A   19
 C12
M  END
>  <ref_pdb>  (183) 
Ax0310a

>  <ref_mols>  (183) 
Ax0446a,Ax1080a,Ax0812a,Ax0719a,Ax1140a,Ax0528a,Ax0310a

>  <original SMILES>  (183) 
Cc1c(CNC(=O)c2cc(F)cnc2O)cnn1C

>  <rationale>  (183) 
info info set:screening_pocket;hbond:S105+S125; hydroph_interaction:P107; pication:H21; 

>  <experiment>  (183) 
screening_pocket

>  <cluster_label>  (183) 
12

>  <cluster_rank>  (183) 
15

>  <N_interactions>  (183) 
5

>  <∆∆G>  (183) 
-1.744126

>  <comRMSD>  (183) 
0.669613

>  <ROCS_TanimotoCombo>  (183) 
0.64

>  <ROCS_ShapeTanimoto>  (183) 
0.252

>  <ROCS_ColorTanimoto>  (183) 
0.387

$$$$
Z3857245815
     RDKit          3D

 25 28  0  0  0  0  0  0  0  0999 V2000
   27.3157   15.1427    8.8451 C   0  0  0  0  0  0  0  0  0  0  0  0
   28.4008   14.5236    8.0872 C   0  0  0  0  0  0  0  0  0  0  0  0
   29.5202   14.4455    8.7932 C   0  0  0  0  0  0  0  0  0  0  0  0
   30.6461   13.8806    8.1162 C   0  0  0  0  0  0  0  0  0  0  0  0
   31.7411   13.8115    8.6565 O   0  0  0  0  0  0  0  0  0  0  0  0
   30.3920   13.4593    6.6858 C   0  0  0  0  0  0  0  0  0  0  0  0
   31.4132   12.8902    5.8225 C   0  0  0  0  0  0  0  0  0  0  0  0
   31.9482   13.5204    4.9163 O   0  0  0  0  0  0  0  0  0  0  0  0
   31.6249   11.6497    6.2072 N   0  0  0  0  0  0  0  0  0  0  0  0
   32.7086   10.9168    5.6011 C   0  0  1  0  0  0  0  0  0  0  0  0
   33.8122   11.7539    6.1201 C   0  0  0  0  0  0  0  0  0  0  0  0
   33.1923   12.2941    7.4335 C   0  0  0  0  0  0  0  0  0  0  0  0
   31.7828   11.6191    7.6036 C   0  0  2  0  0  0  0  0  0  0  0  0
   31.4132   10.1587    7.9967 C   0  0  0  0  0  0  0  0  0  0  0  0
   30.7032    9.8963    8.9568 O   0  0  0  0  0  0  0  0  0  0  0  0
   31.8698    9.1703    7.1942 N   0  0  0  0  0  0  0  0  0  0  0  0
   32.8084    9.4937    6.1405 C   0  0  0  0  0  0  0  0  0  0  0  0
   29.2856   13.5710    6.0852 N   0  0  0  0  0  0  0  0  0  0  0  0
   28.2418   14.0792    6.7434 N   0  0  0  0  0  0  0  0  0  0  0  0
   27.1529   13.3193    6.2255 C   0  0  0  0  0  0  0  0  0  0  0  0
   26.7520   12.2279    6.8865 C   0  0  0  0  0  0  0  0  0  0  0  0
   25.6934   11.4235    6.4537 C   0  0  0  0  0  0  0  0  0  0  0  0
   25.0150   11.7181    5.3126 C   0  0  0  0  0  0  0  0  0  0  0  0
   25.4017   12.8272    4.5992 C   0  0  0  0  0  0  0  0  0  0  0  0
   26.4629   13.6219    5.0503 C   0  0  0  0  0  0  0  0  0  0  0  0
  1  2  1  0
  2  3  2  0
  3  4  1  0
  4  5  2  0
  4  6  1  0
  6  7  1  0
  7  8  2  0
  7  9  1  0
  9 10  1  0
 10 11  1  1
 11 12  1  0
 13 12  1  6
 13 14  1  0
 14 15  2  0
 14 16  1  0
 16 17  1  0
  6 18  2  0
 18 19  1  0
 19 20  1  0
 20 21  2  0
 21 22  1  0
 22 23  2  0
 23 24  1  0
 24 25  2  0
 19  2  1  0
 25 20  1  0
 13  9  1  0
 17 10  1  0
A    1
 C1 
A    2
 C2 
A    3
 C3 
A    4
 C4 
A    5
 O1 
A    6
 C5 
A    7
 C6 
A    8
 O2 
A    9
 N1 
A   10
 C7 
A   11
 C8 
A   12
 C9 
A   13
 C10
A   14
 C11
A   15
 O3 
A   16
 N2 
A   17
 C12
A   18
 N3 
A   19
 N4 
A   20
 C13
A   21
 C14
A   22
 C15
A   23
 C16
A   24
 C17
A   25
 C18
M  END
>  <ref_pdb>  (184) 
Ax0310a

>  <ref_mols>  (184) 
Ax0446a,Ax1080a,Ax0812a,Ax0719a,Ax1140a,Ax0528a,Ax0310a

>  <original SMILES>  (184) 
Cc1cc(=O)c(C(=O)N2[C@H]3CC[C@@H]2C(=O)NC3)nn1-c1ccccc1

>  <rationale>  (184) 
info info set:screening_whole;hbond:S87+S105; hydroph_interaction:P107+Y89+Y90+H21; 

>  <experiment>  (184) 
screening_whole

>  <cluster_label>  (184) 
9

>  <cluster_rank>  (184) 
15

>  <N_interactions>  (184) 
9

>  <∆∆G>  (184) 
-1.269824

>  <comRMSD>  (184) 
0.993961

>  <ROCS_TanimotoCombo>  (184) 
0.458

>  <ROCS_ShapeTanimoto>  (184) 
0.252

>  <ROCS_ColorTanimoto>  (184) 
0.206

$$$$
EN300_221193
     RDKit          3D

 14 15  0  0  0  0  0  0  0  0999 V2000
   34.4485   14.5199    7.6887 N   0  0  0  0  0  0  0  0  0  0  0  0
   33.1151   13.7408    8.3753 S   0  0  0  0  0  6  0  0  0  0  0  0
   32.3634   14.6491    9.2184 O   0  0  0  0  0  0  0  0  0  0  0  0
   33.7344   12.6017    8.8991 O   0  0  0  0  0  0  0  0  0  0  0  0
   32.1334   13.3159    6.9420 C   0  0  2  0  0  0  0  0  0  0  0  0
   30.6237   13.1393    7.1390 C   0  0  0  0  0  0  0  0  0  0  0  0
   30.4424   12.2792    8.1601 N   0  0  0  0  0  0  0  0  0  0  0  0
   31.0331   11.0406    7.7904 C   0  0  0  0  0  0  0  0  0  0  0  0
   30.6000    9.7153    8.3447 C   0  0  0  0  0  0  0  0  0  0  0  0
   31.2987    8.4962    7.8657 C   0  0  0  0  0  0  0  0  0  0  0  0
   32.3963    8.7629    6.8488 C   0  0  0  0  0  0  0  0  0  0  0  0
   32.7510    9.9726    6.3870 C   0  0  0  0  0  0  0  0  0  0  0  0
   32.0869   11.0683    6.8514 C   0  0  0  0  0  0  0  0  0  0  0  0
   32.6433   12.1197    6.2443 C   0  0  0  0  0  0  0  0  0  0  0  0
  1  2  1  0
  2  3  2  0
  2  4  2  0
  5  2  1  1
  5  6  1  0
  6  7  1  0
  7  8  1  0
  8  9  2  0
  9 10  1  0
 10 11  2  0
 11 12  1  0
 12 13  2  0
 13 14  1  0
 14  5  1  0
 13  8  1  0
A    1
 N1 
A    2
 S1 
A    3
 O1 
A    4
 O2 
A    5
 C1 
A    6
 C2 
A    7
 N2 
A    8
 C3 
A    9
 C4 
A   10
 C5 
A   11
 C6 
A   12
 C7 
A   13
 C8 
A   14
 C9 
M  END
>  <ref_pdb>  (185) 
Ax0310a

>  <ref_mols>  (185) 
Ax0446a,Ax1080a,Ax0812a,Ax0719a,Ax1140a,Ax0528a,Ax0310a

>  <original SMILES>  (185) 
NS(=O)(=O)[C@@H]1CNc2ccccc2C1

>  <rationale>  (185) 
info info set:sulfonimide_whole;hbond:S87+S125+G127+A86; 

>  <experiment>  (185) 
sulfonimide_whole

>  <cluster_label>  (185) 
5

>  <cluster_rank>  (185) 
15

>  <N_interactions>  (185) 
4

>  <∆∆G>  (185) 
-4.091415

>  <comRMSD>  (185) 
0.564335

>  <ROCS_TanimotoCombo>  (185) 
0.338

>  <ROCS_ShapeTanimoto>  (185) 
0.204

>  <ROCS_ColorTanimoto>  (185) 
0.134

$$$$
EN300_1663909
     RDKit          3D

 16 17  0  0  0  0  0  0  0  0999 V2000
   35.7301   15.1280    4.5858 C   0  0  0  0  0  0  0  0  0  0  0  0
   34.4836   14.3057    5.5302 S   0  0  0  0  0  6  0  0  0  0  0  0
   33.1623   14.6592    5.1389 O   0  0  0  0  0  0  0  0  0  0  0  0
   34.8179   12.9151    5.5525 O   0  0  0  0  0  0  0  0  0  0  0  0
   34.7369   14.8246    7.1035 N   0  0  0  0  0  0  0  0  0  0  0  0
   34.7720   13.7396    7.9812 C   0  0  0  0  0  0  0  0  0  0  0  0
   33.3401   13.2190    8.1334 C   0  0  0  0  0  0  0  0  0  0  0  0
   32.4814   13.8238    8.9593 N   0  0  0  0  0  0  0  0  0  0  0  0
   31.2942   13.1646    8.8572 N   0  0  0  0  0  0  0  0  0  0  0  0
   31.4606   12.1754    8.0125 C   0  0  0  0  0  0  0  0  0  0  0  0
   32.7060   12.1593    7.5031 N   0  0  0  0  0  0  0  0  0  0  0  0
   33.1822   11.2028    6.4884 C   0  0  0  0  0  0  0  0  0  0  0  0
   32.6920    9.6785    6.5348 C   0  0  0  0  0  0  0  0  0  0  0  0
   32.0357    9.1987    7.7575 O   0  0  0  0  0  0  0  0  0  0  0  0
   30.7442    9.7034    8.1088 C   0  0  0  0  0  0  0  0  0  0  0  0
   30.4293   11.1291    7.5894 C   0  0  0  0  0  0  0  0  0  0  0  0
  1  2  1  0
  2  3  2  0
  2  4  2  0
  2  5  1  0
  5  6  1  0
  6  7  1  0
  7  8  2  0
  8  9  1  0
  9 10  2  0
 10 11  1  0
 11 12  1  0
 12 13  1  0
 13 14  1  0
 14 15  1  0
 15 16  1  0
 11  7  1  0
 16 10  1  0
A    1
 C1 
A    2
 S1 
A    3
 O1 
A    4
 O2 
A    5
 N1 
A    6
 C2 
A    7
 C3 
A    8
 N2 
A    9
 N3 
A   10
 C4 
A   11
 N4 
A   12
 C5 
A   13
 C6 
A   14
 O3 
A   15
 C7 
A   16
 C8 
M  END
>  <ref_pdb>  (186) 
Ax0310a

>  <ref_mols>  (186) 
Ax0446a,Ax1080a,Ax0812a,Ax0719a,Ax1140a,Ax0528a,Ax0310a

>  <original SMILES>  (186) 
CS(=O)(=O)NCc1nnc2n1CCOCC2

>  <rationale>  (186) 
info info set:sulfonimide_whole;hbond:S87+G127+E88+E85; 

>  <experiment>  (186) 
sulfonimide_whole

>  <cluster_label>  (186) 
8

>  <cluster_rank>  (186) 
15

>  <N_interactions>  (186) 
4

>  <∆∆G>  (186) 
-0.651585

>  <comRMSD>  (186) 
0.959704

>  <ROCS_TanimotoCombo>  (186) 
0.367

>  <ROCS_ShapeTanimoto>  (186) 
0.186

>  <ROCS_ColorTanimoto>  (186) 
0.181

$$$$
EN300_37396812
     RDKit          3D

 17 17  0  0  0  0  0  0  0  0999 V2000
   29.4597    7.9585    8.5297 C   0  0  0  0  0  0  0  0  0  0  0  0
   30.4560    8.9715    8.8708 C   0  0  0  0  0  0  0  0  0  0  0  0
   31.3697    9.5199    7.7791 C   0  0  0  0  0  0  0  0  0  0  0  0
   32.1512    8.6702    7.1251 N   0  0  0  0  0  0  0  0  0  0  0  0
   32.9720    9.2060    6.1861 C   0  0  0  0  0  0  0  0  0  0  0  0
   33.1033   10.6889    5.7857 C   0  0  0  0  0  0  0  0  0  0  0  0
   34.2184   11.1833    4.5762 Cl  0  0  0  0  0  0  0  0  0  0  0  0
   32.2930   11.6260    6.4329 C   0  0  0  0  0  0  0  0  0  0  0  0
   31.3635   11.0275    7.4948 C   0  0  0  0  0  0  0  0  0  0  0  0
   30.5396   11.8934    8.1713 N   0  0  0  0  0  0  0  0  0  0  0  0
   30.3027   13.1297    7.7611 C   0  0  0  0  0  0  0  0  0  0  0  0
   30.5240   13.5655    6.6642 O   0  0  0  0  0  0  0  0  0  0  0  0
   29.7741   13.7981    8.7685 O   0  0  0  0  0  0  0  0  0  0  0  0
   28.4970   14.3916    8.5845 C   0  0  0  0  0  0  0  0  0  0  0  0
   27.6882   14.1243    9.7968 C   0  0  0  0  0  0  0  0  0  0  0  0
   27.8945   13.7518    7.3160 C   0  0  0  0  0  0  0  0  0  0  0  0
   28.6677   15.8696    8.3582 C   0  0  0  0  0  0  0  0  0  0  0  0
  1  2  3  0
  2  3  1  0
  3  4  2  0
  4  5  1  0
  5  6  2  0
  6  7  1  0
  6  8  1  0
  8  9  2  0
  9 10  1  0
 10 11  1  0
 11 12  2  0
 11 13  1  0
 13 14  1  0
 14 15  1  0
 14 16  1  0
 14 17  1  0
  9  3  1  0
A    1
 C1 
A    2
 C2 
A    3
 C3 
A    4
 N1 
A    5
 C4 
A    6
 C5 
A    7
CL1 
A    8
 C6 
A    9
 C7 
A   10
 N2 
A   11
 C8 
A   12
 O1 
A   13
 O2 
A   14
 C9 
A   15
 C10
A   16
 C11
A   17
 C12
M  END
>  <ref_pdb>  (187) 
Ax0310a

>  <ref_mols>  (187) 
Ax0446a,Ax1080a,Ax0812a,Ax0719a,Ax1140a,Ax0528a,Ax0310a

>  <original SMILES>  (187) 
C#Cc1ncc(Cl)cc1NC(=O)OC(C)(C)C

>  <rationale>  (187) 
info info set:bb_densepocket2;hbond:S87+S125+G127; hydroph_interaction:P107+Y89+Y90+V124+D109; 

>  <experiment>  (187) 
bb_densepocket2

>  <cluster_label>  (187) 
3

>  <cluster_rank>  (187) 
15

>  <N_interactions>  (187) 
9

>  <∆∆G>  (187) 
-8.311555

>  <comRMSD>  (187) 
0.534569

>  <ROCS_TanimotoCombo>  (187) 
0.607

>  <ROCS_ShapeTanimoto>  (187) 
0.248

>  <ROCS_ColorTanimoto>  (187) 
0.359

$$$$
EN300_227867
     RDKit          3D

 21 23  0  0  0  0  0  0  0  0999 V2000
   34.0328   12.8264    4.8379 O   0  0  0  0  0  0  0  0  0  0  0  0
   34.2419   11.7437    5.3342 C   0  0  0  0  0  0  0  0  0  0  0  0
   35.4672   11.1991    5.3223 O   0  0  0  0  0  0  0  0  0  0  0  0
   33.2397   10.8802    6.0419 C   0  0  0  0  0  0  0  0  0  0  0  0
   33.3551    9.3913    6.1050 C   0  0  0  0  0  0  0  0  0  0  0  0
   32.3556    8.8812    6.8105 N   0  0  0  0  0  0  0  0  0  0  0  0
   31.6229    9.9563    7.1885 N   0  0  0  0  0  0  0  0  0  0  0  0
   30.5028    9.9394    7.9525 C   0  0  0  0  0  0  0  0  0  0  0  0
   30.0869    8.5597    8.4563 C   0  0  0  0  0  0  0  0  0  0  0  0
   30.5094    8.3949    9.7178 F   0  0  0  0  0  0  0  0  0  0  0  0
   28.7634    8.3768    8.4640 F   0  0  0  0  0  0  0  0  0  0  0  0
   29.8801   11.0604    8.2008 C   0  0  0  0  0  0  0  0  0  0  0  0
   30.4263   12.2744    7.6668 C   0  0  0  0  0  0  0  0  0  0  0  0
   29.7278   13.3795    7.9807 C   0  0  0  0  0  0  0  0  0  0  0  0
   30.3520   14.3110    8.7402 C   0  0  0  0  0  0  0  0  0  0  0  0
   29.6171   15.5459    9.1063 C   0  0  0  0  0  0  0  0  0  0  0  0
   28.3218   15.7319    8.6927 C   0  0  0  0  0  0  0  0  0  0  0  0
   27.7229   14.7206    7.9060 C   0  0  0  0  0  0  0  0  0  0  0  0
   28.4033   13.5560    7.5447 C   0  0  0  0  0  0  0  0  0  0  0  0
   31.5022   12.3502    6.9761 N   0  0  0  0  0  0  0  0  0  0  0  0
   32.1160   11.1746    6.7233 C   0  0  0  0  0  0  0  0  0  0  0  0
  1  2  2  0
  2  3  1  0
  2  4  1  0
  4  5  1  0
  5  6  2  0
  6  7  1  0
  7  8  1  0
  8  9  1  0
  9 10  1  0
  9 11  1  0
  8 12  2  0
 12 13  1  0
 13 14  1  0
 14 15  2  0
 15 16  1  0
 16 17  2  0
 17 18  1  0
 18 19  2  0
 13 20  2  0
 20 21  1  0
 21  4  2  0
 21  7  1  0
 19 14  1  0
A    1
 O1 
A    2
 C1 
A    3
 O2 
A    4
 C2 
A    5
 C3 
A    6
 N1 
A    7
 N2 
A    8
 C4 
A    9
 C5 
A   10
 F1 
A   11
 F2 
A   12
 C6 
A   13
 C7 
A   14
 C8 
A   15
 C9 
A   16
 C10
A   17
 C11
A   18
 C12
A   19
 C13
A   20
 N3 
A   21
 C14
M  END
>  <ref_pdb>  (188) 
Ax0310a

>  <ref_mols>  (188) 
Ax0446a,Ax1080a,Ax0812a,Ax0719a,Ax1140a,Ax0528a,Ax0310a

>  <original SMILES>  (188) 
O=C(O)c1cnn2c(C(F)F)cc(-c3ccccc3)nc12

>  <rationale>  (188) 
info info set:bb_whole;halogenbond:T126; hbond:S87; hydroph_interaction:Y89+Y90; 

>  <experiment>  (188) 
bb_whole

>  <cluster_label>  (188) 
7

>  <cluster_rank>  (188) 
15

>  <N_interactions>  (188) 
4

>  <∆∆G>  (188) 
-1.808944

>  <comRMSD>  (188) 
0.637121

>  <ROCS_TanimotoCombo>  (188) 
0.418

>  <ROCS_ShapeTanimoto>  (188) 
0.262

>  <ROCS_ColorTanimoto>  (188) 
0.156

$$$$
EN300_37098688
     RDKit          3D

 18 18  0  0  0  0  0  0  0  0999 V2000
   27.6151   15.4410    9.0530 C   0  0  0  0  0  0  0  0  0  0  0  0
   28.2892   14.3556    8.3164 C   0  0  0  0  0  0  0  0  0  0  0  0
   27.6257   13.1119    8.0619 C   0  0  0  0  0  0  0  0  0  0  0  0
   28.6277   14.8064    6.9185 C   0  0  0  0  0  0  0  0  0  0  0  0
   29.4762   14.0122    8.9673 O   0  0  0  0  0  0  0  0  0  0  0  0
   30.4557   13.3292    8.3519 C   0  0  0  0  0  0  0  0  0  0  0  0
   31.4242   13.8248    7.8523 O   0  0  0  0  0  0  0  0  0  0  0  0
   30.1935   12.0230    8.4084 N   0  0  0  0  0  0  0  0  0  0  0  0
   31.0373   11.1544    7.7578 C   0  0  0  0  0  0  0  0  0  0  0  0
   30.8127    9.6572    8.0218 C   0  0  0  0  0  0  0  0  0  0  0  0
   31.7603    8.7192    7.2916 C   0  0  0  0  0  0  0  0  0  0  0  0
   32.8237    9.3230    6.3850 C   0  0  0  0  0  0  0  0  0  0  0  0
   32.8288   10.8237    6.3109 C   0  0  0  0  0  0  0  0  0  0  0  0
   34.0472   11.5873    5.2915 S   0  0  0  0  0  6  0  0  0  0  0  0
   33.3832   11.6676    3.7379 N   0  0  0  0  0  0  0  0  0  0  0  0
   34.1835   12.9557    5.7351 O   0  0  0  0  0  0  0  0  0  0  0  0
   35.1754   10.6958    5.1108 O   0  0  0  0  0  0  0  0  0  0  0  0
   31.9908   11.6598    6.9526 N   0  0  0  0  0  0  0  0  0  0  0  0
  1  2  1  0
  2  3  1  0
  2  4  1  0
  2  5  1  0
  5  6  1  0
  6  7  2  0
  6  8  1  0
  8  9  1  0
  9 10  2  0
 10 11  1  0
 11 12  2  0
 12 13  1  0
 13 14  1  0
 14 15  1  0
 14 16  2  0
 14 17  2  0
 13 18  2  0
 18  9  1  0
A    1
 C1 
A    2
 C2 
A    3
 C3 
A    4
 C4 
A    5
 O1 
A    6
 C5 
A    7
 O2 
A    8
 N1 
A    9
 C6 
A   10
 C7 
A   11
 C8 
A   12
 C9 
A   13
 C10
A   14
 S1 
A   15
 N2 
A   16
 O3 
A   17
 O4 
A   18
 N3 
M  END
>  <ref_pdb>  (189) 
Ax0310a

>  <ref_mols>  (189) 
Ax0446a,Ax1080a,Ax0812a,Ax0719a,Ax1140a,Ax0528a,Ax0310a

>  <original SMILES>  (189) 
CC(C)(C)OC(=O)Nc1cccc(S(N)(=O)=O)n1

>  <rationale>  (189) 
info info set:sulfonimide_whole;hbond:S87+S125+G127; hydroph_interaction:Y89+Y90; 

>  <experiment>  (189) 
sulfonimide_whole

>  <cluster_label>  (189) 
3

>  <cluster_rank>  (189) 
16

>  <N_interactions>  (189) 
5

>  <∆∆G>  (189) 
-8.157725

>  <comRMSD>  (189) 
0.466198

>  <ROCS_TanimotoCombo>  (189) 
0.355

>  <ROCS_ShapeTanimoto>  (189) 
0.222

>  <ROCS_ColorTanimoto>  (189) 
0.133

$$$$
Z2718119330
     RDKit          3D

 23 25  0  0  0  0  0  0  0  0999 V2000
   28.8724   16.8490    8.2114 N   0  0  0  0  0  0  0  0  0  0  0  0
   28.8700   15.8401    8.7116 C   0  0  0  0  0  0  0  0  0  0  0  0
   28.9562   14.5499    9.4216 C   0  0  0  0  0  0  0  0  0  0  0  0
   29.0270   13.4514    8.4031 C   0  0  0  0  0  0  0  0  0  0  0  0
   30.4694   13.0588    8.1676 C   0  0  0  0  0  0  0  0  0  0  0  0
   31.4148   13.6948    8.6352 O   0  0  0  0  0  0  0  0  0  0  0  0
   30.6041   11.9414    7.3910 N   0  0  0  0  0  0  0  0  0  0  0  0
   31.8002   11.3607    7.3099 C   0  0  2  0  0  0  0  0  0  0  0  0
   32.5586   12.0957    6.1588 C   0  0  0  0  0  0  0  0  0  0  0  0
   33.4916   11.3030    5.3094 C   0  0  0  0  0  0  0  0  0  0  0  0
   34.2478   11.9745    4.1769 C   0  0  0  0  0  0  0  0  0  0  0  0
   35.1994   11.1142    3.3345 C   0  0  0  0  0  0  0  0  0  0  0  0
   35.3057    9.6431    3.7141 C   0  0  0  0  0  0  0  0  0  0  0  0
   34.4909    9.0933    4.8739 C   0  0  0  0  0  0  0  0  0  0  0  0
   33.6077    9.8214    5.6736 C   0  0  0  0  0  0  0  0  0  0  0  0
   32.9143    9.2175    6.7049 O   0  0  0  0  0  0  0  0  0  0  0  0
   31.6773    9.9001    7.0220 C   0  0  1  0  0  0  0  0  0  0  0  0
   30.8823    9.1789    8.1482 C   0  0  0  0  0  0  0  0  0  0  0  0
   30.5444   10.0527    9.0796 F   0  0  0  0  0  0  0  0  0  0  0  0
   29.7146    8.6328    7.8628 F   0  0  0  0  0  0  0  0  0  0  0  0
   31.5814    8.2029    8.7281 F   0  0  0  0  0  0  0  0  0  0  0  0
   28.2029   14.2995   10.6832 C   0  0  0  0  0  0  0  0  0  0  0  0
   29.7143   14.5604   10.6246 C   0  0  0  0  0  0  0  0  0  0  0  0
  1  2  3  0
  2  3  1  0
  3  4  1  0
  4  5  1  0
  5  6  2  0
  5  7  1  0
  8  7  1  6
  8  9  1  0
  9 10  1  0
 10 11  2  0
 11 12  1  0
 12 13  2  0
 13 14  1  0
 14 15  2  0
 15 16  1  0
 16 17  1  0
 17 18  1  1
 18 19  1  0
 18 20  1  0
 18 21  1  0
  3 22  1  0
 22 23  1  0
 23  3  1  0
 17  8  1  0
 15 10  1  0
A    1
 N1 
A    2
 C1 
A    3
 C2 
A    4
 C3 
A    5
 C4 
A    6
 O1 
A    7
 N2 
A    8
 C5 
A    9
 C6 
A   10
 C7 
A   11
 C8 
A   12
 C9 
A   13
 C10
A   14
 C11
A   15
 C12
A   16
 O2 
A   17
 C13
A   18
 C14
A   19
 F1 
A   20
 F2 
A   21
 F3 
A   22
 C15
A   23
 C16
M  END
>  <ref_pdb>  (190) 
Ax0310a

>  <ref_mols>  (190) 
Ax0446a,Ax1080a,Ax0812a,Ax0719a,Ax1140a,Ax0528a,Ax0310a

>  <original SMILES>  (190) 
N#CC1(CC(=O)N[C@@H]2Cc3ccccc3O[C@H]2C(F)(F)F)CC1

>  <rationale>  (190) 
info info set:screening_pocket;halogenbond:S125; hbond:S87+Y90; hydroph_interaction:Y90; 

>  <experiment>  (190) 
screening_pocket

>  <cluster_label>  (190) 
9

>  <cluster_rank>  (190) 
16

>  <N_interactions>  (190) 
5

>  <∆∆G>  (190) 
-0.211178

>  <comRMSD>  (190) 
0.969033

>  <ROCS_TanimotoCombo>  (190) 
0.669

>  <ROCS_ShapeTanimoto>  (190) 
0.3

>  <ROCS_ColorTanimoto>  (190) 
0.369

$$$$
EN300_7530328
     RDKit          3D

 14 14  0  0  0  0  0  0  0  0999 V2000
   35.6164   15.0944    4.7724 C   0  0  0  0  0  0  0  0  0  0  0  0
   34.3296   14.1389    5.5088 S   0  0  0  0  0  6  0  0  0  0  0  0
   34.6334   12.7743    5.2386 O   0  0  0  0  0  0  0  0  0  0  0  0
   33.0296   14.6166    5.1775 O   0  0  0  0  0  0  0  0  0  0  0  0
   34.5630   14.4414    7.1145 N   0  0  0  0  0  0  0  0  0  0  0  0
   34.2967   13.2607    7.8800 C   0  0  0  0  0  0  0  0  0  0  0  0
   32.9785   13.0508    8.2640 C   0  0  0  0  0  0  0  0  0  0  0  0
   32.4282   13.7195    9.1187 O   0  0  0  0  0  0  0  0  0  0  0  0
   32.3289   11.9751    7.6115 N   0  0  0  0  0  0  0  0  0  0  0  0
   32.8907   11.2197    6.4793 C   0  0  0  0  0  0  0  0  0  0  0  0
   32.5219    9.7605    6.5103 C   0  0  0  0  0  0  0  0  0  0  0  0
   31.5648    9.2558    7.5620 C   0  0  0  0  0  0  0  0  0  0  0  0
   30.6342   10.2439    8.2283 C   0  0  0  0  0  0  0  0  0  0  0  0
   30.9118   11.7086    7.8868 C   0  0  0  0  0  0  0  0  0  0  0  0
  1  2  1  0
  2  3  2  0
  2  4  2  0
  2  5  1  0
  5  6  1  0
  6  7  1  0
  7  8  2  0
  7  9  1  0
  9 10  1  0
 10 11  1  0
 11 12  1  0
 12 13  1  0
 13 14  1  0
 14  9  1  0
A    1
 C1 
A    2
 S1 
A    3
 O1 
A    4
 O2 
A    5
 N1 
A    6
 C2 
A    7
 C3 
A    8
 O3 
A    9
 N2 
A   10
 C4 
A   11
 C5 
A   12
 C6 
A   13
 C7 
A   14
 C8 
M  END
>  <ref_pdb>  (191) 
Ax0310a

>  <ref_mols>  (191) 
Ax0446a,Ax1080a,Ax0812a,Ax0719a,Ax1140a,Ax0528a,Ax0310a

>  <original SMILES>  (191) 
CS(=O)(=O)NCC(=O)N1CCCCC1

>  <rationale>  (191) 
info info set:sulfonimide_whole;hbond:S87+G127+E88+E85; 

>  <experiment>  (191) 
sulfonimide_whole

>  <cluster_label>  (191) 
8

>  <cluster_rank>  (191) 
16

>  <N_interactions>  (191) 
4

>  <∆∆G>  (191) 
-2.027911

>  <comRMSD>  (191) 
0.987281

>  <ROCS_TanimotoCombo>  (191) 
0.338

>  <ROCS_ShapeTanimoto>  (191) 
0.175

>  <ROCS_ColorTanimoto>  (191) 
0.163

$$$$
EN300_7444163
     RDKit          3D

 13 13  0  0  0  0  0  0  0  0999 V2000
   34.9831   14.7765    8.1065 N   0  0  0  0  0  0  0  0  0  0  0  0
   33.6312   13.8145    8.3216 S   0  0  0  0  0  6  0  0  0  0  0  0
   34.1746   12.7157    9.0101 O   0  0  0  0  0  0  0  0  0  0  0  0
   32.5600   14.5640    8.9570 O   0  0  0  0  0  0  0  0  0  0  0  0
   33.4783   13.5135    6.5471 C   0  0  0  0  0  0  0  0  0  0  0  0
   32.1334   12.9831    6.0495 C   0  0  0  0  0  0  0  0  0  0  0  0
   31.9418   11.7159    6.5188 C   0  0  0  0  0  0  0  0  0  0  0  0
   32.7856   10.6736    6.1877 C   0  0  0  0  0  0  0  0  0  0  0  0
   32.6202    9.3841    6.6420 C   0  0  0  0  0  0  0  0  0  0  0  0
   31.5432    9.1505    7.4840 C   0  0  0  0  0  0  0  0  0  0  0  0
   30.6675   10.0898    7.8661 N   0  0  0  0  0  0  0  0  0  0  0  0
   30.8891   11.4063    7.3522 C   0  0  0  0  0  0  0  0  0  0  0  0
   30.0264   12.3692    7.7010 F   0  0  0  0  0  0  0  0  0  0  0  0
  1  2  1  0
  2  3  2  0
  2  4  2  0
  2  5  1  0
  5  6  1  0
  6  7  1  0
  7  8  2  0
  8  9  1  0
  9 10  2  0
 10 11  1  0
 11 12  2  0
 12 13  1  0
 12  7  1  0
A    1
 N1 
A    2
 S1 
A    3
 O1 
A    4
 O2 
A    5
 C1 
A    6
 C2 
A    7
 C3 
A    8
 C4 
A    9
 C5 
A   10
 C6 
A   11
 N2 
A   12
 C7 
A   13
 F1 
M  END
>  <ref_pdb>  (192) 
Ax0310a

>  <ref_mols>  (192) 
Ax0446a,Ax1080a,Ax0812a,Ax0719a,Ax1140a,Ax0528a,Ax0310a

>  <original SMILES>  (192) 
NS(=O)(=O)CCc1cccnc1F

>  <rationale>  (192) 
info info set:sulfonimide_whole;hbond:S87+G127+A86; hydroph_interaction:P107; 

>  <experiment>  (192) 
sulfonimide_whole

>  <cluster_label>  (192) 
5

>  <cluster_rank>  (192) 
16

>  <N_interactions>  (192) 
4

>  <∆∆G>  (192) 
-4.402939

>  <comRMSD>  (192) 
0.564755

>  <ROCS_TanimotoCombo>  (192) 
0.345

>  <ROCS_ShapeTanimoto>  (192) 
0.191

>  <ROCS_ColorTanimoto>  (192) 
0.153

$$$$
EN300_228918
     RDKit          3D

 22 24  0  0  0  0  0  0  0  0999 V2000
   34.0013   12.8441    4.8549 O   0  0  0  0  0  0  0  0  0  0  0  0
   34.2323   11.7556    5.3360 C   0  0  0  0  0  0  0  0  0  0  0  0
   35.4906   11.2654    5.3010 O   0  0  0  0  0  0  0  0  0  0  0  0
   33.2628   10.8547    6.0306 C   0  0  0  0  0  0  0  0  0  0  0  0
   33.3444    9.3474    6.1493 C   0  0  0  0  0  0  0  0  0  0  0  0
   32.3445    8.7995    6.8592 N   0  0  0  0  0  0  0  0  0  0  0  0
   31.6097    9.8963    7.2024 N   0  0  0  0  0  0  0  0  0  0  0  0
   30.4808    9.8827    7.9556 C   0  0  0  0  0  0  0  0  0  0  0  0
   30.0607    8.5566    8.4825 C   0  0  0  0  0  0  0  0  0  0  0  0
   30.5052    8.3898    9.7270 F   0  0  0  0  0  0  0  0  0  0  0  0
   28.7477    8.3268    8.4403 F   0  0  0  0  0  0  0  0  0  0  0  0
   29.8018   11.1901    8.1613 C   0  0  0  0  0  0  0  0  0  0  0  0
   30.4145   12.3295    7.5663 C   0  0  0  0  0  0  0  0  0  0  0  0
   29.6287   13.3708    7.8667 C   0  0  0  0  0  0  0  0  0  0  0  0
   30.3468   14.2826    8.8233 C   0  0  0  0  0  0  0  0  0  0  0  0
   29.6063   15.3629    9.1953 C   0  0  0  0  0  0  0  0  0  0  0  0
   28.3184   15.5549    8.7204 C   0  0  0  0  0  0  0  0  0  0  0  0
   27.6769   16.6097    9.1418 F   0  0  0  0  0  0  0  0  0  0  0  0
   27.6802   14.6994    7.8369 C   0  0  0  0  0  0  0  0  0  0  0  0
   28.3406   13.5834    7.3929 C   0  0  0  0  0  0  0  0  0  0  0  0
   31.5075   12.3514    6.9004 N   0  0  0  0  0  0  0  0  0  0  0  0
   32.1159   11.1427    6.7010 C   0  0  0  0  0  0  0  0  0  0  0  0
  1  2  2  0
  2  3  1  0
  2  4  1  0
  4  5  1  0
  5  6  2  0
  6  7  1  0
  7  8  1  0
  8  9  1  0
  9 10  1  0
  9 11  1  0
  8 12  2  0
 12 13  1  0
 13 14  1  0
 14 15  2  0
 15 16  1  0
 16 17  2  0
 17 18  1  0
 17 19  1  0
 19 20  2  0
 13 21  2  0
 21 22  1  0
 22  4  2  0
 22  7  1  0
 20 14  1  0
A    1
 O1 
A    2
 C1 
A    3
 O2 
A    4
 C2 
A    5
 C3 
A    6
 N1 
A    7
 N2 
A    8
 C4 
A    9
 C5 
A   10
 F1 
A   11
 F2 
A   12
 C6 
A   13
 C7 
A   14
 C8 
A   15
 C9 
A   16
 C10
A   17
 C11
A   18
 F3 
A   19
 C12
A   20
 C13
A   21
 N3 
A   22
 C14
M  END
>  <ref_pdb>  (193) 
Ax0310a

>  <ref_mols>  (193) 
Ax0446a,Ax1080a,Ax0812a,Ax0719a,Ax1140a,Ax0528a,Ax0310a

>  <original SMILES>  (193) 
O=C(O)c1cnn2c(C(F)F)cc(-c3ccc(F)cc3)nc12

>  <rationale>  (193) 
info info set:bb_whole;halogenbond:T126; hbond:S87; hydroph_interaction:Y89+Y90; 

>  <experiment>  (193) 
bb_whole

>  <cluster_label>  (193) 
7

>  <cluster_rank>  (193) 
16

>  <N_interactions>  (193) 
4

>  <∆∆G>  (193) 
-0.677569

>  <comRMSD>  (193) 
0.651144

>  <ROCS_TanimotoCombo>  (193) 
0.42

>  <ROCS_ShapeTanimoto>  (193) 
0.263

>  <ROCS_ColorTanimoto>  (193) 
0.156

$$$$
Z216593084
     RDKit          3D

 24 26  0  0  0  0  0  0  0  0999 V2000
   28.6507   14.0539    4.6704 C   0  0  0  0  0  0  0  0  0  0  0  0
   28.7612   13.5880    5.9763 O   0  0  0  0  0  0  0  0  0  0  0  0
   28.7052   14.5664    6.9103 C   0  0  0  0  0  0  0  0  0  0  0  0
   28.9678   15.7095    6.7199 O   0  0  0  0  0  0  0  0  0  0  0  0
   28.2807   14.2203    8.1352 C   0  0  0  0  0  0  0  0  0  0  0  0
   27.4613   15.3688    9.0985 S   0  0  0  0  0  0  0  0  0  0  0  0
   27.2750   14.2092   10.2448 C   0  0  0  0  0  0  0  0  0  0  0  0
   27.8016   13.0796    9.8570 C   0  0  0  0  0  0  0  0  0  0  0  0
   28.4635   12.9880    8.6438 C   0  0  0  0  0  0  0  0  0  0  0  0
   29.1931   12.0236    7.8587 N   0  0  0  0  0  0  0  0  0  0  0  0
   30.1608   11.0467    8.2041 C   0  0  0  0  0  0  0  0  0  0  0  0
   30.2105   10.2106    9.2398 O   0  0  0  0  0  0  0  0  0  0  0  0
   31.1933   10.7374    7.3468 C   0  0  0  0  0  0  0  0  0  0  0  0
   31.8811   11.7493    6.4493 C   0  0  0  0  0  0  0  0  0  0  0  0
   32.9277   11.1381    5.6156 C   0  0  0  0  0  0  0  0  0  0  0  0
   33.6554   11.9229    4.7066 C   0  0  0  0  0  0  0  0  0  0  0  0
   34.6435   11.3583    3.8966 C   0  0  0  0  0  0  0  0  0  0  0  0
   35.5106   12.3342    2.7822 Cl  0  0  0  0  0  0  0  0  0  0  0  0
   34.9290   10.0078    3.9846 C   0  0  0  0  0  0  0  0  0  0  0  0
   34.2263    9.2212    4.8786 C   0  0  0  0  0  0  0  0  0  0  0  0
   33.2274    9.7669    5.6944 C   0  0  0  0  0  0  0  0  0  0  0  0
   32.5769    8.9536    6.5302 N   0  0  0  0  0  0  0  0  0  0  0  0
   31.5884    9.4235    7.3251 C   0  0  0  0  0  0  0  0  0  0  0  0
   30.9090    8.4204    8.2014 C   0  0  0  0  0  0  0  0  0  0  0  0
  1  2  1  0
  2  3  1  0
  3  4  2  0
  3  5  1  0
  5  6  1  0
  6  7  1  0
  7  8  2  0
  8  9  1  0
  9 10  1  0
 10 11  1  0
 11 12  2  0
 11 13  1  0
 13 14  2  0
 14 15  1  0
 15 16  2  0
 16 17  1  0
 17 18  1  0
 17 19  2  0
 19 20  1  0
 20 21  2  0
 21 22  1  0
 22 23  2  0
 23 24  1  0
  9  5  2  0
 23 13  1  0
 21 15  1  0
A    1
 C1 
A    2
 O1 
A    3
 C2 
A    4
 O2 
A    5
 C3 
A    6
 S1 
A    7
 C4 
A    8
 C5 
A    9
 C6 
A   10
 N1 
A   11
 C7 
A   12
 O3 
A   13
 C8 
A   14
 C9 
A   15
 C10
A   16
 C11
A   17
 C12
A   18
CL1 
A   19
 C13
A   20
 C14
A   21
 C15
A   22
 N2 
A   23
 C16
A   24
 C17
M  END
>  <ref_pdb>  (194) 
Ax0310a

>  <ref_mols>  (194) 
Ax0446a,Ax1080a,Ax0812a,Ax0719a,Ax1140a,Ax0528a,Ax0310a

>  <original SMILES>  (194) 
COC(=O)c1sccc1NC(=O)c1cc2cc(Cl)ccc2nc1C

>  <rationale>  (194) 
info info set:screening_pocket;hydroph_interaction:P107; pication:H21; saltbridge:H21; 

>  <experiment>  (194) 
screening_pocket

>  <cluster_label>  (194) 
12

>  <cluster_rank>  (194) 
16

>  <N_interactions>  (194) 
3

>  <∆∆G>  (194) 
-4.277338

>  <comRMSD>  (194) 
0.690742

>  <ROCS_TanimotoCombo>  (194) 
0.639

>  <ROCS_ShapeTanimoto>  (194) 
0.275

>  <ROCS_ColorTanimoto>  (194) 
0.364

$$$$
Z4428968839
     RDKit          3D

 11 12  0  0  0  0  0  0  0  0999 V2000
   33.9280   13.2798    8.3958 C   0  0  0  0  0  0  0  0  0  0  0  0
   32.5594   13.5792    8.6432 N   0  0  0  0  0  0  0  0  0  0  0  0
   32.2668   14.6199    9.4305 N   0  0  0  0  0  0  0  0  0  0  0  0
   30.9559   14.6756    9.4656 N   0  0  0  0  0  0  0  0  0  0  0  0
   30.4062   13.6750    8.7163 N   0  0  0  0  0  0  0  0  0  0  0  0
   31.3982   12.9845    8.2052 C   0  0  0  0  0  0  0  0  0  0  0  0
   31.1619   11.7519    7.2829 C   0  0  0  0  0  0  0  0  0  0  0  0
   30.1949   12.0977    6.2656 O   0  0  0  0  0  0  0  0  0  0  0  0
   30.8067   10.4661    8.0574 C   0  0  0  0  0  0  0  0  0  0  0  0
   31.8134    9.6942    7.2912 N   0  0  0  0  0  0  0  0  0  0  0  0
   32.4012   10.9570    6.7739 C   0  0  0  0  0  0  0  0  0  0  0  0
  1  2  1  0
  2  3  1  0
  3  4  2  0
  4  5  1  0
  5  6  2  0
  6  7  1  0
  7  8  1  0
  7  9  1  0
  9 10  1  0
 10 11  1  0
  6  2  1  0
 11  7  1  0
A    1
 C1 
A    2
 N1 
A    3
 N2 
A    4
 N3 
A    5
 N4 
A    6
 C2 
A    7
 C3 
A    8
 O1 
A    9
 C4 
A   10
 N5 
A   11
 C5 
M  END
>  <ref_pdb>  (195) 
Ax0310a

>  <ref_mols>  (195) 
Ax0446a,Ax1080a,Ax0812a,Ax0719a,Ax1140a,Ax0528a,Ax0310a

>  <original SMILES>  (195) 
Cn1nnnc1C1(O)CNC1

>  <rationale>  (195) 
info info set:3d;hbond:S87+E106; 

>  <experiment>  (195) 
3d

>  <cluster_label>  (195) 
6

>  <cluster_rank>  (195) 
16

>  <N_interactions>  (195) 
2

>  <∆∆G>  (195) 
-1.337156

>  <comRMSD>  (195) 
0.717291

>  <ROCS_TanimotoCombo>  (195) 
0.307

>  <ROCS_ShapeTanimoto>  (195) 
0.15

>  <ROCS_ColorTanimoto>  (195) 
0.157

$$$$
Z4107138575
     RDKit          3D

 27 30  0  0  0  0  0  0  0  0999 V2000
   28.1264   11.4422    8.3604 C   0  0  0  0  0  0  0  0  0  0  0  0
   28.0344   10.1100    7.9227 O   0  0  0  0  0  0  0  0  0  0  0  0
   28.9536    9.2071    8.3599 C   0  0  0  0  0  0  0  0  0  0  0  0
   30.4066    9.5229    8.5129 C   0  0  0  0  0  0  0  0  0  0  0  0
   31.2760   10.0368    7.4506 N   0  0  0  0  0  0  0  0  0  0  0  0
   32.2780    9.2168    7.0913 N   0  0  0  0  0  0  0  0  0  0  0  0
   33.0208    9.8932    6.1679 C   0  0  0  0  0  0  0  0  0  0  0  0
   32.4726   11.1083    5.9447 C   0  0  0  0  0  0  0  0  0  0  0  0
   31.3223   11.2268    6.7281 C   0  0  0  0  0  0  0  0  0  0  0  0
   30.4401   12.4590    6.7111 C   0  0  0  0  0  0  0  0  0  0  0  0
   29.4384   12.7093    5.8340 O   0  0  0  0  0  0  0  0  0  0  0  0
   30.6919   13.3983    7.6432 N   0  0  0  0  0  0  0  0  0  0  0  0
   29.5146   14.0316    8.2285 C   0  0  0  0  0  0  0  0  0  0  0  0
   29.6673   15.1097    9.1480 C   0  0  0  0  0  0  0  0  0  0  0  0
   30.8119   15.3534    9.9914 C   0  0  0  0  0  0  0  0  0  0  0  0
   32.2194   15.0651    9.5847 C   0  0  0  0  0  0  0  0  0  0  0  0
   33.2581   15.8584    9.7864 N   0  0  0  0  0  0  0  0  0  0  0  0
   34.2929   15.1877    9.2438 N   0  0  0  0  0  0  0  0  0  0  0  0
   33.9338   13.9894    8.7169 C   0  0  0  0  0  0  0  0  0  0  0  0
   32.5743   13.9287    8.9341 C   0  0  0  0  0  0  0  0  0  0  0  0
   31.5658   12.9682    8.6092 C   0  0  0  0  0  0  0  0  0  0  0  0
   33.2270   11.9386    4.9818 C   0  0  0  0  0  0  0  0  0  0  0  0
   34.5522   11.9489    5.4707 C   0  0  2  0  0  0  0  0  0  0  0  0
   35.4876   12.8311    4.9339 C   0  0  0  0  0  0  0  0  0  0  0  0
   35.1853   10.6283    5.3860 O   0  0  0  0  0  0  0  0  0  0  0  0
   34.2882    9.4754    5.4663 C   0  0  2  0  0  0  0  0  0  0  0  0
   34.3307    8.9563    4.0446 C   0  0  0  0  0  0  0  0  0  0  0  0
  1  2  1  0
  2  3  1  0
  3  4  1  0
  4  5  1  0
  5  6  1  0
  6  7  2  0
  7  8  1  0
  8  9  2  0
  9 10  1  0
 10 11  2  0
 10 12  1  0
 12 13  1  0
 13 14  1  0
 14 15  1  0
 15 16  1  0
 16 17  2  0
 17 18  1  0
 18 19  1  0
 19 20  2  0
 20 21  1  0
  8 22  1  0
 22 23  1  0
 23 24  1  6
 23 25  1  0
 25 26  1  0
 26 27  1  6
  9  5  1  0
 21 12  1  0
 26  7  1  0
 20 16  1  0
A    1
 C1 
A    2
 O1 
A    3
 C2 
A    4
 C3 
A    5
 N1 
A    6
 N2 
A    7
 C4 
A    8
 C5 
A    9
 C6 
A   10
 C7 
A   11
 O2 
A   12
 N3 
A   13
 C8 
A   14
 C9 
A   15
 C10
A   16
 C11
A   17
 N4 
A   18
 N5 
A   19
 C12
A   20
 C13
A   21
 C14
A   22
 C15
A   23
 C16
A   24
 C17
A   25
 O3 
A   26
 C18
A   27
 C19
M  END
>  <ref_pdb>  (196) 
Ax0310a

>  <ref_mols>  (196) 
Ax0446a,Ax1080a,Ax0812a,Ax0719a,Ax1140a,Ax0528a,Ax0310a

>  <original SMILES>  (196) 
COCCn1nc2c(c1C(=O)N1CCCc3n[nH]cc3C1)C[C@H](C)O[C@@H]2C

>  <rationale>  (196) 
info info set:screening_whole;hbond:S87+C110; hydroph_interaction:P107+Y90; 

>  <experiment>  (196) 
screening_whole

>  <cluster_label>  (196) 
16

>  <cluster_rank>  (196) 
16

>  <N_interactions>  (196) 
4

>  <∆∆G>  (196) 
-2.556485

>  <comRMSD>  (196) 
0.924575

>  <ROCS_TanimotoCombo>  (196) 
0.455

>  <ROCS_ShapeTanimoto>  (196) 
0.28

>  <ROCS_ColorTanimoto>  (196) 
0.175

$$$$
EN300_105715
     RDKit          3D

 15 14  0  0  0  0  0  0  0  0999 V2000
   40.2518   12.5414   10.5529 C   0  0  0  0  0  0  0  0  0  0  0  0
   40.0032   13.0559   11.8461 C   0  0  0  0  0  0  0  0  0  0  0  0
   40.9393   13.8856   12.4570 C   0  0  0  0  0  0  0  0  0  0  0  0
   39.7061   11.9200   12.8282 C   0  0  0  0  0  0  0  0  0  0  0  0
   38.7147   10.9716   12.2155 C   0  0  0  0  0  0  0  0  0  0  0  0
   37.4126   11.2737   11.8362 C   0  0  0  0  0  0  0  0  0  0  0  0
   36.4578   10.9503   12.5139 O   0  0  0  0  0  0  0  0  0  0  0  0
   37.3551   11.9948   10.6500 N   0  0  0  0  0  0  0  0  0  0  0  0
   36.1788   12.7744   10.4452 C   0  0  0  0  0  0  0  0  0  0  0  0
   36.0076   13.6710    9.2179 C   0  0  0  0  0  0  0  0  0  0  0  0
   34.5326   13.7275    8.7869 C   0  0  0  0  0  0  0  0  0  0  0  0
   34.2062   13.6674    7.0228 S   0  0  0  0  0  6  0  0  0  0  0  0
   34.9573   15.1015    6.5465 N   0  0  0  0  0  0  0  0  0  0  0  0
   32.7858   13.7807    6.8281 O   0  0  0  0  0  0  0  0  0  0  0  0
   34.9194   12.6691    6.2904 O   0  0  0  0  0  0  0  0  0  0  0  0
  1  2  1  0
  2  3  1  0
  2  4  1  0
  4  5  1  0
  5  6  1  0
  6  7  2  0
  6  8  1  0
  8  9  1  0
  9 10  1  0
 10 11  1  0
 11 12  1  0
 12 13  1  0
 12 14  2  0
 12 15  2  0
A    1
 C1 
A    2
 C2 
A    3
 C3 
A    4
 C4 
A    5
 C5 
A    6
 C6 
A    7
 O1 
A    8
 N1 
A    9
 C7 
A   10
 C8 
A   11
 C9 
A   12
 S1 
A   13
 N2 
A   14
 O2 
A   15
 O3 
M  END
>  <ref_pdb>  (197) 
Ax0310a

>  <ref_mols>  (197) 
Ax0446a,Ax1080a,Ax0812a,Ax0719a,Ax1140a,Ax0528a,Ax0310a

>  <original SMILES>  (197) 
CC(C)CCC(=O)NCCCS(N)(=O)=O

>  <rationale>  (197) 
info info set:sulfonimide_joint;hbond:E85; hydroph_interaction:L131; 

>  <experiment>  (197) 
sulfonimide_joint

>  <cluster_label>  (197) 
17

>  <cluster_rank>  (197) 
16

>  <N_interactions>  (197) 
3

>  <∆∆G>  (197) 
-3.423478

>  <comRMSD>  (197) 
0.928633

>  <ROCS_TanimotoCombo>  (197) 
0.303

>  <ROCS_ShapeTanimoto>  (197) 
0.186

>  <ROCS_ColorTanimoto>  (197) 
0.117

$$$$
Z1562148890
     RDKit          3D

 15 15  0  0  0  0  0  0  0  0999 V2000
   34.2645    9.0874    4.9108 C   0  0  0  0  0  0  0  0  0  0  0  0
   33.1904    9.7184    5.8091 C   0  0  0  0  0  0  0  0  0  0  0  0
   32.4433    9.0602    6.6943 N   0  0  0  0  0  0  0  0  0  0  0  0
   31.6035    9.9541    7.3134 C   0  0  0  0  0  0  0  0  0  0  0  0
   30.5720    9.6351    8.3932 C   0  0  0  0  0  0  0  0  0  0  0  0
   30.4751    8.1788    8.6343 C   0  0  0  0  0  0  0  0  0  0  0  0
   29.1525    7.6365    8.7178 C   0  0  0  0  0  0  0  0  0  0  0  0
   30.6233    7.7409   10.0375 C   0  0  0  0  0  0  0  0  0  0  0  0
   31.7656   11.3996    6.8224 C   0  0  0  0  0  0  0  0  0  0  0  0
   31.0674   12.4915    7.2612 N   0  0  0  0  0  0  0  0  0  0  0  0
   30.1431   12.3384    8.2345 C   0  0  0  0  0  0  0  0  0  0  0  0
   29.9565   11.2699    8.7350 O   0  0  0  0  0  0  0  0  0  0  0  0
   29.4349   13.4265    8.6007 C   0  0  0  0  0  0  0  0  0  0  0  0
   28.2363   13.8563    7.3713 Cl  0  0  0  0  0  0  0  0  0  0  0  0
   32.9556   11.4161    5.6444 S   0  0  0  0  0  0  0  0  0  0  0  0
  1  2  1  0
  2  3  2  0
  3  4  1  0
  4  5  1  0
  5  6  1  0
  6  7  1  0
  6  8  1  0
  4  9  2  0
  9 10  1  0
 10 11  1  0
 11 12  2  0
 11 13  1  0
 13 14  1  0
  9 15  1  0
 15  2  1  0
A    1
 C1 
A    2
 C2 
A    3
 N1 
A    4
 C3 
A    5
 C4 
A    6
 C5 
A    7
 C6 
A    8
 C7 
A    9
 C8 
A   10
 N2 
A   11
 C9 
A   12
 O1 
A   13
 C10
A   14
CL1 
A   15
 S1 
M  END
>  <ref_pdb>  (198) 
Ax0310a

>  <ref_mols>  (198) 
Ax0446a,Ax1080a,Ax0812a,Ax0719a,Ax1140a,Ax0528a,Ax0310a

>  <original SMILES>  (198) 
Cc1nc(CC(C)C)c(NC(=O)CCl)s1

>  <rationale>  (198) 
info info set:screening_pocket;halogenbond:E88; hydroph_interaction:V124+D109; 

>  <experiment>  (198) 
screening_pocket

>  <cluster_label>  (198) 
7

>  <cluster_rank>  (198) 
17

>  <N_interactions>  (198) 
3

>  <∆∆G>  (198) 
-4.076255

>  <comRMSD>  (198) 
0.993312

>  <ROCS_TanimotoCombo>  (198) 
0.673

>  <ROCS_ShapeTanimoto>  (198) 
0.221

>  <ROCS_ColorTanimoto>  (198) 
0.452

$$$$
EN300_1986933
     RDKit          3D

 12 12  0  0  0  0  0  0  0  0999 V2000
   34.8382   14.8256    7.9151 N   0  0  0  0  0  0  0  0  0  0  0  0
   33.5959   13.7788    8.3461 S   0  0  0  0  0  6  0  0  0  0  0  0
   34.2588   12.8117    9.1355 O   0  0  0  0  0  0  0  0  0  0  0  0
   32.4885   14.4936    8.9386 O   0  0  0  0  0  0  0  0  0  0  0  0
   33.1954   13.1161    6.7244 C   0  0  0  0  0  0  0  0  0  0  0  0
   32.4588   11.8475    6.9827 C   0  0  0  0  0  0  0  0  0  0  0  0
   33.1220   10.5853    6.5011 C   0  0  0  0  0  0  0  0  0  0  0  0
   32.3524    9.3244    6.8385 C   0  0  0  0  0  0  0  0  0  0  0  0
   30.9750    9.1356    7.6140 C   0  0  0  0  0  0  0  0  0  0  0  0
   30.5930   10.4403    7.9126 C   0  0  0  0  0  0  0  0  0  0  0  0
   31.2585   11.7905    7.6316 C   0  0  0  0  0  0  0  0  0  0  0  0
   30.6205   12.9134    8.0579 O   0  0  0  0  0  0  0  0  0  0  0  0
  1  2  1  0
  2  3  2  0
  2  4  2  0
  2  5  1  0
  5  6  1  0
  6  7  2  0
  7  8  1  0
  8  9  2  0
  9 10  1  0
 10 11  2  0
 11 12  1  0
 11  6  1  0
A    1
 N1 
A    2
 S1 
A    3
 O1 
A    4
 O2 
A    5
 C1 
A    6
 C2 
A    7
 C3 
A    8
 C4 
A    9
 C5 
A   10
 C6 
A   11
 C7 
A   12
 O3 
M  END
>  <ref_pdb>  (199) 
Ax0310a

>  <ref_mols>  (199) 
Ax0446a,Ax1080a,Ax0812a,Ax0719a,Ax1140a,Ax0528a,Ax0310a

>  <original SMILES>  (199) 
NS(=O)(=O)Cc1ccccc1O

>  <rationale>  (199) 
info info set:sulfonimide_whole;hbond:S87+S125+G127+A86; 

>  <experiment>  (199) 
sulfonimide_whole

>  <cluster_label>  (199) 
5

>  <cluster_rank>  (199) 
17

>  <N_interactions>  (199) 
4

>  <∆∆G>  (199) 
-6.352347

>  <comRMSD>  (199) 
0.698159

>  <ROCS_TanimotoCombo>  (199) 
0.339

>  <ROCS_ShapeTanimoto>  (199) 
0.172

>  <ROCS_ColorTanimoto>  (199) 
0.167

$$$$
Z392348148
     RDKit          3D

 24 26  0  0  0  0  0  0  0  0999 V2000
   28.5813   14.0462    4.7272 C   0  0  0  0  0  0  0  0  0  0  0  0
   28.7666   13.6051    6.0484 O   0  0  0  0  0  0  0  0  0  0  0  0
   28.7377   14.6632    6.9054 C   0  0  0  0  0  0  0  0  0  0  0  0
   28.9996   15.7842    6.6754 O   0  0  0  0  0  0  0  0  0  0  0  0
   28.2862   14.2072    8.1836 C   0  0  0  0  0  0  0  0  0  0  0  0
   27.4546   15.4029    9.0837 S   0  0  0  0  0  0  0  0  0  0  0  0
   27.1895   14.3080   10.2594 C   0  0  0  0  0  0  0  0  0  0  0  0
   27.7370   13.0128    9.9357 C   0  0  0  0  0  0  0  0  0  0  0  0
   28.4490   12.9785    8.6916 C   0  0  0  0  0  0  0  0  0  0  0  0
   29.2109   12.0499    7.8972 N   0  0  0  0  0  0  0  0  0  0  0  0
   30.1147   11.0181    8.2416 C   0  0  0  0  0  0  0  0  0  0  0  0
   30.1309   10.1163    9.3107 O   0  0  0  0  0  0  0  0  0  0  0  0
   31.2433   10.5961    7.3326 C   0  0  0  0  0  0  0  0  0  0  0  0
   31.8639   11.6613    6.4606 C   0  0  0  0  0  0  0  0  0  0  0  0
   32.9360   11.0340    5.6065 C   0  0  0  0  0  0  0  0  0  0  0  0
   33.5855   12.0644    4.6771 C   0  0  0  0  0  0  0  0  0  0  0  0
   34.6474   11.3492    3.8199 C   0  0  0  0  0  0  0  0  0  0  0  0
   34.9080    9.9792    3.9496 C   0  0  0  0  0  0  0  0  0  0  0  0
   35.9453    9.3286    3.0900 C   0  0  0  0  0  0  0  0  0  0  0  0
   34.2191    9.1871    4.8701 C   0  0  0  0  0  0  0  0  0  0  0  0
   33.2318    9.6668    5.7100 C   0  0  0  0  0  0  0  0  0  0  0  0
   32.6122    8.8214    6.5591 N   0  0  0  0  0  0  0  0  0  0  0  0
   31.6298    9.2956    7.3409 C   0  0  0  0  0  0  0  0  0  0  0  0
   30.9355    8.3249    8.2446 C   0  0  0  0  0  0  0  0  0  0  0  0
  1  2  1  0
  2  3  1  0
  3  4  2  0
  3  5  1  0
  5  6  1  0
  6  7  1  0
  7  8  2  0
  8  9  1  0
  9 10  1  0
 10 11  1  0
 11 12  2  0
 11 13  1  0
 13 14  2  0
 14 15  1  0
 15 16  2  0
 16 17  1  0
 17 18  2  0
 18 19  1  0
 18 20  1  0
 20 21  2  0
 21 22  1  0
 22 23  2  0
 23 24  1  0
  9  5  2  0
 23 13  1  0
 21 15  1  0
A    1
 C1 
A    2
 O1 
A    3
 C2 
A    4
 O2 
A    5
 C3 
A    6
 S1 
A    7
 C4 
A    8
 C5 
A    9
 C6 
A   10
 N1 
A   11
 C7 
A   12
 O3 
A   13
 C8 
A   14
 C9 
A   15
 C10
A   16
 C11
A   17
 C12
A   18
 C13
A   19
 C14
A   20
 C15
A   21
 C16
A   22
 N2 
A   23
 C17
A   24
 C18
M  END
>  <ref_pdb>  (200) 
Ax0310a

>  <ref_mols>  (200) 
Ax0446a,Ax1080a,Ax0812a,Ax0719a,Ax1140a,Ax0528a,Ax0310a

>  <original SMILES>  (200) 
COC(=O)c1sccc1NC(=O)c1cc2ccc(C)cc2nc1C

>  <rationale>  (200) 
info info set:screening_pocket;hydroph_interaction:P107+V124; pication:H21; saltbridge:H21; 

>  <experiment>  (200) 
screening_pocket

>  <cluster_label>  (200) 
12

>  <cluster_rank>  (200) 
17

>  <N_interactions>  (200) 
4

>  <∆∆G>  (200) 
-3.354256

>  <comRMSD>  (200) 
0.698755

>  <ROCS_TanimotoCombo>  (200) 
0.639

>  <ROCS_ShapeTanimoto>  (200) 
0.275

>  <ROCS_ColorTanimoto>  (200) 
0.364

$$$$
Z31041688
     RDKit          3D

 25 28  0  0  0  0  0  0  0  0999 V2000
   28.3978   16.4715    8.9566 C   0  0  0  0  0  0  0  0  0  0  0  0
   27.2994   15.9775    9.8601 C   0  0  0  0  0  0  0  0  0  0  0  0
   27.5674   14.6161   10.4385 C   0  0  0  0  0  0  0  0  0  0  0  0
   28.5428   14.2137    9.4194 C   0  0  0  0  0  0  0  0  0  0  0  0
   27.9823   13.7360    8.0811 C   0  0  0  0  0  0  0  0  0  0  0  0
   29.0653   13.3824    7.1690 C   0  0  0  0  0  0  0  0  0  0  0  0
   30.4629   13.5105    7.5906 C   0  0  0  0  0  0  0  0  0  0  0  0
   31.2973   13.2082    6.8001 O   0  0  0  0  0  0  0  0  0  0  0  0
   31.5505   11.8779    6.9067 C   0  0  0  0  0  0  0  0  0  0  0  0
   30.6954   11.0688    7.5602 N   0  0  0  0  0  0  0  0  0  0  0  0
   30.9925    9.7614    7.6152 C   0  0  0  0  0  0  0  0  0  0  0  0
   30.1501    8.9477    8.3409 C   0  0  0  0  0  0  0  0  0  0  0  0
   32.1207    9.1237    6.9830 N   0  0  0  0  0  0  0  0  0  0  0  0
   32.9015   10.0116    6.3694 C   0  0  0  0  0  0  0  0  0  0  0  0
   34.3568    9.5215    5.5007 S   0  0  0  0  0  0  0  0  0  0  0  0
   34.7183   11.1529    5.2086 C   0  0  0  0  0  0  0  0  0  0  0  0
   33.7776   11.8223    5.6787 C   0  0  0  0  0  0  0  0  0  0  0  0
   32.6850   11.3911    6.3325 C   0  0  0  0  0  0  0  0  0  0  0  0
   33.6079   13.2802    5.6812 C   0  0  0  0  0  0  0  0  0  0  0  0
   35.0966   13.4962    5.2248 C   0  0  0  0  0  0  0  0  0  0  0  0
   35.6885   12.1087    4.6327 C   0  0  0  0  0  0  0  0  0  0  0  0
   30.8495   13.9592    8.8325 C   0  0  0  0  0  0  0  0  0  0  0  0
   32.1938   14.0111    9.0339 O   0  0  0  0  0  0  0  0  0  0  0  0
   32.6601   14.9090   10.0128 C   0  0  0  0  0  0  0  0  0  0  0  0
   29.8884   14.3082    9.7388 C   0  0  0  0  0  0  0  0  0  0  0  0
  1  2  2  0
  2  3  1  0
  3  4  1  0
  4  5  2  0
  5  6  1  0
  6  7  2  0
  7  8  1  0
  8  9  1  0
  9 10  2  0
 10 11  1  0
 11 12  1  0
 11 13  2  0
 13 14  1  0
 14 15  1  0
 15 16  1  0
 16 17  2  0
 17 18  1  0
 17 19  1  0
 19 20  1  0
 20 21  1  0
  7 22  1  0
 22 23  1  0
 23 24  1  0
 22 25  2  0
 25  4  1  0
 18  9  1  0
 18 14  2  0
 21 16  1  0
A    1
 C1 
A    2
 C2 
A    3
 C3 
A    4
 C4 
A    5
 C5 
A    6
 C6 
A    7
 C7 
A    8
 O1 
A    9
 C8 
A   10
 N1 
A   11
 C9 
A   12
 C10
A   13
 N2 
A   14
 C11
A   15
 S1 
A   16
 C12
A   17
 C13
A   18
 C14
A   19
 C15
A   20
 C16
A   21
 C17
A   22
 C18
A   23
 O2 
A   24
 C19
A   25
 C20
M  END
>  <ref_pdb>  (201) 
Ax0310a

>  <ref_mols>  (201) 
Ax0446a,Ax1080a,Ax0812a,Ax0719a,Ax1140a,Ax0528a,Ax0310a

>  <original SMILES>  (201) 
C=CCc1ccc(Oc2nc(C)nc3sc4c(c23)CCC4)c(OC)c1

>  <rationale>  (201) 
info info set:screening_whole;hbond:S87+S105; hydroph_interaction:Y89+Y90+H21; pistack:H21; 

>  <experiment>  (201) 
screening_whole

>  <cluster_label>  (201) 
9

>  <cluster_rank>  (201) 
17

>  <N_interactions>  (201) 
7

>  <∆∆G>  (201) 
-6.861042

>  <comRMSD>  (201) 
0.894313

>  <ROCS_TanimotoCombo>  (201) 
0.462

>  <ROCS_ShapeTanimoto>  (201) 
0.257

>  <ROCS_ColorTanimoto>  (201) 
0.205

$$$$
Z2274200196
     RDKit          3D

 23 25  0  0  0  0  0  0  0  0999 V2000
   34.1266   13.9988    5.8838 C   0  0  0  0  0  0  0  0  0  0  0  0
   33.8089   12.9465    4.8418 C   0  0  0  0  0  0  0  0  0  0  0  0
   32.5837   13.3625    4.1075 C   0  0  0  0  0  0  0  0  0  0  0  0
   34.9359   12.9161    3.8079 C   0  0  0  0  0  0  0  0  0  0  0  0
   33.6099   11.7254    5.3164 N   0  0  0  0  0  0  0  0  0  0  0  0
   34.5037   10.7830    4.8442 N   0  0  0  0  0  0  0  0  0  0  0  0
   34.0827    9.6596    5.4627 C   0  0  0  0  0  0  0  0  0  0  0  0
   32.9826    9.9501    6.2690 C   0  0  0  0  0  0  0  0  0  0  0  0
   32.1671    9.0591    7.1504 C   0  0  0  0  0  0  0  0  0  0  0  0
   32.3670    7.9229    7.3475 O   0  0  0  0  0  0  0  0  0  0  0  0
   31.1501    9.7278    7.7637 N   0  0  0  0  0  0  0  0  0  0  0  0
   30.9581   11.0571    7.5806 C   0  0  0  0  0  0  0  0  0  0  0  0
   29.9087   11.5491    8.2176 N   0  0  0  0  0  0  0  0  0  0  0  0
   29.0410   12.4818    7.6042 C   0  0  0  0  0  0  0  0  0  0  0  0
   29.5843   13.7342    7.6273 C   0  0  1  0  0  0  0  0  0  0  0  0
   28.6500   14.5740    7.1048 C   0  0  0  0  0  0  0  0  0  0  0  0
   27.4311   14.5970    7.9439 C   0  0  0  0  0  0  0  0  0  0  0  0
   27.8034   15.1761    9.2031 C   0  0  0  0  0  0  0  0  0  0  0  0
   28.9285   14.5006    9.8238 C   0  0  0  0  0  0  0  0  0  0  0  0
   29.9327   14.0184    8.9741 C   0  0  2  0  0  0  0  0  0  0  0  0
   31.0156   14.9240    9.1118 O   0  0  0  0  0  0  0  0  0  0  0  0
   31.6808   11.8503    6.8218 N   0  0  0  0  0  0  0  0  0  0  0  0
   32.6858   11.2357    6.1806 C   0  0  0  0  0  0  0  0  0  0  0  0
  1  2  1  0
  2  3  1  0
  2  4  1  0
  2  5  1  0
  5  6  1  0
  6  7  2  0
  7  8  1  0
  8  9  1  0
  9 10  2  0
  9 11  1  0
 11 12  1  0
 12 13  1  0
 13 14  1  0
 15 14  1  1
 15 16  1  0
 16 17  1  0
 17 18  1  0
 18 19  1  0
 19 20  1  0
 20 21  1  6
 12 22  2  0
 22 23  1  0
 23  5  1  0
 23  8  2  0
 20 15  1  0
A    1
 C1 
A    2
 C2 
A    3
 C3 
A    4
 C4 
A    5
 N1 
A    6
 N2 
A    7
 C5 
A    8
 C6 
A    9
 C7 
A   10
 O1 
A   11
 N3 
A   12
 C8 
A   13
 N4 
A   14
 C9 
A   15
 C10
A   16
 C11
A   17
 C12
A   18
 C13
A   19
 C14
A   20
 C15
A   21
 O2 
A   22
 N5 
A   23
 C16
M  END
>  <ref_pdb>  (202) 
Ax0310a

>  <ref_mols>  (202) 
Ax0446a,Ax1080a,Ax0812a,Ax0719a,Ax1140a,Ax0528a,Ax0310a

>  <original SMILES>  (202) 
CC(C)(C)n1ncc2c(=O)[nH]c(NC[C@H]3CCCC[C@@H]3O)nc21

>  <rationale>  (202) 
info info set:screening_whole;hbond:S87+S125+G127; hydroph_interaction:P107+Y89+Y90; 

>  <experiment>  (202) 
screening_whole

>  <cluster_label>  (202) 
3

>  <cluster_rank>  (202) 
17

>  <N_interactions>  (202) 
6

>  <∆∆G>  (202) 
-3.716178

>  <comRMSD>  (202) 
0.529968

>  <ROCS_TanimotoCombo>  (202) 
0.48

>  <ROCS_ShapeTanimoto>  (202) 
0.256

>  <ROCS_ColorTanimoto>  (202) 
0.224

$$$$
Z2219592521
     RDKit          3D

 17 18  0  0  0  0  0  0  0  0999 V2000
   28.6796   15.7281    7.9212 N   0  0  0  0  0  0  0  0  0  0  0  0
   28.4456   14.3262    7.7039 C   0  0  0  0  0  0  0  0  0  0  0  0
   29.1989   13.4046    8.6428 C   0  0  0  0  0  0  0  0  0  0  0  0
   30.3473   12.7973    7.9873 N   0  0  0  0  0  0  0  0  0  0  0  0
   30.6157   11.4447    8.0768 C   0  0  0  0  0  0  0  0  0  0  0  0
   30.1632   10.6236    8.8367 O   0  0  0  0  0  0  0  0  0  0  0  0
   31.6056   10.8378    7.1355 C   0  0  0  0  0  0  0  0  0  0  0  0
   32.0176    9.3294    7.1907 C   0  0  0  0  0  0  0  0  0  0  0  0
   32.9154    8.7817    6.3463 N   0  0  0  0  0  0  0  0  0  0  0  0
   33.4942    9.5424    5.3907 C   0  0  0  0  0  0  0  0  0  0  0  0
   34.5151    8.9568    4.3972 C   0  0  0  0  0  0  0  0  0  0  0  0
   34.9773    7.7231    4.3085 F   0  0  0  0  0  0  0  0  0  0  0  0
   35.0703    9.9212    3.3742 C   0  0  0  0  0  0  0  0  0  0  0  0
   34.6609   11.2237    3.3768 C   0  0  0  0  0  0  0  0  0  0  0  0
   33.7472   11.6433    4.3137 C   0  0  0  0  0  0  0  0  0  0  0  0
   33.1393   10.9111    5.3097 C   0  0  0  0  0  0  0  0  0  0  0  0
   32.2392   11.5319    6.1469 C   0  0  0  0  0  0  0  0  0  0  0  0
  1  2  3  0
  2  3  1  0
  3  4  1  0
  4  5  1  0
  5  6  2  0
  5  7  1  0
  7  8  2  0
  8  9  1  0
  9 10  2  0
 10 11  1  0
 11 12  1  0
 11 13  2  0
 13 14  1  0
 14 15  2  0
 15 16  1  0
 16 17  2  0
 17  7  1  0
 16 10  1  0
A    1
 N1 
A    2
 C1 
A    3
 C2 
A    4
 N2 
A    5
 C3 
A    6
 O1 
A    7
 C4 
A    8
 C5 
A    9
 N3 
A   10
 C6 
A   11
 C7 
A   12
 F1 
A   13
 C8 
A   14
 C9 
A   15
 C10
A   16
 C11
A   17
 C12
M  END
>  <ref_pdb>  (203) 
Ax0310a

>  <ref_mols>  (203) 
Ax0446a,Ax1080a,Ax0812a,Ax0719a,Ax1140a,Ax0528a,Ax0310a

>  <original SMILES>  (203) 
N#CCNC(=O)c1cnc2c(F)cccc2c1

>  <rationale>  (203) 
info info set:screening_pocket;hbond:S87+E88; hydroph_interaction:P107; 

>  <experiment>  (203) 
screening_pocket

>  <cluster_label>  (203) 
8

>  <cluster_rank>  (203) 
17

>  <N_interactions>  (203) 
4

>  <∆∆G>  (203) 
-2.295081

>  <comRMSD>  (203) 
0.733779

>  <ROCS_TanimotoCombo>  (203) 
0.64

>  <ROCS_ShapeTanimoto>  (203) 
0.245

>  <ROCS_ColorTanimoto>  (203) 
0.395

$$$$
EN300_265759
     RDKit          3D

 14 14  0  0  0  0  0  0  0  0999 V2000
   36.1537    8.4664    3.4268 C   0  0  0  0  0  0  0  0  0  0  0  0
   35.1705    9.4853    3.9548 C   0  0  0  0  0  0  0  0  0  0  0  0
   34.6263    8.9813    5.1899 N   0  0  0  0  0  0  0  0  0  0  0  0
   33.5599    9.6910    5.6914 C   0  0  0  0  0  0  0  0  0  0  0  0
   33.4066   10.9785    5.4480 N   0  0  0  0  0  0  0  0  0  0  0  0
   32.3285   11.5038    6.0052 C   0  0  0  0  0  0  0  0  0  0  0  0
   32.0153   13.2109    5.7290 S   0  0  0  0  0  0  0  0  0  0  0  0
   31.4597   10.8734    6.7348 N   0  0  0  0  0  0  0  0  0  0  0  0
   31.7272    9.6116    6.8869 C   0  0  0  0  0  0  0  0  0  0  0  0
   30.8728    8.8801    7.5924 N   0  0  0  0  0  0  0  0  0  0  0  0
   30.3216    9.5899    8.6510 C   0  0  0  0  0  0  0  0  0  0  0  0
   30.4207    8.4767    9.5676 C   0  0  0  0  0  0  0  0  0  0  0  0
   28.8678    9.9206    8.5338 C   0  0  0  0  0  0  0  0  0  0  0  0
   32.7470    8.9732    6.4073 N   0  0  0  0  0  0  0  0  0  0  0  0
  1  2  1  0
  2  3  1  0
  3  4  1  0
  4  5  2  0
  5  6  1  0
  6  7  1  0
  6  8  2  0
  8  9  1  0
  9 10  1  0
 10 11  1  0
 11 12  1  0
 11 13  1  0
  9 14  2  0
 14  4  1  0
A    1
 C1 
A    2
 C2 
A    3
 N1 
A    4
 C3 
A    5
 N2 
A    6
 C4 
A    7
 S1 
A    8
 N3 
A    9
 C5 
A   10
 N4 
A   11
 C6 
A   12
 C7 
A   13
 C8 
A   14
 N5 
M  END
>  <ref_pdb>  (204) 
Ax0310a

>  <ref_mols>  (204) 
Ax0446a,Ax1080a,Ax0812a,Ax0719a,Ax1140a,Ax0528a,Ax0310a

>  <original SMILES>  (204) 
CCNc1nc(S)nc(NC(C)C)n1

>  <rationale>  (204) 
info info set:bb_densepocket2;hbond:S105+G127+E106; hydroph_interaction:V124; 

>  <experiment>  (204) 
bb_densepocket2

>  <cluster_label>  (204) 
6

>  <cluster_rank>  (204) 
17

>  <N_interactions>  (204) 
4

>  <∆∆G>  (204) 
-3.826605

>  <comRMSD>  (204) 
0.802617

>  <ROCS_TanimotoCombo>  (204) 
0.615

>  <ROCS_ShapeTanimoto>  (204) 
0.22

>  <ROCS_ColorTanimoto>  (204) 
0.395

$$$$
Z3481543870
     RDKit          3D

 18 20  0  0  0  0  0  0  0  0999 V2000
   27.7328   14.0968    5.0812 C   0  0  0  0  0  0  0  0  0  0  0  0
   28.5075   14.5964    6.2959 C   0  0  0  0  0  0  0  0  0  0  0  0
   28.6915   15.9348    6.8236 O   0  0  0  0  0  0  0  0  0  0  0  0
   28.9898   13.6612    6.9443 C   0  0  0  0  0  0  0  0  0  0  0  0
   28.3457   13.5175    8.0744 C   0  0  0  0  0  0  0  0  0  0  0  0
   28.7370   12.5619    8.8149 C   0  0  0  0  0  0  0  0  0  0  0  0
   29.8732   11.6614    8.4138 C   0  0  0  0  0  0  0  0  0  0  0  0
   30.4824   11.8889    7.2470 C   0  0  0  0  0  0  0  0  0  0  0  0
   31.6058   11.0670    6.7194 C   0  0  0  0  0  0  0  0  0  0  0  0
   31.5869    9.5675    7.1602 C   0  0  0  0  0  0  0  0  0  0  0  0
   32.4853    8.6735    6.7478 N   0  0  0  0  0  0  0  0  0  0  0  0
   33.4086    9.1955    5.9027 C   0  0  0  0  0  0  0  0  0  0  0  0
   34.4432    8.5969    5.2704 N   0  0  0  0  0  0  0  0  0  0  0  0
   35.1238    9.5298    4.5088 C   0  0  0  0  0  0  0  0  0  0  0  0
   34.5479   10.7754    4.6223 C   0  0  0  0  0  0  0  0  0  0  0  0
   33.4816   10.6697    5.4523 C   0  0  0  0  0  0  0  0  0  0  0  0
   32.5749   11.5862    5.8788 C   0  0  0  0  0  0  0  0  0  0  0  0
   30.0286   12.9133    6.4923 C   0  0  0  0  0  0  0  0  0  0  0  0
  1  2  1  0
  2  3  2  0
  2  4  1  0
  4  5  2  0
  5  6  1  0
  6  7  2  0
  7  8  1  0
  8  9  1  0
  9 10  2  0
 10 11  1  0
 11 12  2  0
 12 13  1  0
 13 14  1  0
 14 15  2  0
 15 16  1  0
 16 17  2  0
  8 18  2  0
 18  4  1  0
 17  9  1  0
 16 12  1  0
A    1
 C1 
A    2
 C2 
A    3
 O1 
A    4
 C3 
A    5
 C4 
A    6
 C5 
A    7
 C6 
A    8
 C7 
A    9
 C8 
A   10
 C9 
A   11
 N1 
A   12
 C10
A   13
 N2 
A   14
 C11
A   15
 C12
A   16
 C13
A   17
 C14
A   18
 C15
M  END
>  <ref_pdb>  (205) 
Ax0310a

>  <ref_mols>  (205) 
Ax0446a,Ax1080a,Ax0812a,Ax0719a,Ax1140a,Ax0528a,Ax0310a

>  <original SMILES>  (205) 
CC(=O)c1cccc(-c2cnc3[nH]ccc3c2)c1

>  <rationale>  (205) 
info info set:screening_pocket;hbond:S87; hydroph_interaction:P107+Y89+E88; 

>  <experiment>  (205) 
screening_pocket

>  <cluster_label>  (205) 
12

>  <cluster_rank>  (205) 
18

>  <N_interactions>  (205) 
4

>  <∆∆G>  (205) 
-1.697292

>  <comRMSD>  (205) 
0.521233

>  <ROCS_TanimotoCombo>  (205) 
0.631

>  <ROCS_ShapeTanimoto>  (205) 
0.26

>  <ROCS_ColorTanimoto>  (205) 
0.371

$$$$
Z1255452599
     RDKit          3D

 12 14  0  0  0  0  0  0  0  0999 V2000
   34.9620   10.7672    5.0143 C   0  0  0  0  0  0  0  0  0  0  0  0
   34.5201   12.1606    5.3018 C   0  0  0  0  0  0  0  0  0  0  0  0
   33.4277   12.4629    6.0191 C   0  0  0  0  0  0  0  0  0  0  0  0
   32.6479   11.4288    6.5382 C   0  0  0  0  0  0  0  0  0  0  0  0
   33.0540   10.1010    6.2869 C   0  0  0  0  0  0  0  0  0  0  0  0
   34.1754    9.7378    5.5406 C   0  0  0  0  0  0  0  0  0  0  0  0
   32.0887    9.1762    6.9331 C   0  0  0  0  0  0  0  0  0  0  0  0
   31.4037    9.5410    8.1570 N   0  0  0  0  0  0  0  0  0  0  0  0
   30.7767   10.8530    7.9967 C   0  0  0  0  0  0  0  0  0  0  0  0
   31.5083   11.7844    7.2687 C   0  0  0  0  0  0  0  0  0  0  0  0
   31.3563   12.9879    7.7849 C   0  0  0  0  0  0  0  0  0  0  0  0
   30.5869   12.9436    6.5733 C   0  0  0  0  0  0  0  0  0  0  0  0
  1  2  2  0
  2  3  1  0
  3  4  2  0
  4  5  1  0
  5  6  2  0
  5  7  1  0
  7  8  1  0
  8  9  1  0
  9 10  1  0
 10 11  1  0
 11 12  1  0
  6  1  1  0
 12 10  1  0
 10  4  1  0
A    1
 C1 
A    2
 C2 
A    3
 C3 
A    4
 C4 
A    5
 C5 
A    6
 C6 
A    7
 C7 
A    8
 N1 
A    9
 C8 
A   10
 C9 
A   11
 C10
A   12
 C11
M  END
>  <ref_pdb>  (206) 
Ax0310a

>  <ref_mols>  (206) 
Ax0446a,Ax1080a,Ax0812a,Ax0719a,Ax1140a,Ax0528a,Ax0310a

>  <original SMILES>  (206) 
c1ccc2c(c1)CNCC21CC1

>  <rationale>  (206) 
info info set:3d;hbond:E106; 

>  <experiment>  (206) 
3d

>  <cluster_label>  (206) 
6

>  <cluster_rank>  (206) 
18

>  <N_interactions>  (206) 
1

>  <∆∆G>  (206) 
-1.84887

>  <comRMSD>  (206) 
0.441163

>  <ROCS_TanimotoCombo>  (206) 
0.29

>  <ROCS_ShapeTanimoto>  (206) 
0.188

>  <ROCS_ColorTanimoto>  (206) 
0.102

$$$$
Z385389096
     RDKit          3D

 14 15  0  0  0  0  0  0  0  0999 V2000
   33.3620   12.4663    5.8996 C   0  0  0  0  0  0  0  0  0  0  0  0
   32.6814   11.4121    6.4955 C   0  0  0  0  0  0  0  0  0  0  0  0
   33.0352   10.1232    6.1113 C   0  0  0  0  0  0  0  0  0  0  0  0
   32.4213    9.0026    6.6466 C   0  0  0  0  0  0  0  0  0  0  0  0
   31.3478    9.1797    7.6586 C   0  0  0  0  0  0  0  0  0  0  0  0
   30.9802   10.4206    8.0553 C   0  0  0  0  0  0  0  0  0  0  0  0
   31.6793   11.6264    7.4508 C   0  0  0  0  0  0  0  0  0  0  0  0
   31.2484   12.8357    7.9346 C   0  0  0  0  0  0  0  0  0  0  0  0
   32.0035   13.7041    8.6254 C   0  0  0  0  0  0  0  0  0  0  0  0
   33.4585   13.5290    8.9065 C   0  0  0  0  0  0  0  0  0  0  0  0
   31.2496   14.7473    9.0139 N   0  0  0  0  0  0  0  0  0  0  0  0
   29.9545   14.5655    8.4781 O   0  0  0  0  0  0  0  0  0  0  0  0
   29.8813   13.3779    7.7836 C   0  0  0  0  0  0  0  0  0  0  0  0
   28.7378   12.9844    7.1847 N   0  0  0  0  0  0  0  0  0  0  0  0
  1  2  1  0
  2  3  2  0
  3  4  1  0
  4  5  2  0
  5  6  1  0
  6  7  2  0
  7  8  1  0
  8  9  1  0
  9 10  1  0
  9 11  2  0
 11 12  1  0
 12 13  1  0
 13 14  1  0
  7  2  1  0
 13  8  2  0
A    1
 C1 
A    2
 C2 
A    3
 C3 
A    4
 C4 
A    5
 C5 
A    6
 C6 
A    7
 C7 
A    8
 C8 
A    9
 C9 
A   10
 C10
A   11
 N1 
A   12
 O1 
A   13
 C11
A   14
 N2 
M  END
>  <ref_pdb>  (207) 
Ax0310a

>  <ref_mols>  (207) 
Ax0446a,Ax1080a,Ax0812a,Ax0719a,Ax1140a,Ax0528a,Ax0310a

>  <original SMILES>  (207) 
Cc1ccccc1-c1c(C)noc1N

>  <rationale>  (207) 
info info set:3d;hbond:S87+H21; hydroph_interaction:V84; 

>  <experiment>  (207) 
3d

>  <cluster_label>  (207) 
7

>  <cluster_rank>  (207) 
18

>  <N_interactions>  (207) 
3

>  <∆∆G>  (207) 
-6.639021

>  <comRMSD>  (207) 
0.657428

>  <ROCS_TanimotoCombo>  (207) 
0.303

>  <ROCS_ShapeTanimoto>  (207) 
0.195

>  <ROCS_ColorTanimoto>  (207) 
0.109

$$$$
EN300_801273
     RDKit          3D

 17 18  0  0  0  0  0  0  0  0999 V2000
   30.0441    7.9309   10.3515 C   0  0  0  0  0  0  0  0  0  0  0  0
   30.0651    8.6615    9.0937 C   0  0  0  0  0  0  0  0  0  0  0  0
   29.2486    7.6255    8.5656 C   0  0  0  0  0  0  0  0  0  0  0  0
   29.1749    9.8595    8.9225 C   0  0  0  0  0  0  0  0  0  0  0  0
   31.3340    8.5013    8.2660 C   0  0  0  0  0  0  0  0  0  0  0  0
   31.8324    9.6113    7.2880 C   0  0  0  0  0  0  0  0  0  0  0  0
   32.7486    9.1546    6.3807 N   0  0  0  0  0  0  0  0  0  0  0  0
   33.2527    9.9801    5.4403 C   0  0  0  0  0  0  0  0  0  0  0  0
   34.2003    9.6399    4.4315 C   0  0  0  0  0  0  0  0  0  0  0  0
   34.9364    8.1115    4.2017 Cl  0  0  0  0  0  0  0  0  0  0  0  0
   34.7433   10.4303    3.4183 C   0  0  0  0  0  0  0  0  0  0  0  0
   34.3266   11.9142    3.2843 C   0  0  0  0  0  0  0  0  0  0  0  0
   33.3296   12.2504    4.3879 C   0  0  0  0  0  0  0  0  0  0  0  0
   32.8214   11.2887    5.4286 C   0  0  0  0  0  0  0  0  0  0  0  0
   31.9107   11.7606    6.3624 C   0  0  0  0  0  0  0  0  0  0  0  0
   31.4042   10.9234    7.3102 C   0  0  0  0  0  0  0  0  0  0  0  0
   30.5121   11.4101    8.2084 O   0  0  0  0  0  0  0  0  0  0  0  0
  1  2  1  0
  2  3  1  0
  2  4  1  0
  2  5  1  0
  5  6  1  0
  6  7  2  0
  7  8  1  0
  8  9  2  0
  9 10  1  0
  9 11  1  0
 11 12  2  0
 12 13  1  0
 13 14  2  0
 14 15  1  0
 15 16  2  0
 16 17  1  0
 16  6  1  0
 14  8  1  0
A    1
 C1 
A    2
 C2 
A    3
 C3 
A    4
 C4 
A    5
 C5 
A    6
 C6 
A    7
 N1 
A    8
 C7 
A    9
 C8 
A   10
CL1 
A   11
 C9 
A   12
 C10
A   13
 C11
A   14
 C12
A   15
 C13
A   16
 C14
A   17
 O1 
M  END
>  <ref_pdb>  (208) 
Ax0310a

>  <ref_mols>  (208) 
Ax0446a,Ax1080a,Ax0812a,Ax0719a,Ax1140a,Ax0528a,Ax0310a

>  <original SMILES>  (208) 
CC(C)(C)Cc1nc2c(Cl)cccc2cc1O

>  <rationale>  (208) 
info info set:bb_densepocket2;hbond:S125+G127; hydroph_interaction:P107+V124+D109; 

>  <experiment>  (208) 
bb_densepocket2

>  <cluster_label>  (208) 
3

>  <cluster_rank>  (208) 
18

>  <N_interactions>  (208) 
5

>  <∆∆G>  (208) 
-4.619582

>  <comRMSD>  (208) 
0.937036

>  <ROCS_TanimotoCombo>  (208) 
0.647

>  <ROCS_ShapeTanimoto>  (208) 
0.241

>  <ROCS_ColorTanimoto>  (208) 
0.406

$$$$
Z3687058140
     RDKit          3D

 25 27  0  0  0  0  0  0  0  0999 V2000
   35.4975   12.8745    4.3739 C   0  0  0  0  0  0  0  0  0  0  0  0
   34.2944   12.0509    4.6773 C   0  0  2  0  0  0  0  0  0  0  0  0
   32.8793   12.7631    5.0546 C   0  0  0  0  0  0  0  0  0  0  0  0
   32.2869   11.5952    5.9803 C   0  0  0  0  0  0  0  0  0  0  0  0
   31.0956   11.6329    6.8062 C   0  0  0  0  0  0  0  0  0  0  0  0
   30.3405   12.9428    6.6633 C   0  0  0  0  0  0  0  0  0  0  0  0
   30.1736   13.4965    5.5961 O   0  0  0  0  0  0  0  0  0  0  0  0
   29.8359   13.4514    7.7806 N   0  0  0  0  0  0  0  0  0  0  0  0
   28.5097   13.4236    7.9382 C   0  0  0  0  0  0  0  0  0  0  0  0
   27.9382   14.8239    8.1333 C   0  0  0  0  0  0  0  0  0  0  0  0
   28.7095   15.8991    8.0597 N   0  0  0  0  0  0  0  0  0  0  0  0
   30.5145   13.2793    9.0056 C   0  0  0  0  0  0  0  0  0  0  0  0
   31.8870   13.9147    9.0574 C   0  0  0  0  0  0  0  0  0  0  0  0
   33.0476   13.1226    8.4860 C   0  0  0  0  0  0  0  0  0  0  0  0
   34.3832   13.8184    8.5944 C   0  0  0  0  0  0  0  0  0  0  0  0
   34.1301   14.9992    9.1940 C   0  0  0  0  0  0  0  0  0  0  0  0
   33.1480   15.7688    9.7149 C   0  0  0  0  0  0  0  0  0  0  0  0
   31.9163   15.1831    9.6465 N   0  0  0  0  0  0  0  0  0  0  0  0
   30.8796   10.5905    7.4649 N   0  0  0  0  0  0  0  0  0  0  0  0
   31.8514    9.7389    7.1110 N   0  0  0  0  0  0  0  0  0  0  0  0
   31.7734    8.4680    7.7119 C   0  0  0  0  0  0  0  0  0  0  0  0
   32.7302   10.3271    6.1787 C   0  0  0  0  0  0  0  0  0  0  0  0
   33.8174    9.9917    5.4587 C   0  0  2  0  0  0  0  0  0  0  0  0
   34.5783    8.7470    5.4156 C   0  0  0  0  0  0  0  0  0  0  0  0
   34.6805   11.0762    5.6560 O   0  0  0  0  0  0  0  0  0  0  0  0
  2  1  1  1
  2  3  1  0
  3  4  1  0
  4  5  1  0
  5  6  1  0
  6  7  2  0
  6  8  1  0
  8  9  1  0
  9 10  1  0
 10 11  3  0
  8 12  1  0
 12 13  1  0
 13 14  2  0
 14 15  1  0
 15 16  2  0
 16 17  1  0
 17 18  2  0
  5 19  2  0
 19 20  1  0
 20 21  1  0
 20 22  1  0
 22 23  1  0
 23 24  1  1
 23 25  1  0
 25  2  1  0
 22  4  2  0
 18 13  1  0
A    1
 C1 
A    2
 C2 
A    3
 C3 
A    4
 C4 
A    5
 C5 
A    6
 C6 
A    7
 O1 
A    8
 N1 
A    9
 C7 
A   10
 C8 
A   11
 N2 
A   12
 C9 
A   13
 C10
A   14
 C11
A   15
 C12
A   16
 C13
A   17
 C14
A   18
 N3 
A   19
 N4 
A   20
 N5 
A   21
 C15
A   22
 C16
A   23
 C17
A   24
 C18
A   25
 O2 
M  END
>  <ref_pdb>  (209) 
Ax0310a

>  <ref_mols>  (209) 
Ax0446a,Ax1080a,Ax0812a,Ax0719a,Ax1140a,Ax0528a,Ax0310a

>  <original SMILES>  (209) 
C[C@@H]1Cc2c(C(=O)N(CC#N)Cc3ccccn3)nn(C)c2[C@H](C)O1

>  <rationale>  (209) 
info info set:screening_whole;hbond:S87+Y90+E88; hydroph_interaction:P107+V84; 

>  <experiment>  (209) 
screening_whole

>  <cluster_label>  (209) 
8

>  <cluster_rank>  (209) 
18

>  <N_interactions>  (209) 
5

>  <∆∆G>  (209) 
-5.948898

>  <comRMSD>  (209) 
0.90528

>  <ROCS_TanimotoCombo>  (209) 
0.464

>  <ROCS_ShapeTanimoto>  (209) 
0.274

>  <ROCS_ColorTanimoto>  (209) 
0.189

$$$$
EN300_7435851
     RDKit          3D

 16 18  0  0  0  0  0  0  0  0999 V2000
   34.1372   10.1395    4.8696 C   0  0  0  0  0  0  0  0  0  0  0  0
   33.2358   10.2178    6.0541 C   0  0  2  0  0  0  0  0  0  0  0  0
   33.1252   11.4853    6.9855 C   0  0  0  0  0  0  0  0  0  0  0  0
   31.8581   10.7000    7.4559 C   0  0  2  0  0  0  0  0  0  0  0  0
   30.7090   11.2609    8.1553 C   0  0  0  0  0  0  0  0  0  0  0  0
   30.1061   10.5414    8.9112 O   0  0  0  0  0  0  0  0  0  0  0  0
   30.4773   12.5612    7.8068 N   0  0  0  0  0  0  0  0  0  0  0  0
   29.4315   13.3622    8.2322 C   0  0  0  0  0  0  0  0  0  0  0  0
   28.3388   13.6781    7.4589 C   0  0  0  0  0  0  0  0  0  0  0  0
   27.3579   14.4831    7.9891 C   0  0  0  0  0  0  0  0  0  0  0  0
   27.4445   14.9687    9.2751 C   0  0  0  0  0  0  0  0  0  0  0  0
   28.5341   14.6507   10.0520 C   0  0  0  0  0  0  0  0  0  0  0  0
   29.5215   13.8605    9.5208 C   0  0  0  0  0  0  0  0  0  0  0  0
   31.8731    9.1695    7.4807 C   0  0  0  0  0  0  0  0  0  0  0  0
   32.9897    8.9202    6.6489 O   0  0  0  0  0  0  0  0  0  0  0  0
   31.8391   10.8561    5.9607 C   0  0  0  0  0  0  0  0  0  0  0  0
  2  1  1  6
  2  3  1  0
  3  4  1  0
  4  5  1  1
  5  6  2  0
  5  7  1  0
  7  8  1  0
  8  9  2  0
  9 10  1  0
 10 11  2  0
 11 12  1  0
 12 13  2  0
  4 14  1  0
 14 15  1  0
  4 16  1  0
 15  2  1  0
 16  2  1  0
 13  8  1  0
A    1
 C1 
A    2
 C2 
A    3
 C3 
A    4
 C4 
A    5
 C5 
A    6
 O1 
A    7
 N1 
A    8
 C6 
A    9
 C7 
A   10
 C8 
A   11
 C9 
A   12
 C10
A   13
 C11
A   14
 C12
A   15
 O2 
A   16
 C13
M  END
>  <ref_pdb>  (210) 
Ax0310a

>  <ref_mols>  (210) 
Ax0446a,Ax1080a,Ax0812a,Ax0719a,Ax1140a,Ax0528a,Ax0310a

>  <original SMILES>  (210) 
C[C@]12C[C@](C(=O)Nc3ccccc3)(CO1)C2

>  <rationale>  (210) 
info info set:bb_densepocket;hydroph_interaction:P107+Y89+Y90+H21; 

>  <experiment>  (210) 
bb_densepocket

>  <cluster_label>  (210) 
9

>  <cluster_rank>  (210) 
18

>  <N_interactions>  (210) 
5

>  <∆∆G>  (210) 
-0.888119

>  <comRMSD>  (210) 
0.719975

>  <ROCS_TanimotoCombo>  (210) 
0.731

>  <ROCS_ShapeTanimoto>  (210) 
0.223

>  <ROCS_ColorTanimoto>  (210) 
0.508

$$$$
EN300_371973
     RDKit          3D

 17 18  0  0  0  0  0  0  0  0999 V2000
   35.8555   13.5987    5.8237 C   0  0  0  0  0  0  0  0  0  0  0  0
   34.7668   13.0259    5.0856 O   0  0  0  0  0  0  0  0  0  0  0  0
   34.1711   11.8743    5.5341 C   0  0  0  0  0  0  0  0  0  0  0  0
   34.6360   10.5025    5.1637 C   0  0  0  0  0  0  0  0  0  0  0  0
   33.8145    9.3727    5.7844 C   0  0  0  0  0  0  0  0  0  0  0  0
   32.6899    9.6820    6.6605 C   0  0  0  0  0  0  0  0  0  0  0  0
   32.0266    8.6617    7.1885 N   0  0  0  0  0  0  0  0  0  0  0  0
   31.0107    8.9819    7.9794 C   0  0  0  0  0  0  0  0  0  0  0  0
   30.1674    7.7505    8.6660 Cl  0  0  0  0  0  0  0  0  0  0  0  0
   30.5649   10.3507    8.3075 C   0  0  0  0  0  0  0  0  0  0  0  0
   31.2884   11.3209    7.7381 C   0  0  0  0  0  0  0  0  0  0  0  0
   32.3585   11.0028    6.9159 C   0  0  0  0  0  0  0  0  0  0  0  0
   33.0828   11.9644    6.3655 C   0  0  0  0  0  0  0  0  0  0  0  0
   32.4870   13.4580    6.8176 S   0  0  0  0  0  6  0  0  0  0  0  0
   33.6311   14.4231    6.0565 N   0  0  0  0  0  0  0  0  0  0  0  0
   32.5565   13.6145    8.2622 O   0  0  0  0  0  0  0  0  0  0  0  0
   31.2381   13.4911    6.0762 O   0  0  0  0  0  0  0  0  0  0  0  0
  1  2  1  0
  2  3  1  0
  3  4  2  0
  4  5  1  0
  5  6  2  0
  6  7  1  0
  7  8  2  0
  8  9  1  0
  8 10  1  0
 10 11  2  0
 11 12  1  0
 12 13  2  0
 13 14  1  0
 14 15  1  0
 14 16  2  0
 14 17  2  0
 13  3  1  0
 12  6  1  0
A    1
 C1 
A    2
 O1 
A    3
 C2 
A    4
 C3 
A    5
 C4 
A    6
 C5 
A    7
 N1 
A    8
 C6 
A    9
CL1 
A   10
 C7 
A   11
 C8 
A   12
 C9 
A   13
 C10
A   14
 S1 
A   15
 N2 
A   16
 O2 
A   17
 O3 
M  END
>  <ref_pdb>  (211) 
Ax0310a

>  <ref_mols>  (211) 
Ax0446a,Ax1080a,Ax0812a,Ax0719a,Ax1140a,Ax0528a,Ax0310a

>  <original SMILES>  (211) 
COc1ccc2nc(Cl)ccc2c1S(N)(=O)=O

>  <rationale>  (211) 
info info set:sulfonimide_whole;hbond:S87+G127+A86; 

>  <experiment>  (211) 
sulfonimide_whole

>  <cluster_label>  (211) 
5

>  <cluster_rank>  (211) 
18

>  <N_interactions>  (211) 
3

>  <∆∆G>  (211) 
-2.066868

>  <comRMSD>  (211) 
0.881697

>  <ROCS_TanimotoCombo>  (211) 
0.36

>  <ROCS_ShapeTanimoto>  (211) 
0.214

>  <ROCS_ColorTanimoto>  (211) 
0.146

$$$$
Z98405527
     RDKit          3D

 26 30  0  0  0  0  0  0  0  0999 V2000
   30.2870    7.5210    8.7605 C   0  0  0  0  0  0  0  0  0  0  0  0
   30.9349    8.4963    8.1201 C   0  0  0  0  0  0  0  0  0  0  0  0
   30.4432    9.6698    8.3697 C   0  0  0  0  0  0  0  0  0  0  0  0
   31.1516   10.4341    7.6737 C   0  0  0  0  0  0  0  0  0  0  0  0
   30.9728   11.6625    7.6225 N   0  0  0  0  0  0  0  0  0  0  0  0
   31.7532   12.2293    6.9110 C   0  0  0  0  0  0  0  0  0  0  0  0
   31.5079   13.4745    6.8343 O   0  0  0  0  0  0  0  0  0  0  0  0
   30.1694   13.6997    7.1920 C   0  0  0  0  0  0  0  0  0  0  0  0
   29.0558   13.2170    6.5391 C   0  0  0  0  0  0  0  0  0  0  0  0
   27.7799   13.6056    6.9927 C   0  0  0  0  0  0  0  0  0  0  0  0
   27.6659   14.4834    8.0681 C   0  0  0  0  0  0  0  0  0  0  0  0
   28.8197   14.9107    8.6592 C   0  0  0  0  0  0  0  0  0  0  0  0
   30.0204   14.4918    8.2456 C   0  0  0  0  0  0  0  0  0  0  0  0
   31.1083   14.9314    8.9284 O   0  0  0  0  0  0  0  0  0  0  0  0
   30.5725   15.7066    9.9801 C   0  0  0  0  0  0  0  0  0  0  0  0
   30.6559   14.9284   11.2019 C   0  0  0  0  0  0  0  0  0  0  0  0
   31.6205   16.8166   10.2429 C   0  0  0  0  0  0  0  0  0  0  0  0
   29.0357   15.8364    9.7286 C   0  0  0  0  0  0  0  0  0  0  0  0
   32.8886   11.6978    6.1305 C   0  0  0  0  0  0  0  0  0  0  0  0
   33.7682   12.4594    5.3751 C   0  0  0  0  0  0  0  0  0  0  0  0
   34.7993   11.8175    4.6882 C   0  0  0  0  0  0  0  0  0  0  0  0
   34.9392   10.4240    4.7537 C   0  0  0  0  0  0  0  0  0  0  0  0
   34.0545    9.6585    5.5140 C   0  0  0  0  0  0  0  0  0  0  0  0
   33.0419   10.3164    6.1977 C   0  0  0  0  0  0  0  0  0  0  0  0
   32.1004    9.7022    7.0171 N   0  0  0  0  0  0  0  0  0  0  0  0
   31.9734    8.4113    7.2951 N   0  0  0  0  0  0  0  0  0  0  0  0
  1  2  1  0
  2  3  1  0
  3  4  2  0
  4  5  1  0
  5  6  2  0
  6  7  1  0
  7  8  1  0
  8  9  2  0
  9 10  1  0
 10 11  2  0
 11 12  1  0
 12 13  2  0
 13 14  1  0
 14 15  1  0
 15 16  1  0
 15 17  1  0
 15 18  1  0
  6 19  1  0
 19 20  2  0
 20 21  1  0
 21 22  2  0
 22 23  1  0
 23 24  2  0
 24 25  1  0
 25 26  1  0
 26  2  2  0
 25  4  1  0
 13  8  1  0
 24 19  1  0
 18 12  1  0
A    1
 C1 
A    2
 C2 
A    3
 C3 
A    4
 C4 
A    5
 N1 
A    6
 C5 
A    7
 O1 
A    8
 C6 
A    9
 C7 
A   10
 C8 
A   11
 C9 
A   12
 C10
A   13
 C11
A   14
 O2 
A   15
 C12
A   16
 C13
A   17
 C14
A   18
 C15
A   19
 C16
A   20
 C17
A   21
 C18
A   22
 C19
A   23
 C20
A   24
 C21
A   25
 N2 
A   26
 N3 
M  END
>  <ref_pdb>  (212) 
Ax0310a

>  <ref_mols>  (212) 
Ax0446a,Ax1080a,Ax0812a,Ax0719a,Ax1140a,Ax0528a,Ax0310a

>  <original SMILES>  (212) 
Cc1cc2nc(Oc3cccc4c3OC(C)(C)C4)c3ccccc3n2n1

>  <rationale>  (212) 
info info set:screening_whole;hbond:S87+G127; hydroph_interaction:P107+Y90+V124+T126+V84+D109; pistack:H21; 

>  <experiment>  (212) 
screening_whole

>  <cluster_label>  (212) 
3

>  <cluster_rank>  (212) 
19

>  <N_interactions>  (212) 
9

>  <∆∆G>  (212) 
-7.318752

>  <comRMSD>  (212) 
0.748984

>  <ROCS_TanimotoCombo>  (212) 
0.459

>  <ROCS_ShapeTanimoto>  (212) 
0.271

>  <ROCS_ColorTanimoto>  (212) 
0.188

$$$$
EN300_7445199
     RDKit          3D

 15 16  0  0  0  0  0  0  0  0999 V2000
   28.4721   13.0350    7.7916 C   0  0  0  0  0  0  0  0  0  0  0  0
   29.7814   12.7137    7.3185 O   0  0  0  0  0  0  0  0  0  0  0  0
   30.2800   11.5844    7.8593 C   0  0  0  0  0  0  0  0  0  0  0  0
   29.9079   11.0365    8.8199 O   0  0  0  0  0  0  0  0  0  0  0  0
   31.3709   10.9862    7.1156 C   0  0  0  0  0  0  0  0  0  0  0  0
   32.2114   11.7885    6.1241 C   0  0  0  0  0  0  0  0  0  0  0  0
   33.3104   10.9992    5.4159 C   0  0  0  0  0  0  0  0  0  0  0  0
   33.4177    9.5260    5.7908 C   0  0  0  0  0  0  0  0  0  0  0  0
   32.6627    8.8693    6.6717 N   0  0  0  0  0  0  0  0  0  0  0  0
   31.6842    9.4997    7.3362 C   0  0  0  0  0  0  0  0  0  0  0  0
   30.8661    8.7388    8.3449 C   0  0  0  0  0  0  0  0  0  0  0  0
   34.4008    8.7772    5.1679 N   0  0  0  0  0  0  0  0  0  0  0  0
   34.9512    9.2862    3.9287 C   0  0  0  0  0  0  0  0  0  0  0  0
   35.4091   10.7331    4.1158 C   0  0  0  0  0  0  0  0  0  0  0  0
   34.2179   11.6316    4.4187 C   0  0  0  0  0  0  0  0  0  0  0  0
  1  2  1  0
  2  3  1  0
  3  4  2  0
  3  5  1  0
  5  6  2  0
  6  7  1  0
  7  8  2  0
  8  9  1  0
  9 10  2  0
 10 11  1  0
  8 12  1  0
 12 13  1  0
 13 14  1  0
 14 15  1  0
 10  5  1  0
 15  7  1  0
A    1
 C1 
A    2
 O1 
A    3
 C2 
A    4
 O2 
A    5
 C3 
A    6
 C4 
A    7
 C5 
A    8
 C6 
A    9
 N1 
A   10
 C7 
A   11
 C8 
A   12
 N2 
A   13
 C9 
A   14
 C10
A   15
 C11
M  END
>  <ref_pdb>  (213) 
Ax0310a

>  <ref_mols>  (213) 
Ax0446a,Ax1080a,Ax0812a,Ax0719a,Ax1140a,Ax0528a,Ax0310a

>  <original SMILES>  (213) 
COC(=O)c1cc2c(nc1C)NCCC2

>  <rationale>  (213) 
info info set:bb_densepocket2;hbond:S105; hydroph_interaction:P107; saltbridge:H21; 

>  <experiment>  (213) 
bb_densepocket2

>  <cluster_label>  (213) 
9

>  <cluster_rank>  (213) 
19

>  <N_interactions>  (213) 
3

>  <∆∆G>  (213) 
-5.77458

>  <comRMSD>  (213) 
0.586194

>  <ROCS_TanimotoCombo>  (213) 
0.633

>  <ROCS_ShapeTanimoto>  (213) 
0.274

>  <ROCS_ColorTanimoto>  (213) 
0.36

$$$$
Z1620919894
     RDKit          3D

 15 15  0  0  0  0  0  0  0  0999 V2000
   32.6763   13.0187    5.9369 C   0  0  0  0  0  0  0  0  0  0  0  0
   32.5056   11.5470    6.2884 C   0  0  0  0  0  0  0  0  0  0  0  0
   33.4865   10.5977    5.6520 C   0  0  0  0  0  0  0  0  0  0  0  0
   33.3316    9.1205    5.9994 C   0  0  0  0  0  0  0  0  0  0  0  0
   32.3833    8.6252    6.8362 N   0  0  0  0  0  0  0  0  0  0  0  0
   31.5156    9.5176    7.3854 C   0  0  0  0  0  0  0  0  0  0  0  0
   30.6486    8.8575    8.1820 O   0  0  0  0  0  0  0  0  0  0  0  0
   31.5293   11.0252    7.1357 C   0  0  0  0  0  0  0  0  0  0  0  0
   30.6034   11.8880    7.7256 C   0  0  0  0  0  0  0  0  0  0  0  0
   30.6289   12.3866    8.8127 O   0  0  0  0  0  0  0  0  0  0  0  0
   29.5675   12.2214    6.9384 O   0  0  0  0  0  0  0  0  0  0  0  0
   28.5860   13.0469    7.5981 C   0  0  0  0  0  0  0  0  0  0  0  0
   28.6231   14.3234    7.0441 C   0  0  0  0  0  0  0  0  0  0  0  0
   28.7042   14.3514    5.6786 N   0  0  0  0  0  0  0  0  0  0  0  0
   28.5886   15.3789    7.6795 O   0  0  0  0  0  0  0  0  0  0  0  0
  1  2  1  0
  2  3  2  0
  3  4  1  0
  4  5  2  0
  5  6  1  0
  6  7  1  0
  6  8  2  0
  8  9  1  0
  9 10  2  0
  9 11  1  0
 11 12  1  0
 12 13  1  0
 13 14  1  0
 13 15  2  0
  8  2  1  0
A    1
 C1 
A    2
 C2 
A    3
 C3 
A    4
 C4 
A    5
 N1 
A    6
 C5 
A    7
 O1 
A    8
 C6 
A    9
 C7 
A   10
 O2 
A   11
 O3 
A   12
 C8 
A   13
 C9 
A   14
 N2 
A   15
 O4 
M  END
>  <ref_pdb>  (214) 
Ax0310a

>  <ref_mols>  (214) 
Ax0446a,Ax1080a,Ax0812a,Ax0719a,Ax1140a,Ax0528a,Ax0310a

>  <original SMILES>  (214) 
Cc1ccnc(O)c1C(=O)OCC(N)=O

>  <rationale>  (214) 
info info set:screening_pocket;hbond:S87+G127+E88; hydroph_interaction:P107; 

>  <experiment>  (214) 
screening_pocket

>  <cluster_label>  (214) 
8

>  <cluster_rank>  (214) 
19

>  <N_interactions>  (214) 
5

>  <∆∆G>  (214) 
-4.307058

>  <comRMSD>  (214) 
0.440849

>  <ROCS_TanimotoCombo>  (214) 
0.638

>  <ROCS_ShapeTanimoto>  (214) 
0.246

>  <ROCS_ColorTanimoto>  (214) 
0.393

$$$$
EN300_761135
     RDKit          3D

 13 13  0  0  0  0  0  0  0  0999 V2000
   29.9304   11.6075    7.4824 C   0  0  0  0  0  0  0  0  0  0  0  0
   30.9051   10.6552    7.8291 C   0  0  0  0  0  0  0  0  0  0  0  0
   30.5707    9.6185    8.6920 C   0  0  0  0  0  0  0  0  0  0  0  0
   31.4700    9.7684    6.7656 C   0  0  0  0  0  0  0  0  0  0  0  0
   32.8607    9.6288    6.8261 O   0  0  0  0  0  0  0  0  0  0  0  0
   33.2593   10.7926    6.1549 C   0  0  0  0  0  0  0  0  0  0  0  0
   32.5347   11.8272    6.7223 C   0  0  2  0  0  0  0  0  0  0  0  0
   33.1893   13.1740    6.7895 C   0  0  0  0  0  0  0  0  0  0  0  0
   33.5182   13.7699    8.4624 S   0  0  0  0  0  6  0  0  0  0  0  0
   34.8132   14.7498    8.0534 N   0  0  0  0  0  0  0  0  0  0  0  0
   32.4120   14.5388    8.9882 O   0  0  0  0  0  0  0  0  0  0  0  0
   34.1074   12.7552    9.2350 O   0  0  0  0  0  0  0  0  0  0  0  0
   32.0764   11.4380    8.0639 O   0  0  0  0  0  0  0  0  0  0  0  0
  1  2  1  0
  2  3  1  0
  2  4  1  0
  4  5  1  0
  5  6  1  0
  6  7  1  0
  7  8  1  1
  8  9  1  0
  9 10  1  0
  9 11  2  0
  9 12  2  0
  7 13  1  0
 13  2  1  0
A    1
 C1 
A    2
 C2 
A    3
 C3 
A    4
 C4 
A    5
 O1 
A    6
 C5 
A    7
 C6 
A    8
 C7 
A    9
 S1 
A   10
 N1 
A   11
 O2 
A   12
 O3 
A   13
 O4 
M  END
>  <ref_pdb>  (215) 
Ax0310a

>  <ref_mols>  (215) 
Ax0446a,Ax1080a,Ax0812a,Ax0719a,Ax1140a,Ax0528a,Ax0310a

>  <original SMILES>  (215) 
CC1(C)COC[C@H](CS(N)(=O)=O)O1

>  <rationale>  (215) 
info info set:sulfonimide_whole;hbond:S87+G127+A86; hydroph_interaction:P107; 

>  <experiment>  (215) 
sulfonimide_whole

>  <cluster_label>  (215) 
5

>  <cluster_rank>  (215) 
19

>  <N_interactions>  (215) 
4

>  <∆∆G>  (215) 
-3.770405

>  <comRMSD>  (215) 
0.785525

>  <ROCS_TanimotoCombo>  (215) 
0.348

>  <ROCS_ShapeTanimoto>  (215) 
0.186

>  <ROCS_ColorTanimoto>  (215) 
0.161

$$$$
EN300_10937
     RDKit          3D

 17 17  0  0  0  0  0  0  0  0999 V2000
   34.3783    8.9961    5.3227 C   0  0  0  0  0  0  0  0  0  0  0  0
   33.2393    8.7016    6.0873 O   0  0  0  0  0  0  0  0  0  0  0  0
   32.4850    9.6610    6.6666 C   0  0  0  0  0  0  0  0  0  0  0  0
   31.4602    9.2942    7.5407 C   0  0  0  0  0  0  0  0  0  0  0  0
   30.6599   10.2291    8.1628 C   0  0  0  0  0  0  0  0  0  0  0  0
   30.8211   11.5849    7.9565 C   0  0  0  0  0  0  0  0  0  0  0  0
   30.0566   12.5134    8.5582 N   0  0  0  0  0  0  0  0  0  0  0  0
   30.6081   13.7977    9.0142 C   0  0  0  0  0  0  0  0  0  0  0  0
   31.7473   14.2216    8.9172 O   0  0  0  0  0  0  0  0  0  0  0  0
   29.5247   14.5995    9.7107 C   0  0  0  0  0  0  0  0  0  0  0  0
   30.3329   15.4260   11.0536 Cl  0  0  0  0  0  0  0  0  0  0  0  0
   31.8149   12.0365    7.1035 C   0  0  0  0  0  0  0  0  0  0  0  0
   32.7098   11.0277    6.4130 C   0  0  0  0  0  0  0  0  0  0  0  0
   33.9642   11.7014    5.3429 S   0  0  0  0  0  6  0  0  0  0  0  0
   33.3243   11.5930    3.8090 N   0  0  0  0  0  0  0  0  0  0  0  0
   34.1083   13.1125    5.6159 O   0  0  0  0  0  0  0  0  0  0  0  0
   35.1190   10.8372    5.2902 O   0  0  0  0  0  0  0  0  0  0  0  0
  1  2  1  0
  2  3  1  0
  3  4  2  0
  4  5  1  0
  5  6  2  0
  6  7  1  0
  7  8  1  0
  8  9  2  0
  8 10  1  0
 10 11  1  0
  6 12  1  0
 12 13  2  0
 13 14  1  0
 14 15  1  0
 14 16  2  0
 14 17  2  0
 13  3  1  0
A    1
 C1 
A    2
 O1 
A    3
 C2 
A    4
 C3 
A    5
 C4 
A    6
 C5 
A    7
 N1 
A    8
 C6 
A    9
 O2 
A   10
 C7 
A   11
CL1 
A   12
 C8 
A   13
 C9 
A   14
 S1 
A   15
 N2 
A   16
 O3 
A   17
 O4 
M  END
>  <ref_pdb>  (216) 
Ax0310a

>  <ref_mols>  (216) 
Ax0446a,Ax1080a,Ax0812a,Ax0719a,Ax1140a,Ax0528a,Ax0310a

>  <original SMILES>  (216) 
COc1ccc(NC(=O)CCl)cc1S(N)(=O)=O

>  <rationale>  (216) 
info info set:sulfonimide_whole;halogenbond:Q95; hbond:S87; 

>  <experiment>  (216) 
sulfonimide_whole

>  <cluster_label>  (216) 
7

>  <cluster_rank>  (216) 
19

>  <N_interactions>  (216) 
2

>  <∆∆G>  (216) 
-4.884709

>  <comRMSD>  (216) 
0.581083

>  <ROCS_TanimotoCombo>  (216) 
0.349

>  <ROCS_ShapeTanimoto>  (216) 
0.21

>  <ROCS_ColorTanimoto>  (216) 
0.139

$$$$
Z2892820671
     RDKit          3D

 20 22  0  0  0  0  0  0  0  0999 V2000
   29.1187   14.1739    5.4231 C   0  0  0  0  0  0  0  0  0  0  0  0
   28.9208   14.3865    6.9172 C   0  0  0  0  0  0  0  0  0  0  0  0
   28.6282   15.7112    7.3704 N   0  0  0  0  0  0  0  0  0  0  0  0
   28.4972   15.6001    8.7086 O   0  0  0  0  0  0  0  0  0  0  0  0
   28.7032   14.3128    9.0974 C   0  0  0  0  0  0  0  0  0  0  0  0
   28.5764   14.1633   10.5941 C   0  0  0  0  0  0  0  0  0  0  0  0
   28.9723   13.5193    8.0180 C   0  0  0  0  0  0  0  0  0  0  0  0
   29.2303   12.2548    7.9159 N   0  0  0  0  0  0  0  0  0  0  0  0
   28.7058   12.1794    6.7368 C   0  0  0  0  0  0  0  0  0  0  0  0
   30.6376   12.0232    8.0097 C   0  0  0  0  0  0  0  0  0  0  0  0
   31.2642   12.8205    8.6682 O   0  0  0  0  0  0  0  0  0  0  0  0
   31.4563   10.9260    7.3329 C   0  0  0  0  0  0  0  0  0  0  0  0
   31.3346    9.4833    7.6907 C   0  0  0  0  0  0  0  0  0  0  0  0
   32.1637    8.6762    6.9975 N   0  0  0  0  0  0  0  0  0  0  0  0
   32.9291    9.3998    6.1054 C   0  0  0  0  0  0  0  0  0  0  0  0
   33.8703    8.9720    5.2310 N   0  0  0  0  0  0  0  0  0  0  0  0
   34.7079    9.8549    4.6538 C   0  0  0  0  0  0  0  0  0  0  0  0
   34.5264   10.2630    3.3055 C   0  0  0  0  0  0  0  0  0  0  0  0
   35.6568    9.5863    3.3149 C   0  0  0  0  0  0  0  0  0  0  0  0
   32.6315   11.1136    6.1203 S   0  0  0  0  0  0  0  0  0  0  0  0
  1  2  1  0
  2  3  2  0
  3  4  1  0
  4  5  1  0
  5  6  1  0
  5  7  2  0
  7  8  1  0
  8  9  1  0
  8 10  1  0
 10 11  2  0
 10 12  1  0
 12 13  2  0
 13 14  1  0
 14 15  2  0
 15 16  1  0
 16 17  1  0
 17 18  1  0
 18 19  1  0
 15 20  1  0
  7  2  1  0
 20 12  1  0
 19 17  1  0
A    1
 C1 
A    2
 C2 
A    3
 N1 
A    4
 O1 
A    5
 C3 
A    6
 C4 
A    7
 C5 
A    8
 N2 
A    9
 C6 
A   10
 C7 
A   11
 O2 
A   12
 C8 
A   13
 C9 
A   14
 N3 
A   15
 C10
A   16
 N4 
A   17
 C11
A   18
 C12
A   19
 C13
A   20
 S1 
M  END
>  <ref_pdb>  (217) 
Ax0310a

>  <ref_mols>  (217) 
Ax0446a,Ax1080a,Ax0812a,Ax0719a,Ax1140a,Ax0528a,Ax0310a

>  <original SMILES>  (217) 
Cc1noc(C)c1N(C)C(=O)c1cnc(NC2CC2)s1

>  <rationale>  (217) 
info info set:screening_pocket;hbond:S87+S105+G127; hydroph_interaction:Y90; pication:H21; 

>  <experiment>  (217) 
screening_pocket

>  <cluster_label>  (217) 
12

>  <cluster_rank>  (217) 
19

>  <N_interactions>  (217) 
5

>  <∆∆G>  (217) 
-5.007474

>  <comRMSD>  (217) 
0.791443

>  <ROCS_TanimotoCombo>  (217) 
0.631

>  <ROCS_ShapeTanimoto>  (217) 
0.245

>  <ROCS_ColorTanimoto>  (217) 
0.386

$$$$
Z1696870908
     RDKit          3D

 11 12  0  0  0  0  0  0  0  0999 V2000
   32.3902    9.6610    6.5244 C   0  0  0  0  0  0  0  0  0  0  0  0
   33.1964   10.7458    6.2368 C   0  0  0  0  0  0  0  0  0  0  0  0
   32.1996   12.1925    5.8276 S   0  0  0  0  0  0  0  0  0  0  0  0
   31.3253   12.3851    7.4470 C   0  0  0  0  0  0  0  0  0  0  0  0
   32.2772   13.0807    8.2239 C   0  0  0  0  0  0  0  0  0  0  0  0
   31.6286   13.9202    9.2910 C   0  0  0  0  0  0  0  0  0  0  0  0
   30.9180   14.7200    8.7569 O   0  0  0  0  0  0  0  0  0  0  0  0
   29.7193   14.1095    8.3151 C   0  0  0  0  0  0  0  0  0  0  0  0
   30.0293   13.1700    7.1541 C   0  0  0  0  0  0  0  0  0  0  0  0
   30.8449   10.9942    7.9757 C   0  0  0  0  0  0  0  0  0  0  0  0
   31.6116    9.7597    7.7471 N   0  0  0  0  0  0  0  0  0  0  0  0
  1  2  1  0
  2  3  1  0
  3  4  1  0
  4  5  1  0
  5  6  1  0
  6  7  1  0
  7  8  1  0
  8  9  1  0
  4 10  1  0
 10 11  1  0
 11  1  1  0
  9  4  1  0
A    1
 C1 
A    2
 C2 
A    3
 S1 
A    4
 C3 
A    5
 C4 
A    6
 C5 
A    7
 O1 
A    8
 C6 
A    9
 C7 
A   10
 C8 
A   11
 N1 
M  END
>  <ref_pdb>  (218) 
Ax0310a

>  <ref_mols>  (218) 
Ax0446a,Ax1080a,Ax0812a,Ax0719a,Ax1140a,Ax0528a,Ax0310a

>  <original SMILES>  (218) 
C1CSC2(CCOCC2)CN1

>  <rationale>  (218) 
info info set:3d;hbond:S87+E106; 

>  <experiment>  (218) 
3d

>  <cluster_label>  (218) 
6

>  <cluster_rank>  (218) 
19

>  <N_interactions>  (218) 
2

>  <∆∆G>  (218) 
-0.66386

>  <comRMSD>  (218) 
0.7879

>  <ROCS_TanimotoCombo>  (218) 
0.285

>  <ROCS_ShapeTanimoto>  (218) 
0.167

>  <ROCS_ColorTanimoto>  (218) 
0.117

$$$$
EN300_3032406
     RDKit          3D

 12 12  0  0  0  0  0  0  0  0999 V2000
   30.0533    8.5067    9.2119 C   0  0  0  0  0  0  0  0  0  0  0  0
   30.7867    8.6555    8.0569 N   0  0  0  0  0  0  0  0  0  0  0  0
   31.0543    9.9637    7.8513 C   0  0  0  0  0  0  0  0  0  0  0  0
   30.5162   11.1258    8.5160 O   0  0  0  0  0  0  0  0  0  0  0  0
   32.0521   10.2077    6.7783 C   0  0  0  0  0  0  0  0  0  0  0  0
   31.9350   11.5926    6.2383 C   0  0  0  0  0  0  0  0  0  0  0  0
   32.7527   11.9823    5.2558 N   0  0  0  0  0  0  0  0  0  0  0  0
   33.6214   10.9895    4.8802 C   0  0  0  0  0  0  0  0  0  0  0  0
   33.7184    9.6825    5.4079 C   0  0  0  0  0  0  0  0  0  0  0  0
   34.6326    8.7268    4.9759 N   0  0  0  0  0  0  0  0  0  0  0  0
   34.7419    8.5878    3.5443 C   0  0  0  0  0  0  0  0  0  0  0  0
   32.9112    9.2785    6.3821 N   0  0  0  0  0  0  0  0  0  0  0  0
  1  2  1  0
  2  3  1  0
  3  4  2  0
  3  5  1  0
  5  6  2  0
  6  7  1  0
  7  8  2  0
  8  9  1  0
  9 10  1  0
 10 11  1  0
  9 12  2  0
 12  5  1  0
A    1
 C1 
A    2
 N1 
A    3
 C2 
A    4
 O1 
A    5
 C3 
A    6
 C4 
A    7
 N2 
A    8
 C5 
A    9
 C6 
A   10
 N3 
A   11
 C7 
A   12
 N4 
M  END
>  <ref_pdb>  (219) 
Ax0310a

>  <ref_mols>  (219) 
Ax0446a,Ax1080a,Ax0812a,Ax0719a,Ax1140a,Ax0528a,Ax0310a

>  <original SMILES>  (219) 
CNC(=O)c1cncc(NC)n1

>  <rationale>  (219) 
info info set:bb_densepocket2;hbond:S105+E106; 

>  <experiment>  (219) 
bb_densepocket2

>  <cluster_label>  (219) 
6

>  <cluster_rank>  (219) 
20

>  <N_interactions>  (219) 
2

>  <∆∆G>  (219) 
-4.53389

>  <comRMSD>  (219) 
0.770059

>  <ROCS_TanimotoCombo>  (219) 
0.61

>  <ROCS_ShapeTanimoto>  (219) 
0.206

>  <ROCS_ColorTanimoto>  (219) 
0.404

$$$$
Z1754079190
     RDKit          3D

 23 25  0  0  0  0  0  0  0  0999 V2000
   32.3983   12.9292    6.2443 C   0  0  0  0  0  0  0  0  0  0  0  0
   32.4600   11.4267    6.3836 C   0  0  0  0  0  0  0  0  0  0  0  0
   33.4950   10.6888    5.5831 C   0  0  0  0  0  0  0  0  0  0  0  0
   33.5433    9.2028    5.7365 C   0  0  0  0  0  0  0  0  0  0  0  0
   32.6926    8.5536    6.5655 N   0  0  0  0  0  0  0  0  0  0  0  0
   31.8193    9.2701    7.2258 C   0  0  0  0  0  0  0  0  0  0  0  0
   31.0534    8.4722    8.0041 O   0  0  0  0  0  0  0  0  0  0  0  0
   31.6459   10.6260    7.1912 C   0  0  0  0  0  0  0  0  0  0  0  0
   30.5892   11.1229    8.0332 C   0  0  0  0  0  0  0  0  0  0  0  0
   30.2344   10.4401    8.9591 O   0  0  0  0  0  0  0  0  0  0  0  0
   30.0469   12.3272    7.6939 N   0  0  0  0  0  0  0  0  0  0  0  0
   29.1443   12.8763    8.4667 C   0  0  0  0  0  0  0  0  0  0  0  0
   28.0853   13.4868    7.6577 C   0  0  1  0  0  0  0  0  0  0  0  0
   27.3816   14.5802    8.3725 C   0  0  0  0  0  0  0  0  0  0  0  0
   28.2660   15.5618    8.5491 C   0  0  0  0  0  0  0  0  0  0  0  0
   28.7276   15.6815    7.2015 O   0  0  0  0  0  0  0  0  0  0  0  0
   28.8899   14.3181    6.6882 C   0  0  2  0  0  0  0  0  0  0  0  0
   28.5070   14.1073    5.3607 C   0  0  0  0  0  0  0  0  0  0  0  0
   27.0467   13.8545    5.0292 C   0  0  0  0  0  0  0  0  0  0  0  0
   26.6393   13.6195    3.5374 C   0  0  0  0  0  0  0  0  0  0  0  0
   27.7350   13.6352    2.4681 C   0  0  0  0  0  0  0  0  0  0  0  0
   29.1922   13.8899    2.8910 C   0  0  0  0  0  0  0  0  0  0  0  0
   29.4975   14.1237    4.3682 C   0  0  0  0  0  0  0  0  0  0  0  0
  1  2  1  0
  2  3  2  0
  3  4  1  0
  4  5  2  0
  5  6  1  0
  6  7  1  0
  6  8  2  0
  8  9  1  0
  9 10  2  0
  9 11  1  0
 11 12  1  0
 13 12  1  1
 13 14  1  0
 14 15  1  0
 15 16  1  0
 16 17  1  0
 17 18  1  6
 18 19  2  0
 19 20  1  0
 20 21  2  0
 21 22  1  0
 22 23  2  0
  8  2  1  0
 17 13  1  0
 23 18  1  0
A    1
 C1 
A    2
 C2 
A    3
 C3 
A    4
 C4 
A    5
 N1 
A    6
 C5 
A    7
 O1 
A    8
 C6 
A    9
 C7 
A   10
 O2 
A   11
 N2 
A   12
 C8 
A   13
 C9 
A   14
 C10
A   15
 C11
A   16
 O3 
A   17
 C12
A   18
 C13
A   19
 C14
A   20
 C15
A   21
 C16
A   22
 C17
A   23
 C18
M  END
>  <ref_pdb>  (220) 
Ax0310a

>  <ref_mols>  (220) 
Ax0446a,Ax1080a,Ax0812a,Ax0719a,Ax1140a,Ax0528a,Ax0310a

>  <original SMILES>  (220) 
Cc1ccnc(O)c1C(=O)NC[C@H]1CCO[C@@H]1c1ccccc1

>  <rationale>  (220) 
info info set:screening_pocket;hydroph_interaction:P107+Y89+E88; 

>  <experiment>  (220) 
screening_pocket

>  <cluster_label>  (220) 
12

>  <cluster_rank>  (220) 
20

>  <N_interactions>  (220) 
5

>  <∆∆G>  (220) 
-3.440092

>  <comRMSD>  (220) 
0.666982

>  <ROCS_TanimotoCombo>  (220) 
0.63

>  <ROCS_ShapeTanimoto>  (220) 
0.238

>  <ROCS_ColorTanimoto>  (220) 
0.392

$$$$
EN300_66100
     RDKit          3D

 16 16  0  0  0  0  0  0  0  0999 V2000
   32.6395   12.9588    3.5283 C   0  0  0  0  0  0  0  0  0  0  0  0
   33.3735   11.7349    3.7879 N   0  0  0  0  0  0  0  0  0  0  0  0
   34.1429   11.5751    5.2680 S   0  0  0  0  0  6  0  0  0  0  0  0
   35.1109   10.5173    5.0933 O   0  0  0  0  0  0  0  0  0  0  0  0
   34.4978   12.9243    5.6439 O   0  0  0  0  0  0  0  0  0  0  0  0
   32.8430   10.9971    6.3185 C   0  0  0  0  0  0  0  0  0  0  0  0
   32.6656    9.6678    6.5635 C   0  0  0  0  0  0  0  0  0  0  0  0
   31.6256    9.1289    7.4257 C   0  0  0  0  0  0  0  0  0  0  0  0
   30.6908   10.1366    8.0769 C   0  0  0  0  0  0  0  0  0  0  0  0
   30.9150   11.4843    7.7791 C   0  0  0  0  0  0  0  0  0  0  0  0
   30.0504   12.3554    8.3661 N   0  0  0  0  0  0  0  0  0  0  0  0
   30.2671   13.6026    8.9340 C   0  0  0  0  0  0  0  0  0  0  0  0
   31.3452   14.1806    9.0699 O   0  0  0  0  0  0  0  0  0  0  0  0
   29.0690   14.1795    9.3685 C   0  0  0  0  0  0  0  0  0  0  0  0
   28.4268   15.0489    8.4862 N   0  0  0  0  0  0  0  0  0  0  0  0
   31.9618   11.9097    6.9270 C   0  0  0  0  0  0  0  0  0  0  0  0
  1  2  1  0
  2  3  1  0
  3  4  2  0
  3  5  2  0
  3  6  1  0
  6  7  2  0
  7  8  1  0
  8  9  2  0
  9 10  1  0
 10 11  1  0
 11 12  1  0
 12 13  2  0
 12 14  1  0
 14 15  1  0
 10 16  2  0
 16  6  1  0
A    1
 C1 
A    2
 N1 
A    3
 S1 
A    4
 O1 
A    5
 O2 
A    6
 C2 
A    7
 C3 
A    8
 C4 
A    9
 C5 
A   10
 C6 
A   11
 N2 
A   12
 C7 
A   13
 O3 
A   14
 C8 
A   15
 N3 
A   16
 C9 
M  END
>  <ref_pdb>  (221) 
Ax0310a

>  <ref_mols>  (221) 
Ax0446a,Ax1080a,Ax0812a,Ax0719a,Ax1140a,Ax0528a,Ax0310a

>  <original SMILES>  (221) 
CNS(=O)(=O)c1cccc(NC(=O)CN)c1

>  <rationale>  (221) 
info info set:sulfonimide_whole;hbond:S87+H21; 

>  <experiment>  (221) 
sulfonimide_whole

>  <cluster_label>  (221) 
7

>  <cluster_rank>  (221) 
20

>  <N_interactions>  (221) 
2

>  <∆∆G>  (221) 
-8.13506

>  <comRMSD>  (221) 
0.301411

>  <ROCS_TanimotoCombo>  (221) 
0.339

>  <ROCS_ShapeTanimoto>  (221) 
0.206

>  <ROCS_ColorTanimoto>  (221) 
0.133

$$$$
EN300_130084
     RDKit          3D

 12 12  0  0  0  0  0  0  0  0999 V2000
   30.6228   12.9480    8.0419 N   0  0  0  0  0  0  0  0  0  0  0  0
   31.2362   11.7538    7.6328 C   0  0  0  0  0  0  0  0  0  0  0  0
   30.5624   10.4505    7.8812 C   0  0  0  0  0  0  0  0  0  0  0  0
   31.2682    9.2599    7.4037 C   0  0  0  0  0  0  0  0  0  0  0  0
   32.4873    9.3418    6.7498 C   0  0  0  0  0  0  0  0  0  0  0  0
   33.0813   10.5702    6.5562 C   0  0  0  0  0  0  0  0  0  0  0  0
   32.4715   11.7560    7.0016 C   0  0  0  0  0  0  0  0  0  0  0  0
   33.1753   13.0626    6.8115 C   0  0  0  0  0  0  0  0  0  0  0  0
   33.5770   13.7841    8.3645 S   0  0  0  0  0  6  0  0  0  0  0  0
   34.8376   14.8098    7.9172 N   0  0  0  0  0  0  0  0  0  0  0  0
   34.2019   12.8201    9.1984 O   0  0  0  0  0  0  0  0  0  0  0  0
   32.4367   14.4987    8.9032 O   0  0  0  0  0  0  0  0  0  0  0  0
  1  2  1  0
  2  3  2  0
  3  4  1  0
  4  5  2  0
  5  6  1  0
  6  7  2  0
  7  8  1  0
  8  9  1  0
  9 10  1  0
  9 11  2  0
  9 12  2  0
  7  2  1  0
A    1
 N1 
A    2
 C1 
A    3
 C2 
A    4
 C3 
A    5
 C4 
A    6
 C5 
A    7
 C6 
A    8
 C7 
A    9
 S1 
A   10
 N2 
A   11
 O1 
A   12
 O2 
M  END
>  <ref_pdb>  (222) 
Ax0310a

>  <ref_mols>  (222) 
Ax0446a,Ax1080a,Ax0812a,Ax0719a,Ax1140a,Ax0528a,Ax0310a

>  <original SMILES>  (222) 
Nc1ccccc1CS(N)(=O)=O

>  <rationale>  (222) 
info info set:sulfonimide_whole;hbond:S87+S125+G127+A86; 

>  <experiment>  (222) 
sulfonimide_whole

>  <cluster_label>  (222) 
5

>  <cluster_rank>  (222) 
20

>  <N_interactions>  (222) 
4

>  <∆∆G>  (222) 
-5.541908

>  <comRMSD>  (222) 
0.658221

>  <ROCS_TanimotoCombo>  (222) 
0.338

>  <ROCS_ShapeTanimoto>  (222) 
0.172

>  <ROCS_ColorTanimoto>  (222) 
0.167

$$$$
EN300_252276
     RDKit          3D

 17 17  0  0  0  0  0  0  0  0999 V2000
   35.3045   14.0500    7.9777 C   0  0  0  0  0  0  0  0  0  0  0  0
   33.9977   13.6378    7.5902 O   0  0  0  0  0  0  0  0  0  0  0  0
   33.9539   13.3389    6.2662 C   0  0  0  0  0  0  0  0  0  0  0  0
   34.9142   13.3943    5.5077 O   0  0  0  0  0  0  0  0  0  0  0  0
   32.6826   12.9674    5.8746 C   0  0  0  0  0  0  0  0  0  0  0  0
   31.9688   11.9763    6.6916 C   0  0  0  0  0  0  0  0  0  0  0  0
   32.4395   10.5065    6.5963 C   0  0  0  0  0  0  0  0  0  0  0  0
   31.6606    9.5194    7.4578 C   0  0  0  0  0  0  0  0  0  0  0  0
   31.9056    8.2385    7.5292 O   0  0  0  0  0  0  0  0  0  0  0  0
   30.9120    7.9384    8.5144 C   0  0  0  0  0  0  0  0  0  0  0  0
   30.5253    9.9475    8.3136 C   0  0  0  0  0  0  0  0  0  0  0  0
   30.1772   11.2316    8.3379 C   0  0  0  0  0  0  0  0  0  0  0  0
   30.8686   12.2675    7.5631 C   0  0  0  0  0  0  0  0  0  0  0  0
   30.0570   13.7951    7.9616 S   0  0  0  0  0  6  0  0  0  0  0  0
   28.8233   13.4185    9.0323 N   0  0  0  0  0  0  0  0  0  0  0  0
   30.9764   14.5647    8.7770 O   0  0  0  0  0  0  0  0  0  0  0  0
   29.3843   14.2704    6.7859 O   0  0  0  0  0  0  0  0  0  0  0  0
  1  2  1  0
  2  3  1  0
  3  4  2  0
  3  5  1  0
  5  6  1  0
  6  7  2  0
  7  8  1  0
  8  9  1  0
  9 10  1  0
  8 11  2  0
 11 12  1  0
 12 13  2  0
 13 14  1  0
 14 15  1  0
 14 16  2  0
 14 17  2  0
 13  6  1  0
A    1
 C1 
A    2
 O1 
A    3
 C2 
A    4
 O2 
A    5
 C3 
A    6
 C4 
A    7
 C5 
A    8
 C6 
A    9
 O3 
A   10
 C7 
A   11
 C8 
A   12
 C9 
A   13
 C10
A   14
 S1 
A   15
 N1 
A   16
 O4 
A   17
 O5 
M  END
>  <ref_pdb>  (223) 
Ax0310a

>  <ref_mols>  (223) 
Ax0446a,Ax1080a,Ax0812a,Ax0719a,Ax1140a,Ax0528a,Ax0310a

>  <original SMILES>  (223) 
COC(=O)Cc1cc(OC)ccc1S(N)(=O)=O

>  <rationale>  (223) 
info info set:sulfonimide_whole;hbond:S87+S125+E88; 

>  <experiment>  (223) 
sulfonimide_whole

>  <cluster_label>  (223) 
8

>  <cluster_rank>  (223) 
20

>  <N_interactions>  (223) 
3

>  <∆∆G>  (223) 
-8.112079

>  <comRMSD>  (223) 
0.589059

>  <ROCS_TanimotoCombo>  (223) 
0.352

>  <ROCS_ShapeTanimoto>  (223) 
0.214

>  <ROCS_ColorTanimoto>  (223) 
0.138

$$$$
Z1258715612
     RDKit          3D

 16 17  0  0  0  0  0  0  0  0999 V2000
   31.9216   14.0291    8.8574 O   0  0  0  0  0  0  0  0  0  0  0  0
   31.0983   13.3043    8.3028 C   0  0  0  0  0  0  0  0  0  0  0  0
   31.6068   12.1229    7.5971 C   0  0  0  0  0  0  0  0  0  0  0  0
   32.5566   12.2259    6.4726 C   0  0  0  0  0  0  0  0  0  0  0  0
   32.9809   13.3947    5.9970 F   0  0  0  0  0  0  0  0  0  0  0  0
   33.0082   11.0585    5.9204 C   0  0  0  0  0  0  0  0  0  0  0  0
   32.6112    9.7571    6.3597 C   0  0  0  0  0  0  0  0  0  0  0  0
   33.1380    8.7308    5.7661 F   0  0  0  0  0  0  0  0  0  0  0  0
   31.7039    9.5507    7.3811 C   0  0  0  0  0  0  0  0  0  0  0  0
   31.1275   10.7341    8.0744 C   0  0  0  0  0  0  0  0  0  0  0  0
   30.2827   10.5082    9.0239 F   0  0  0  0  0  0  0  0  0  0  0  0
   29.6994   13.5276    8.3084 N   0  0  0  0  0  0  0  0  0  0  0  0
   28.7662   13.1113    7.2697 C   0  0  0  0  0  0  0  0  0  0  0  0
   27.6830   14.1858    7.3061 C   0  0  0  0  0  0  0  0  0  0  0  0
   28.0735   15.2584    8.3040 C   0  0  0  0  0  0  0  0  0  0  0  0
   29.1551   14.6100    9.1367 C   0  0  0  0  0  0  0  0  0  0  0  0
  1  2  2  0
  2  3  1  0
  3  4  2  0
  4  5  1  0
  4  6  1  0
  6  7  2  0
  7  8  1  0
  7  9  1  0
  9 10  2  0
 10 11  1  0
  2 12  1  0
 12 13  1  0
 13 14  1  0
 14 15  1  0
 15 16  1  0
 10  3  1  0
 16 12  1  0
A    1
 O1 
A    2
 C1 
A    3
 C2 
A    4
 C3 
A    5
 F1 
A    6
 C4 
A    7
 C5 
A    8
 F2 
A    9
 C6 
A   10
 C7 
A   11
 F3 
A   12
 N1 
A   13
 C8 
A   14
 C9 
A   15
 C10
A   16
 C11
M  END
>  <ref_pdb>  (224) 
Ax0310a

>  <ref_mols>  (224) 
Ax0446a,Ax1080a,Ax0812a,Ax0719a,Ax1140a,Ax0528a,Ax0310a

>  <original SMILES>  (224) 
O=C(c1c(F)cc(F)cc1F)N1CCCC1

>  <rationale>  (224) 
info info set:3d;halogenbond:S105+S125; hbond:S87; hydroph_interaction:Y89+Y90; 

>  <experiment>  (224) 
3d

>  <cluster_label>  (224) 
9

>  <cluster_rank>  (224) 
20

>  <N_interactions>  (224) 
6

>  <∆∆G>  (224) 
-3.62331

>  <comRMSD>  (224) 
0.891603

>  <ROCS_TanimotoCombo>  (224) 
0.3

>  <ROCS_ShapeTanimoto>  (224) 
0.202

>  <ROCS_ColorTanimoto>  (224) 
0.098

$$$$
Z3079948490
     RDKit          3D

 18 19  0  0  0  0  0  0  0  0999 V2000
   35.6315   10.4979    4.2211 C   0  0  0  0  0  0  0  0  0  0  0  0
   34.7797    9.2309    4.1341 C   0  0  0  0  0  0  0  0  0  0  0  0
   34.2712    8.7983    5.2877 N   0  0  0  0  0  0  0  0  0  0  0  0
   33.3047    9.5656    5.9293 C   0  0  0  0  0  0  0  0  0  0  0  0
   33.1800   11.0348    5.6918 C   0  0  0  0  0  0  0  0  0  0  0  0
   32.1607   12.0064    6.3719 C   0  0  0  0  0  0  0  0  0  0  0  0
   31.3263   11.0694    7.3430 C   0  0  0  0  0  0  0  0  0  0  0  0
   30.3311   11.6300    8.1212 N   0  0  0  0  0  0  0  0  0  0  0  0
   29.5979   12.7881    7.8123 C   0  0  0  0  0  0  0  0  0  0  0  0
   28.7766   12.7302    6.7555 N   0  0  0  0  0  0  0  0  0  0  0  0
   28.0818   13.8144    6.4620 C   0  0  0  0  0  0  0  0  0  0  0  0
   28.1288   14.9418    7.1256 N   0  0  0  0  0  0  0  0  0  0  0  0
   28.9380   14.9978    8.1605 C   0  0  0  0  0  0  0  0  0  0  0  0
   28.9322   16.3274    8.8519 C   0  0  0  0  0  0  0  0  0  0  0  0
   29.7242   13.9574    8.5794 C   0  0  0  0  0  0  0  0  0  0  0  0
   30.6486   14.1659    9.8038 C   0  0  0  0  0  0  0  0  0  0  0  0
   31.5658    9.6915    7.4386 C   0  0  0  0  0  0  0  0  0  0  0  0
   32.4903    8.9530    6.7855 N   0  0  0  0  0  0  0  0  0  0  0  0
  1  2  1  0
  2  3  1  0
  3  4  1  0
  4  5  2  0
  5  6  1  0
  6  7  2  0
  7  8  1  0
  8  9  1  0
  9 10  2  0
 10 11  1  0
 11 12  2  0
 12 13  1  0
 13 14  1  0
 13 15  2  0
 15 16  1  0
  7 17  1  0
 17 18  2  0
 18  4  1  0
 15  9  1  0
A    1
 C1 
A    2
 C2 
A    3
 N1 
A    4
 C3 
A    5
 C4 
A    6
 C5 
A    7
 C6 
A    8
 N2 
A    9
 C7 
A   10
 N3 
A   11
 C8 
A   12
 N4 
A   13
 C9 
A   14
 C10
A   15
 C11
A   16
 C12
A   17
 C13
A   18
 N5 
M  END
>  <ref_pdb>  (225) 
Ax0310a

>  <ref_mols>  (225) 
Ax0446a,Ax1080a,Ax0812a,Ax0719a,Ax1140a,Ax0528a,Ax0310a

>  <original SMILES>  (225) 
CCNc1ccc(Nc2ncnc(C)c2C)cn1

>  <rationale>  (225) 
info info set:screening_pocket;hbond:S105+S125; hydroph_interaction:P107+Y89+Y90+T126; pistack:H21; 

>  <experiment>  (225) 
screening_pocket

>  <cluster_label>  (225) 
3

>  <cluster_rank>  (225) 
20

>  <N_interactions>  (225) 
7

>  <∆∆G>  (225) 
-7.263612

>  <comRMSD>  (225) 
0.547128

>  <ROCS_TanimotoCombo>  (225) 
0.675

>  <ROCS_ShapeTanimoto>  (225) 
0.239

>  <ROCS_ColorTanimoto>  (225) 
0.436

$$$$
Z165207934
     RDKit          3D

 25 28  0  0  0  0  0  0  0  0999 V2000
   30.3223    7.4071    8.5973 C   0  0  0  0  0  0  0  0  0  0  0  0
   30.9505    8.4761    7.9844 C   0  0  0  0  0  0  0  0  0  0  0  0
   32.0750    8.4793    7.2344 N   0  0  0  0  0  0  0  0  0  0  0  0
   32.1028    9.7931    6.9819 N   0  0  0  0  0  0  0  0  0  0  0  0
   31.0563   10.4480    7.5664 C   0  0  0  0  0  0  0  0  0  0  0  0
   30.8077   11.6858    7.5290 N   0  0  0  0  0  0  0  0  0  0  0  0
   31.6465   12.3241    6.9275 C   0  0  0  0  0  0  0  0  0  0  0  0
   31.4121   13.5966    6.9086 O   0  0  0  0  0  0  0  0  0  0  0  0
   30.1353   13.8522    7.4475 C   0  0  0  0  0  0  0  0  0  0  0  0
   28.9064   13.4634    6.5770 C   0  0  0  0  0  0  0  0  0  0  0  0
   27.5214   13.7384    7.0443 C   0  0  0  0  0  0  0  0  0  0  0  0
   27.5178   14.4195    8.4258 C   0  0  0  0  0  0  0  0  0  0  0  0
   28.6567   14.7205    9.1449 C   0  0  0  0  0  0  0  0  0  0  0  0
   29.9341   14.4570    8.6901 C   0  0  0  0  0  0  0  0  0  0  0  0
   31.0648   14.8441    9.5339 N   0  0  0  0  0  4  0  0  0  0  0  0
   32.1797   14.4378    9.1834 O   0  0  0  0  0  0  0  0  0  0  0  0
   30.9134   15.8788   10.2025 O   0  0  0  0  0  1  0  0  0  0  0  0
   32.8522   11.8597    6.2160 C   0  0  0  0  0  0  0  0  0  0  0  0
   33.7011   12.7489    5.5641 C   0  0  0  0  0  0  0  0  0  0  0  0
   34.8921   12.1247    4.8515 C   0  0  0  0  0  0  0  0  0  0  0  0
   35.1068   10.7494    4.8520 C   0  0  0  0  0  0  0  0  0  0  0  0
   34.1994    9.7410    5.5561 C   0  0  0  0  0  0  0  0  0  0  0  0
   33.0565   10.4735    6.2421 C   0  0  0  0  0  0  0  0  0  0  0  0
   30.3643    9.5789    8.1678 C   0  0  0  0  0  0  0  0  0  0  0  0
   28.9895    9.6894    9.0292 Cl  0  0  0  0  0  0  0  0  0  0  0  0
  1  2  1  0
  2  3  2  0
  3  4  1  0
  4  5  1  0
  5  6  1  0
  6  7  2  0
  7  8  1  0
  8  9  1  0
  9 10  2  0
 10 11  1  0
 11 12  2  0
 12 13  1  0
 13 14  2  0
 14 15  1  0
 15 16  2  0
 15 17  1  0
  7 18  1  0
 18 19  2  0
 19 20  1  0
 20 21  2  0
 21 22  1  0
 22 23  2  0
  5 24  2  0
 24 25  1  0
 24  2  1  0
 23  4  1  0
 14  9  1  0
 23 18  1  0
M  CHG  2  15   1  17  -1
A    1
 C1 
A    2
 C2 
A    3
 N1 
A    4
 N2 
A    5
 C3 
A    6
 N3 
A    7
 C4 
A    8
 O1 
A    9
 C5 
A   10
 C6 
A   11
 C7 
A   12
 C8 
A   13
 C9 
A   14
 C10
A   15
 N4 
A   16
 O2 
A   17
 O3 
A   18
 C11
A   19
 C12
A   20
 C13
A   21
 C14
A   22
 C15
A   23
 C16
A   24
 C17
A   25
CL1 
M  END
>  <ref_pdb>  (226) 
Ax0310a

>  <ref_mols>  (226) 
Ax0446a,Ax1080a,Ax0812a,Ax0719a,Ax1140a,Ax0528a,Ax0310a

>  <original SMILES>  (226) 
Cc1nn2c(nc(Oc3ccccc3[N+](=O)[O-])c3ccccc32)c1Cl

>  <rationale>  (226) 
info info set:screening_whole;hbond:G127; hydroph_interaction:Y89+Y90+V124+D109; pistack:H21; 

>  <experiment>  (226) 
screening_whole

>  <cluster_label>  (226) 
3

>  <cluster_rank>  (226) 
21

>  <N_interactions>  (226) 
6

>  <∆∆G>  (226) 
-2.596152

>  <comRMSD>  (226) 
0.636005

>  <ROCS_TanimotoCombo>  (226) 
0.481

>  <ROCS_ShapeTanimoto>  (226) 
0.281

>  <ROCS_ColorTanimoto>  (226) 
0.2

$$$$
EN300_6542530
     RDKit          3D

 22 24  0  0  0  0  0  0  0  0999 V2000
   30.4576    7.9164    8.6503 C   0  0  0  0  0  0  0  0  0  0  0  0
   31.2584    8.9062    7.8688 C   0  0  0  0  0  0  0  0  0  0  0  0
   30.7431   10.2373    8.1995 C   0  0  0  0  0  0  0  0  0  0  0  0
   31.4658   11.3129    7.5125 C   0  0  0  0  0  0  0  0  0  0  0  0
   31.1525   12.7399    7.6736 C   0  0  0  0  0  0  0  0  0  0  0  0
   31.3765   13.4856    6.7472 O   0  0  0  0  0  0  0  0  0  0  0  0
   30.5802   13.0742    8.9702 N   0  0  0  0  0  0  0  0  0  0  0  0
   29.5898   14.0805    8.9156 C   0  0  0  0  0  0  0  0  0  0  0  0
   30.1643   15.4116    9.2299 C   0  0  0  0  0  0  0  0  0  0  0  0
   31.3581   15.4834    9.9081 N   0  0  0  0  0  0  0  0  0  0  0  0
   29.0826   13.9123    7.4856 C   0  0  0  0  0  0  0  0  0  0  0  0
   28.0770   14.9236    7.1580 C   0  0  0  0  0  0  0  0  0  0  0  0
   27.0559   14.7527    8.2045 C   0  0  0  0  0  0  0  0  0  0  0  0
   27.5679   15.1032    9.5406 C   0  0  0  0  0  0  0  0  0  0  0  0
   28.4302   13.9519    9.9076 C   0  0  0  0  0  0  0  0  0  0  0  0
   32.6104   11.0297    6.5761 C   0  0  0  0  0  0  0  0  0  0  0  0
   33.4895   11.7457    5.7961 C   0  0  0  0  0  0  0  0  0  0  0  0
   34.3476   10.9981    5.1308 N   0  0  0  0  0  0  0  0  0  0  0  0
   33.9947    9.7497    5.5055 N   0  0  0  0  0  0  0  0  0  0  0  0
   34.7738    8.6995    4.9256 C   0  0  0  0  0  0  0  0  0  0  0  0
   32.9262    9.6988    6.4012 C   0  0  0  0  0  0  0  0  0  0  0  0
   32.2947    8.6195    7.0080 N   0  0  0  0  0  0  0  0  0  0  0  0
  1  2  1  0
  2  3  2  0
  3  4  1  0
  4  5  1  0
  5  6  2  0
  5  7  1  0
  7  8  1  0
  8  9  1  0
  9 10  3  0
  8 11  1  0
 11 12  1  0
 12 13  1  0
 13 14  1  0
 14 15  1  0
  4 16  2  0
 16 17  1  0
 17 18  2  0
 18 19  1  0
 19 20  1  0
 19 21  1  0
 21 22  2  0
 22  2  1  0
 15  8  1  0
 21 16  1  0
A    1
 C1 
A    2
 C2 
A    3
 C3 
A    4
 C4 
A    5
 C5 
A    6
 O1 
A    7
 N1 
A    8
 C6 
A    9
 C7 
A   10
 N2 
A   11
 C8 
A   12
 C9 
A   13
 C10
A   14
 C11
A   15
 C12
A   16
 C13
A   17
 C14
A   18
 N3 
A   19
 N4 
A   20
 C15
A   21
 C16
A   22
 N5 
M  END
>  <ref_pdb>  (227) 
Ax0310a

>  <ref_mols>  (227) 
Ax0446a,Ax1080a,Ax0812a,Ax0719a,Ax1140a,Ax0528a,Ax0310a

>  <original SMILES>  (227) 
Cc1cc(C(=O)NC2(C#N)CCCCC2)c2cnn(C)c2n1

>  <rationale>  (227) 
info info set:bb_whole;hbond:S87+S125; hydroph_interaction:Y89+Y90+V124+H21; 

>  <experiment>  (227) 
bb_whole

>  <cluster_label>  (227) 
9

>  <cluster_rank>  (227) 
21

>  <N_interactions>  (227) 
7

>  <∆∆G>  (227) 
-4.583331

>  <comRMSD>  (227) 
0.65015

>  <ROCS_TanimotoCombo>  (227) 
0.414

>  <ROCS_ShapeTanimoto>  (227) 
0.248

>  <ROCS_ColorTanimoto>  (227) 
0.166

$$$$
Z57981031
     RDKit          3D

 18 18  0  0  0  0  0  0  0  0999 V2000
   35.8416    8.1455    3.5883 C   0  0  0  0  0  0  0  0  0  0  0  0
   35.1081    9.2994    4.2373 C   0  0  0  0  0  0  0  0  0  0  0  0
   35.4032   10.6013    3.7147 O   0  0  0  0  0  0  0  0  0  0  0  0
   34.2331    8.8528    5.2986 N   0  0  0  0  0  0  0  0  0  0  0  0
   33.1829    9.5511    6.0143 C   0  0  0  0  0  0  0  0  0  0  0  0
   33.0132   11.0248    5.8332 C   0  0  0  0  0  0  0  0  0  0  0  0
   31.9146   11.9077    6.5505 C   0  0  0  0  0  0  0  0  0  0  0  0
   31.1052   10.8548    7.4505 C   0  0  0  0  0  0  0  0  0  0  0  0
   30.1165   11.2307    8.1773 N   0  0  0  0  0  0  0  0  0  0  0  0
   29.4353   12.3604    7.8738 C   0  0  0  0  0  0  0  0  0  0  0  0
   28.1835   12.5021    6.9999 C   0  0  0  0  0  0  0  0  0  0  0  0
   29.8201   13.7164    8.3675 C   0  0  0  0  0  0  0  0  0  0  0  0
   30.9701   14.1928    9.2283 C   0  0  0  0  0  0  0  0  0  0  0  0
   31.8926   14.5602    9.8089 N   0  0  0  0  0  0  0  0  0  0  0  0
   29.1851   15.0506    8.1632 C   0  0  0  0  0  0  0  0  0  0  0  0
   28.6853   16.2517    7.9711 N   0  0  0  0  0  0  0  0  0  0  0  0
   31.3686    9.5026    7.5308 C   0  0  0  0  0  0  0  0  0  0  0  0
   32.3585    8.8804    6.8483 C   0  0  0  0  0  0  0  0  0  0  0  0
  1  2  1  0
  2  3  2  0
  2  4  1  0
  4  5  1  0
  5  6  2  0
  6  7  1  0
  7  8  2  0
  8  9  1  0
  9 10  1  0
 10 11  1  0
 10 12  2  3
 12 13  1  0
 13 14  3  0
 12 15  1  0
 15 16  3  0
  8 17  1  0
 17 18  2  0
 18  5  1  0
A    1
 C1 
A    2
 C2 
A    3
 O1 
A    4
 N1 
A    5
 C3 
A    6
 C4 
A    7
 C5 
A    8
 C6 
A    9
 N2 
A   10
 C7 
A   11
 C8 
A   12
 C9 
A   13
 C10
A   14
 N3 
A   15
 C11
A   16
 N4 
A   17
 C12
A   18
 C13
M  END
>  <ref_pdb>  (228) 
Ax0310a

>  <ref_mols>  (228) 
Ax0446a,Ax1080a,Ax0812a,Ax0719a,Ax1140a,Ax0528a,Ax0310a

>  <original SMILES>  (228) 
CC(=O)Nc1ccc(NC(C)=C(C#N)C#N)cc1

>  <rationale>  (228) 
info info set:screening_pocket;hbond:S87+S105+S125+Y90+E88; hydroph_interaction:P107; 

>  <experiment>  (228) 
screening_pocket

>  <cluster_label>  (228) 
8

>  <cluster_rank>  (228) 
21

>  <N_interactions>  (228) 
7

>  <∆∆G>  (228) 
-7.176486

>  <comRMSD>  (228) 
0.422181

>  <ROCS_TanimotoCombo>  (228) 
0.624

>  <ROCS_ShapeTanimoto>  (228) 
0.251

>  <ROCS_ColorTanimoto>  (228) 
0.373

$$$$
EN300_291909
     RDKit          3D

 11 11  0  0  0  0  0  0  0  0999 V2000
   34.9699   14.7938    8.0471 N   0  0  0  0  0  0  0  0  0  0  0  0
   33.6662   13.7827    8.2543 S   0  0  0  0  0  6  0  0  0  0  0  0
   32.5376   14.4372    8.8944 O   0  0  0  0  0  0  0  0  0  0  0  0
   34.1112   12.7387    9.0996 O   0  0  0  0  0  0  0  0  0  0  0  0
   33.3998   13.3073    6.5574 C   0  0  0  0  0  0  0  0  0  0  0  0
   32.0128   12.7890    6.3053 C   0  0  0  0  0  0  0  0  0  0  0  0
   31.8630   11.4033    6.7295 N   0  0  0  0  0  0  0  0  0  0  0  0
   32.6721   10.3388    6.3673 C   0  0  0  0  0  0  0  0  0  0  0  0
   32.1576    9.2318    7.0003 N   0  0  0  0  0  0  0  0  0  0  0  0
   31.0677    9.6887    7.7158 N   0  0  0  0  0  0  0  0  0  0  0  0
   30.8846   11.0141    7.5507 N   0  0  0  0  0  0  0  0  0  0  0  0
  1  2  1  0
  2  3  2  0
  2  4  2  0
  2  5  1  0
  5  6  1  0
  6  7  1  0
  7  8  1  0
  8  9  2  0
  9 10  1  0
 10 11  2  0
 11  7  1  0
A    1
 N1 
A    2
 S1 
A    3
 O1 
A    4
 O2 
A    5
 C1 
A    6
 C2 
A    7
 N2 
A    8
 C3 
A    9
 N3 
A   10
 N4 
A   11
 N5 
M  END
>  <ref_pdb>  (229) 
Ax0310a

>  <ref_mols>  (229) 
Ax0446a,Ax1080a,Ax0812a,Ax0719a,Ax1140a,Ax0528a,Ax0310a

>  <original SMILES>  (229) 
NS(=O)(=O)CCn1cnnn1

>  <rationale>  (229) 
info info set:sulfonimide_whole;hbond:S87+G127+A86; 

>  <experiment>  (229) 
sulfonimide_whole

>  <cluster_label>  (229) 
5

>  <cluster_rank>  (229) 
21

>  <N_interactions>  (229) 
3

>  <∆∆G>  (229) 
-3.588247

>  <comRMSD>  (229) 
0.595874

>  <ROCS_TanimotoCombo>  (229) 
0.349

>  <ROCS_ShapeTanimoto>  (229) 
0.164

>  <ROCS_ColorTanimoto>  (229) 
0.185

$$$$
Z32014557
     RDKit          3D

 14 14  0  0  0  0  0  0  0  0999 V2000
   28.8781   15.4732    8.1447 C   0  0  0  0  0  0  0  0  0  0  0  0
   29.2878   14.1512    7.7169 N   0  0  0  0  0  0  0  0  0  0  0  0
   28.1443   13.3468    7.2477 C   0  0  0  0  0  0  0  0  0  0  0  0
   30.3818   13.4381    8.2493 C   0  0  0  0  0  0  0  0  0  0  0  0
   31.3765   13.9477    8.7731 O   0  0  0  0  0  0  0  0  0  0  0  0
   30.2897   12.0396    8.1376 C   0  0  0  0  0  0  0  0  0  0  0  0
   31.2495   11.3326    7.4537 C   0  0  0  0  0  0  0  0  0  0  0  0
   32.1483   11.9831    6.6089 C   0  0  0  0  0  0  0  0  0  0  0  0
   32.1469   13.2979    6.4440 F   0  0  0  0  0  0  0  0  0  0  0  0
   33.1615   11.0877    5.8537 C   0  0  0  0  0  0  0  0  0  0  0  0
   33.1531    9.5846    6.0496 C   0  0  0  0  0  0  0  0  0  0  0  0
   32.2352    9.0458    6.9193 C   0  0  0  0  0  0  0  0  0  0  0  0
   31.2690    9.9386    7.6391 C   0  0  0  0  0  0  0  0  0  0  0  0
   30.2136    9.0933    8.6931 Cl  0  0  0  0  0  0  0  0  0  0  0  0
  1  2  1  0
  2  3  1  0
  2  4  1  0
  4  5  2  0
  4  6  1  0
  6  7  1  0
  7  8  2  0
  8  9  1  0
  8 10  1  0
 10 11  2  0
 11 12  1  0
 12 13  2  0
 13 14  1  0
 13  7  1  0
A    1
 C1 
A    2
 N1 
A    3
 C2 
A    4
 C3 
A    5
 O1 
A    6
 C4 
A    7
 C5 
A    8
 C6 
A    9
 F1 
A   10
 C7 
A   11
 C8 
A   12
 C9 
A   13
 C10
A   14
CL1 
M  END
>  <ref_pdb>  (230) 
Ax0310a

>  <ref_mols>  (230) 
Ax0446a,Ax1080a,Ax0812a,Ax0719a,Ax1140a,Ax0528a,Ax0310a

>  <original SMILES>  (230) 
CN(C)C(=O)Cc1c(F)cccc1Cl

>  <rationale>  (230) 
info info set:3d;halogenbond:S87; hbond:S87; 

>  <experiment>  (230) 
3d

>  <cluster_label>  (230) 
7

>  <cluster_rank>  (230) 
21

>  <N_interactions>  (230) 
2

>  <∆∆G>  (230) 
-8.440907

>  <comRMSD>  (230) 
0.78302

>  <ROCS_TanimotoCombo>  (230) 
0.297

>  <ROCS_ShapeTanimoto>  (230) 
0.202

>  <ROCS_ColorTanimoto>  (230) 
0.095

$$$$
Z1726273183
     RDKit          3D

 23 25  0  0  0  0  0  0  0  0999 V2000
   34.3851    9.9348    4.3889 C   0  0  0  0  0  0  0  0  0  0  0  0
   33.3723   10.0811    5.4831 C   0  0  0  0  0  0  0  0  0  0  0  0
   32.9243    9.0463    6.1688 N   0  0  0  0  0  0  0  0  0  0  0  0
   32.0538    9.4090    7.0577 C   0  0  0  0  0  0  0  0  0  0  0  0
   31.4533    8.3462    7.9199 C   0  0  0  0  0  0  0  0  0  0  0  0
   30.1072    8.8610    8.2450 C   0  0  0  0  0  0  0  0  0  0  0  0
   30.2961    8.9961    9.6291 C   0  0  0  0  0  0  0  0  0  0  0  0
   29.0791    7.8830    8.3609 C   0  0  0  0  0  0  0  0  0  0  0  0
   31.7456   10.8621    7.1239 C   0  0  0  0  0  0  0  0  0  0  0  0
   30.8988   11.5431    7.9245 C   0  0  0  0  0  0  0  0  0  0  0  0
   30.2951   11.0336    8.8043 O   0  0  0  0  0  0  0  0  0  0  0  0
   30.7975   12.9090    7.5809 N   0  0  0  0  0  0  0  0  0  0  0  0
   30.6628   13.8248    8.7213 C   0  0  0  0  0  0  0  0  0  0  0  0
   29.2416   14.3130    9.0530 C   0  0  0  0  0  0  0  0  0  0  0  0
   28.9586   15.3485    8.1790 O   0  0  0  0  0  0  0  0  0  0  0  0
   28.4590   14.9578    6.9364 C   0  0  0  0  0  0  0  0  0  0  0  0
   28.6222   13.6689    6.3046 C   0  0  0  0  0  0  0  0  0  0  0  0
   28.2233   13.7897    4.9537 C   0  0  0  0  0  0  0  0  0  0  0  0
   26.8741   13.4110    4.8217 C   0  0  0  0  0  0  0  0  0  0  0  0
   26.4971   12.6242    5.9618 C   0  0  0  0  0  0  0  0  0  0  0  0
   27.5414   12.6729    6.9042 C   0  0  0  0  0  0  0  0  0  0  0  0
   30.0617   13.0998    6.3321 C   0  0  0  0  0  0  0  0  0  0  0  0
   32.7080   11.6160    5.9304 S   0  0  0  0  0  0  0  0  0  0  0  0
  1  2  1  0
  2  3  2  0
  3  4  1  0
  4  5  1  0
  5  6  1  0
  6  7  1  0
  6  8  1  0
  4  9  2  0
  9 10  1  0
 10 11  2  0
 10 12  1  0
 12 13  1  0
 13 14  1  0
 14 15  1  0
 15 16  1  0
 16 17  1  0
 17 18  1  0
 18 19  1  0
 19 20  1  0
 20 21  1  0
 17 22  1  0
  9 23  1  0
 23  2  1  0
 22 12  1  0
 21 17  1  0
A    1
 C1 
A    2
 C2 
A    3
 N1 
A    4
 C3 
A    5
 C4 
A    6
 C5 
A    7
 C6 
A    8
 C7 
A    9
 C8 
A   10
 C9 
A   11
 O1 
A   12
 N2 
A   13
 C10
A   14
 C11
A   15
 O2 
A   16
 C12
A   17
 C13
A   18
 C14
A   19
 C15
A   20
 C16
A   21
 C17
A   22
 C18
A   23
 S1 
M  END
>  <ref_pdb>  (231) 
Ax0310a

>  <ref_mols>  (231) 
Ax0446a,Ax1080a,Ax0812a,Ax0719a,Ax1140a,Ax0528a,Ax0310a

>  <original SMILES>  (231) 
Cc1nc(CC(C)C)c(C(=O)N2CCOCC3(CCCC3)C2)s1

>  <rationale>  (231) 
info info set:screening_pocket;hbond:S87; hydroph_interaction:P107+Y89+E88+D109; 

>  <experiment>  (231) 
screening_pocket

>  <cluster_label>  (231) 
12

>  <cluster_rank>  (231) 
21

>  <N_interactions>  (231) 
5

>  <∆∆G>  (231) 
-0.282452

>  <comRMSD>  (231) 
0.931762

>  <ROCS_TanimotoCombo>  (231) 
0.637

>  <ROCS_ShapeTanimoto>  (231) 
0.24

>  <ROCS_ColorTanimoto>  (231) 
0.397

$$$$
Z4594428398
     RDKit          3D

 12 13  0  0  0  0  0  0  0  0999 V2000
   31.8533   13.7707    4.3885 C   0  0  0  0  0  0  0  0  0  0  0  0
   33.1311   13.1003    4.7833 C   0  0  0  0  0  0  0  0  0  0  0  0
   34.0425   13.1681    3.7474 C   0  0  0  0  0  0  0  0  0  0  0  0
   32.9800   11.6211    5.1728 C   0  0  0  0  0  0  0  0  0  0  0  0
   32.3071   11.3196    6.3657 C   0  0  1  0  0  0  0  0  0  0  0  0
   31.0123   11.7325    6.7218 C   0  0  0  0  0  0  0  0  0  0  0  0
   30.5974   11.0026    7.8224 C   0  0  0  0  0  0  0  0  0  0  0  0
   31.2938    9.8378    7.8881 N   0  0  0  0  0  0  0  0  0  0  0  0
   32.2167    9.9679    6.7462 C   0  0  0  0  0  0  0  0  0  0  0  0
   33.1145   12.1284    7.3339 C   0  0  0  0  0  0  0  0  0  0  0  0
   33.1524   13.4746    7.1128 C   0  0  0  0  0  0  0  0  0  0  0  0
   33.7407   13.7851    5.8615 O   0  0  0  0  0  0  0  0  0  0  0  0
  1  2  1  0
  2  3  1  0
  2  4  1  0
  5  4  1  6
  5  6  1  0
  6  7  1  0
  7  8  1  0
  8  9  1  0
  5 10  1  0
 10 11  1  0
 11 12  1  0
 12  2  1  0
  9  5  1  0
A    1
 C1 
A    2
 C2 
A    3
 C3 
A    4
 C4 
A    5
 C5 
A    6
 C6 
A    7
 C7 
A    8
 N1 
A    9
 C8 
A   10
 C9 
A   11
 C10
A   12
 O1 
M  END
>  <ref_pdb>  (232) 
Ax0310a

>  <ref_mols>  (232) 
Ax0446a,Ax1080a,Ax0812a,Ax0719a,Ax1140a,Ax0528a,Ax0310a

>  <original SMILES>  (232) 
CC1(C)C[C@]2(CCNC2)CCO1

>  <rationale>  (232) 
info info set:3d;hbond:E106; hydroph_interaction:P107; 

>  <experiment>  (232) 
3d

>  <cluster_label>  (232) 
6

>  <cluster_rank>  (232) 
21

>  <N_interactions>  (232) 
2

>  <∆∆G>  (232) 
-0.154811

>  <comRMSD>  (232) 
0.610694

>  <ROCS_TanimotoCombo>  (232) 
0.29

>  <ROCS_ShapeTanimoto>  (232) 
0.165

>  <ROCS_ColorTanimoto>  (232) 
0.125

$$$$
EN300_245385
     RDKit          3D

 15 15  0  0  0  0  0  0  0  0999 V2000
   33.7233   14.0024    6.4232 N   0  0  0  0  0  0  0  0  0  0  0  0
   33.0772   13.4039    7.8537 S   0  0  0  0  0  6  0  0  0  0  0  0
   31.9423   14.1529    8.3142 O   0  0  0  0  0  0  0  0  0  0  0  0
   34.1491   13.1629    8.7908 O   0  0  0  0  0  0  0  0  0  0  0  0
   32.4103   11.8379    7.4893 C   0  0  0  0  0  0  0  0  0  0  0  0
   33.1601   10.8881    6.8235 C   0  0  0  0  0  0  0  0  0  0  0  0
   32.5157    9.5152    6.7084 C   0  0  0  0  0  0  0  0  0  0  0  0
   31.2664    9.2838    7.2451 C   0  0  0  0  0  0  0  0  0  0  0  0
   30.5834   10.3074    7.8369 C   0  0  0  0  0  0  0  0  0  0  0  0
   31.1387   11.6790    7.9751 C   0  0  0  0  0  0  0  0  0  0  0  0
   30.5823   12.7995    8.5442 O   0  0  0  0  0  0  0  0  0  0  0  0
   29.3412   13.0640    8.0008 C   0  0  0  0  0  0  0  0  0  0  0  0
   28.8048   11.9952    7.3993 F   0  0  0  0  0  0  0  0  0  0  0  0
   29.3379   14.0578    7.0960 F   0  0  0  0  0  0  0  0  0  0  0  0
   28.5248   13.4616    8.9834 F   0  0  0  0  0  0  0  0  0  0  0  0
  1  2  1  0
  2  3  2  0
  2  4  2  0
  2  5  1  0
  5  6  2  0
  6  7  1  0
  7  8  2  0
  8  9  1  0
  9 10  2  0
 10 11  1  0
 11 12  1  0
 12 13  1  0
 12 14  1  0
 12 15  1  0
 10  5  1  0
A    1
 N1 
A    2
 S1 
A    3
 O1 
A    4
 O2 
A    5
 C1 
A    6
 C2 
A    7
 C3 
A    8
 C4 
A    9
 C5 
A   10
 C6 
A   11
 O3 
A   12
 C7 
A   13
 F1 
A   14
 F2 
A   15
 F3 
M  END
>  <ref_pdb>  (233) 
Ax0310a

>  <ref_mols>  (233) 
Ax0446a,Ax1080a,Ax0812a,Ax0719a,Ax1140a,Ax0528a,Ax0310a

>  <original SMILES>  (233) 
NS(=O)(=O)c1ccccc1OC(F)(F)F

>  <rationale>  (233) 
info info set:sulfonimide_whole;halogenbond:E88+P107; hbond:S87+G127+A86; 

>  <experiment>  (233) 
sulfonimide_whole

>  <cluster_label>  (233) 
7

>  <cluster_rank>  (233) 
22

>  <N_interactions>  (233) 
5

>  <∆∆G>  (233) 
-0.79897

>  <comRMSD>  (233) 
0.934465

>  <ROCS_TanimotoCombo>  (233) 
0.328

>  <ROCS_ShapeTanimoto>  (233) 
0.193

>  <ROCS_ColorTanimoto>  (233) 
0.135

$$$$
Z1920416900
     RDKit          3D

 21 22  0  0  0  0  0  0  0  0999 V2000
   28.8492   16.7697    8.8091 C   0  0  0  0  0  0  0  0  0  0  0  0
   28.6018   15.4259    8.3510 C   0  0  0  0  0  0  0  0  0  0  0  0
   28.5148   14.1979    9.1576 C   0  0  0  0  0  0  0  0  0  0  0  0
   28.2694   13.2326    8.0635 C   0  0  0  0  0  0  0  0  0  0  0  0
   28.1290   11.8944    8.1766 C   0  0  0  0  0  0  0  0  0  0  0  0
   29.3446   11.6506    7.4839 O   0  0  0  0  0  0  0  0  0  0  0  0
   30.2057   10.8391    8.0796 C   0  0  0  0  0  0  0  0  0  0  0  0
   30.1536   10.3480    9.1498 O   0  0  0  0  0  0  0  0  0  0  0  0
   31.2243   10.5091    7.2499 C   0  0  0  0  0  0  0  0  0  0  0  0
   31.7726   11.3684    6.3179 C   0  0  0  0  0  0  0  0  0  0  0  0
   32.8933   10.7850    5.4529 C   0  0  0  0  0  0  0  0  0  0  0  0
   33.5933   11.5929    4.3397 C   0  0  0  0  0  0  0  0  0  0  0  0
   33.0742   12.8436    4.1940 F   0  0  0  0  0  0  0  0  0  0  0  0
   33.4508   11.0042    3.1211 F   0  0  0  0  0  0  0  0  0  0  0  0
   34.9290   11.7390    4.5205 F   0  0  0  0  0  0  0  0  0  0  0  0
   33.2803    9.3481    5.7317 C   0  0  0  0  0  0  0  0  0  0  0  0
   32.6464    8.6410    6.6902 N   0  0  0  0  0  0  0  0  0  0  0  0
   31.6606    9.2376    7.3939 C   0  0  0  0  0  0  0  0  0  0  0  0
   30.9060    8.2490    8.5735 Cl  0  0  0  0  0  0  0  0  0  0  0  0
   28.2144   13.7477    6.9453 O   0  0  0  0  0  0  0  0  0  0  0  0
   28.4155   15.1194    7.0547 N   0  0  0  0  0  0  0  0  0  0  0  0
  1  2  1  0
  2  3  1  0
  3  4  2  0
  4  5  1  0
  5  6  1  0
  6  7  1  0
  7  8  2  0
  7  9  1  0
  9 10  2  0
 10 11  1  0
 11 12  1  0
 12 13  1  0
 12 14  1  0
 12 15  1  0
 11 16  2  0
 16 17  1  0
 17 18  2  0
 18 19  1  0
  4 20  1  0
 20 21  1  0
 21  2  2  0
 18  9  1  0
A    1
 C1 
A    2
 C2 
A    3
 C3 
A    4
 C4 
A    5
 C5 
A    6
 O1 
A    7
 C6 
A    8
 O2 
A    9
 C7 
A   10
 C8 
A   11
 C9 
A   12
 C10
A   13
 F1 
A   14
 F2 
A   15
 F3 
A   16
 C11
A   17
 N1 
A   18
 C12
A   19
CL1 
A   20
 O3 
A   21
 N2 
M  END
>  <ref_pdb>  (234) 
Ax0310a

>  <ref_mols>  (234) 
Ax0446a,Ax1080a,Ax0812a,Ax0719a,Ax1140a,Ax0528a,Ax0310a

>  <original SMILES>  (234) 
Cc1cc(COC(=O)c2cc(C(F)(F)F)cnc2Cl)on1

>  <rationale>  (234) 
info info set:screening_pocket;hydroph_interaction:P107+Y89+Y90; pication:H21; 

>  <experiment>  (234) 
screening_pocket

>  <cluster_label>  (234) 
12

>  <cluster_rank>  (234) 
22

>  <N_interactions>  (234) 
4

>  <∆∆G>  (234) 
-2.051375

>  <comRMSD>  (234) 
0.505506

>  <ROCS_TanimotoCombo>  (234) 
0.63

>  <ROCS_ShapeTanimoto>  (234) 
0.249

>  <ROCS_ColorTanimoto>  (234) 
0.38

$$$$
Z1474207688
     RDKit          3D

 15 16  0  0  0  0  0  0  0  0999 V2000
   33.6369   13.0676    8.5643 O   0  0  0  0  0  0  0  0  0  0  0  0
   33.8325   13.1456    7.3597 C   0  0  0  0  0  0  0  0  0  0  0  0
   33.9813   14.3251    6.7376 O   0  0  0  0  0  0  0  0  0  0  0  0
   33.9590   11.9835    6.3708 C   0  0  0  0  0  0  0  0  0  0  0  0
   35.0126   11.6970    5.3845 C   0  0  0  0  0  0  0  0  0  0  0  0
   34.7144   10.5420    4.7469 N   0  0  0  0  0  0  0  0  0  0  0  0
   33.4716   10.0767    5.3081 O   0  0  0  0  0  0  0  0  0  0  0  0
   33.0345   10.8342    6.1896 C   0  0  0  0  0  0  0  0  0  0  0  0
   31.7133   10.6244    7.0037 C   0  0  0  0  0  0  0  0  0  0  0  0
   31.3749    9.2285    7.4919 C   0  0  0  0  0  0  0  0  0  0  0  0
   30.0635    9.0396    8.2947 C   0  0  0  0  0  0  0  0  0  0  0  0
   29.2462   10.3131    8.5047 C   0  0  0  0  0  0  0  0  0  0  0  0
   29.6958   11.5155    7.9919 C   0  0  0  0  0  0  0  0  0  0  0  0
   30.8574   11.6887    7.2785 C   0  0  0  0  0  0  0  0  0  0  0  0
   31.1450   12.9270    6.8511 F   0  0  0  0  0  0  0  0  0  0  0  0
  1  2  2  0
  2  3  1  0
  2  4  1  0
  4  5  1  0
  5  6  2  0
  6  7  1  0
  7  8  1  0
  8  9  1  0
  9 10  2  0
 10 11  1  0
 11 12  2  0
 12 13  1  0
 13 14  2  0
 14 15  1  0
  8  4  2  0
 14  9  1  0
A    1
 O1 
A    2
 C1 
A    3
 O2 
A    4
 C2 
A    5
 C3 
A    6
 N1 
A    7
 O3 
A    8
 C4 
A    9
 C5 
A   10
 C6 
A   11
 C7 
A   12
 C8 
A   13
 C9 
A   14
 C10
A   15
 F1 
M  END
>  <ref_pdb>  (235) 
Ax0310a

>  <ref_mols>  (235) 
Ax0446a,Ax1080a,Ax0812a,Ax0719a,Ax1140a,Ax0528a,Ax0310a

>  <original SMILES>  (235) 
O=C(O)c1cnoc1-c1ccccc1F

>  <rationale>  (235) 
info info set:3d;hbond:G127+A86; 

>  <experiment>  (235) 
3d

>  <cluster_label>  (235) 
5

>  <cluster_rank>  (235) 
22

>  <N_interactions>  (235) 
2

>  <∆∆G>  (235) 
-5.067039

>  <comRMSD>  (235) 
0.589239

>  <ROCS_TanimotoCombo>  (235) 
0.314

>  <ROCS_ShapeTanimoto>  (235) 
0.206

>  <ROCS_ColorTanimoto>  (235) 
0.108

$$$$
Z3079948449
     RDKit          3D

 19 21  0  0  0  0  0  0  0  0999 V2000
   34.3763    9.3789    2.9726 C   0  0  0  0  0  0  0  0  0  0  0  0
   35.1694    9.2791    4.2644 C   0  0  0  0  0  0  0  0  0  0  0  0
   34.3762    8.7719    5.3699 N   0  0  0  0  0  0  0  0  0  0  0  0
   33.4067    9.5389    5.9993 C   0  0  0  0  0  0  0  0  0  0  0  0
   33.4531   11.0721    5.8748 C   0  0  0  0  0  0  0  0  0  0  0  0
   32.3008   11.7206    6.6660 C   0  0  0  0  0  0  0  0  0  0  0  0
   31.3285   10.8002    7.4214 C   0  0  0  0  0  0  0  0  0  0  0  0
   30.3101   11.3239    8.1010 N   0  0  0  0  0  0  0  0  0  0  0  0
   29.6889   12.4709    7.6684 C   0  0  0  0  0  0  0  0  0  0  0  0
   28.7824   13.2567    8.5914 C   0  0  0  0  0  0  0  0  0  0  0  0
   28.2631   14.4380    7.8703 C   0  0  0  0  0  0  0  0  0  0  0  0
   27.3871   15.2070    8.8117 C   0  0  0  0  0  0  0  0  0  0  0  0
   28.0140   16.2847    9.3407 C   0  0  0  0  0  0  0  0  0  0  0  0
   27.9010   15.0080   10.2997 C   0  0  0  0  0  0  0  0  0  0  0  0
   28.4776   14.8156    6.6423 N   0  0  0  0  0  0  0  0  0  0  0  0
   29.2679   14.0692    5.9190 C   0  0  0  0  0  0  0  0  0  0  0  0
   29.8781   12.9748    6.3209 N   0  0  0  0  0  0  0  0  0  0  0  0
   31.5200    9.4447    7.3631 C   0  0  0  0  0  0  0  0  0  0  0  0
   32.5021    8.8308    6.6902 N   0  0  0  0  0  0  0  0  0  0  0  0
  1  2  1  0
  2  3  1  0
  3  4  1  0
  4  5  2  0
  5  6  1  0
  6  7  2  0
  7  8  1  0
  8  9  1  0
  9 10  2  0
 10 11  1  0
 11 12  1  0
 12 13  1  0
 13 14  1  0
 11 15  2  0
 15 16  1  0
 16 17  2  0
  7 18  1  0
 18 19  2  0
 19  4  1  0
 17  9  1  0
 14 12  1  0
A    1
 C1 
A    2
 C2 
A    3
 N1 
A    4
 C3 
A    5
 C4 
A    6
 C5 
A    7
 C6 
A    8
 N2 
A    9
 C7 
A   10
 C8 
A   11
 C9 
A   12
 C10
A   13
 C11
A   14
 C12
A   15
 N3 
A   16
 C13
A   17
 N4 
A   18
 C14
A   19
 N5 
M  END
>  <ref_pdb>  (236) 
Ax0310a

>  <ref_mols>  (236) 
Ax0446a,Ax1080a,Ax0812a,Ax0719a,Ax1140a,Ax0528a,Ax0310a

>  <original SMILES>  (236) 
CCNc1ccc(Nc2cc(C3CC3)ncn2)cn1

>  <rationale>  (236) 
info info set:screening_pocket;hbond:S105+S125; hydroph_interaction:Y89+Y90+H21; 

>  <experiment>  (236) 
screening_pocket

>  <cluster_label>  (236) 
9

>  <cluster_rank>  (236) 
22

>  <N_interactions>  (236) 
5

>  <∆∆G>  (236) 
-3.179374

>  <comRMSD>  (236) 
0.55482

>  <ROCS_TanimotoCombo>  (236) 
0.669

>  <ROCS_ShapeTanimoto>  (236) 
0.232

>  <ROCS_ColorTanimoto>  (236) 
0.437

$$$$
Z4772960027
     RDKit          3D

 18 19  0  0  0  0  0  0  0  0999 V2000
   30.6019    8.2772    8.5256 C   0  0  0  0  0  0  0  0  0  0  0  0
   31.3262    9.4086    8.0091 N   0  0  0  0  0  0  0  0  0  0  0  0
   30.6888   10.6121    8.0883 C   0  0  0  0  0  0  0  0  0  0  0  0
   31.3937   11.6579    7.2575 C   0  0  2  0  0  0  0  0  0  0  0  0
   32.2170   10.8135    6.3067 C   0  0  1  0  0  0  0  0  0  0  0  0
   33.6765   11.1574    5.7590 C   0  0  0  0  0  0  0  0  0  0  0  0
   33.5583   12.6851    6.2133 C   0  0  0  0  0  0  0  0  0  0  0  0
   33.3392   13.0815    7.6580 C   0  0  0  0  0  0  0  0  0  0  0  0
   32.0544   12.6104    8.1095 N   0  0  0  0  0  0  0  0  0  0  0  0
   31.1030   13.6669    8.4567 C   0  0  0  0  0  0  0  0  0  0  0  0
   31.3210   14.6001    9.2066 O   0  0  0  0  0  0  0  0  0  0  0  0
   29.7750   13.3955    7.7083 C   0  0  0  0  0  0  0  0  0  0  0  0
   28.6506   14.3466    8.0943 C   0  0  0  0  0  0  0  0  0  0  0  0
   27.3639   13.9463    7.4240 C   0  0  0  0  0  0  0  0  0  0  0  0
   28.5417   14.6034    9.4559 C   0  0  0  0  0  0  0  0  0  0  0  0
   28.8646   15.5876    7.5373 O   0  0  0  0  0  0  0  0  0  0  0  0
   32.1995    9.4465    6.9487 C   0  0  0  0  0  0  0  0  0  0  0  0
   33.0015    8.4010    6.4850 O   0  0  0  0  0  0  0  0  0  0  0  0
  1  2  1  0
  2  3  1  0
  4  3  1  1
  4  5  1  0
  5  6  1  1
  6  7  1  0
  7  8  1  0
  8  9  1  0
  9 10  1  0
 10 11  2  0
 10 12  1  0
 12 13  1  0
 13 14  1  0
 13 15  1  0
 13 16  1  0
  5 17  1  0
 17 18  2  0
 17  2  1  0
  9  4  1  0
A    1
 C1 
A    2
 N1 
A    3
 C2 
A    4
 C3 
A    5
 C4 
A    6
 C5 
A    7
 C6 
A    8
 C7 
A    9
 N2 
A   10
 C8 
A   11
 O1 
A   12
 C9 
A   13
 C10
A   14
 C11
A   15
 C12
A   16
 O2 
A   17
 C13
A   18
 O3 
M  END
>  <ref_pdb>  (237) 
Ax0310a

>  <ref_mols>  (237) 
Ax0446a,Ax1080a,Ax0812a,Ax0719a,Ax1140a,Ax0528a,Ax0310a

>  <original SMILES>  (237) 
CN1C[C@@H]2[C@@H](CCCN2C(=O)CC(C)(C)O)C1=O

>  <rationale>  (237) 
info info set:3d;hbond:S87; hydroph_interaction:P107+Y89+Y90; 

>  <experiment>  (237) 
3d

>  <cluster_label>  (237) 
3

>  <cluster_rank>  (237) 
22

>  <N_interactions>  (237) 
5

>  <∆∆G>  (237) 
-10.004355

>  <comRMSD>  (237) 
0.605608

>  <ROCS_TanimotoCombo>  (237) 
0.351

>  <ROCS_ShapeTanimoto>  (237) 
0.229

>  <ROCS_ColorTanimoto>  (237) 
0.122

$$$$
Z3091717388
     RDKit          3D

 16 16  0  0  0  0  0  0  0  0999 V2000
   34.8766    9.2433    4.3809 C   0  0  0  0  0  0  0  0  0  0  0  0
   33.9853    8.6704    5.3622 N   0  0  0  0  0  0  0  0  0  0  0  0
   33.0718    9.4424    6.0943 C   0  0  0  0  0  0  0  0  0  0  0  0
   33.0567   10.9316    5.9166 C   0  0  0  0  0  0  0  0  0  0  0  0
   32.1291   11.8403    6.6310 C   0  0  0  0  0  0  0  0  0  0  0  0
   31.1400   11.1070    7.6086 C   0  0  0  0  0  0  0  0  0  0  0  0
   30.2520   11.8902    8.2936 N   0  0  0  0  0  0  0  0  0  0  0  0
   29.9808   13.1470    7.9192 C   0  0  0  0  0  0  0  0  0  0  0  0
   30.3896   13.5972    6.8676 O   0  0  0  0  0  0  0  0  0  0  0  0
   29.1367   13.9981    8.8586 C   0  0  0  0  0  0  0  0  0  0  0  0
   27.8043   13.3581    9.1174 C   0  0  0  0  0  0  0  0  0  0  0  0
   29.8454   14.3371   10.1777 C   0  0  0  0  0  0  0  0  0  0  0  0
   28.6992   15.2549    8.1375 C   0  0  0  0  0  0  0  0  0  0  0  0
   28.6168   14.9941    6.7512 O   0  0  0  0  0  0  0  0  0  0  0  0
   31.2714    9.7011    7.6767 C   0  0  0  0  0  0  0  0  0  0  0  0
   32.1720    8.9056    6.9778 N   0  0  0  0  0  0  0  0  0  0  0  0
  1  2  1  0
  2  3  1  0
  3  4  2  0
  4  5  1  0
  5  6  2  0
  6  7  1  0
  7  8  1  0
  8  9  2  0
  8 10  1  0
 10 11  1  0
 10 12  1  0
 10 13  1  0
 13 14  1  0
  6 15  1  0
 15 16  2  0
 16  3  1  0
A    1
 C1 
A    2
 N1 
A    3
 C2 
A    4
 C3 
A    5
 C4 
A    6
 C5 
A    7
 N2 
A    8
 C6 
A    9
 O1 
A   10
 C7 
A   11
 C8 
A   12
 C9 
A   13
 C10
A   14
 O2 
A   15
 C11
A   16
 N3 
M  END
>  <ref_pdb>  (238) 
Ax0310a

>  <ref_mols>  (238) 
Ax0446a,Ax1080a,Ax0812a,Ax0719a,Ax1140a,Ax0528a,Ax0310a

>  <original SMILES>  (238) 
CNc1ccc(NC(=O)C(C)(C)CO)cn1

>  <rationale>  (238) 
info info set:screening_pocket;hbond:S87+S105+S125+E88; hydroph_interaction:Y90; 

>  <experiment>  (238) 
screening_pocket

>  <cluster_label>  (238) 
8

>  <cluster_rank>  (238) 
22

>  <N_interactions>  (238) 
5

>  <∆∆G>  (238) 
-7.776408

>  <comRMSD>  (238) 
0.566355

>  <ROCS_TanimotoCombo>  (238) 
0.64

>  <ROCS_ShapeTanimoto>  (238) 
0.229

>  <ROCS_ColorTanimoto>  (238) 
0.41

$$$$
Z31146692
     RDKit          3D

 25 29  0  0  0  0  0  0  0  0999 V2000
   33.6408   14.9482    9.7201 C   0  0  0  0  0  0  0  0  0  0  0  0
   32.1632   14.9665    9.8714 C   0  0  0  0  0  0  0  0  0  0  0  0
   31.3146   15.5901   10.9860 C   0  0  0  0  0  0  0  0  0  0  0  0
   29.8047   15.4430   10.7991 C   0  0  0  0  0  0  0  0  0  0  0  0
   29.3437   14.7302    9.5228 C   0  0  0  0  0  0  0  0  0  0  0  0
   27.8650   14.5823    9.2238 C   0  0  0  0  0  0  0  0  0  0  0  0
   27.4862   13.8696    7.9013 C   0  0  0  0  0  0  0  0  0  0  0  0
   28.6270   13.3743    7.0413 C   0  0  0  0  0  0  0  0  0  0  0  0
   30.0140   13.6304    7.5468 C   0  0  0  0  0  0  0  0  0  0  0  0
   31.0952   13.2372    6.8219 O   0  0  0  0  0  0  0  0  0  0  0  0
   31.4100   11.9248    6.9379 C   0  0  0  0  0  0  0  0  0  0  0  0
   30.5330   11.0385    7.6352 N   0  0  0  0  0  0  0  0  0  0  0  0
   30.9289    9.6950    7.6805 C   0  0  0  0  0  0  0  0  0  0  0  0
   30.0784    8.7963    8.4444 C   0  0  0  0  0  0  0  0  0  0  0  0
   32.0343    9.2009    7.0692 N   0  0  0  0  0  0  0  0  0  0  0  0
   32.7901   10.1178    6.4479 C   0  0  0  0  0  0  0  0  0  0  0  0
   34.2312    9.6538    5.6160 S   0  0  0  0  0  0  0  0  0  0  0  0
   34.5995   11.2484    5.2781 C   0  0  0  0  0  0  0  0  0  0  0  0
   33.6207   12.1082    5.7190 C   0  0  0  0  0  0  0  0  0  0  0  0
   32.5630   11.4807    6.3766 C   0  0  0  0  0  0  0  0  0  0  0  0
   33.9753   13.5158    5.3762 C   0  0  0  0  0  0  0  0  0  0  0  0
   35.3483   13.3645    5.1364 C   0  0  0  0  0  0  0  0  0  0  0  0
   35.7227   11.9466    4.6236 C   0  0  0  0  0  0  0  0  0  0  0  0
   30.3250   14.2536    8.6823 C   0  0  0  0  0  0  0  0  0  0  0  0
   31.6213   14.3592    8.8673 N   0  0  0  0  0  0  0  0  0  0  0  0
  1  2  1  0
  2  3  2  0
  3  4  1  0
  4  5  2  0
  5  6  1  0
  6  7  2  0
  7  8  1  0
  8  9  2  0
  9 10  1  0
 10 11  1  0
 11 12  2  0
 12 13  1  0
 13 14  1  0
 13 15  2  0
 15 16  1  0
 16 17  1  0
 17 18  1  0
 18 19  2  0
 19 20  1  0
 19 21  1  0
 21 22  1  0
 22 23  1  0
  9 24  1  0
 24 25  2  0
 25  2  1  0
 24  5  1  0
 20 11  1  0
 20 16  2  0
 23 18  1  0
A    1
 C1 
A    2
 C2 
A    3
 C3 
A    4
 C4 
A    5
 C5 
A    6
 C6 
A    7
 C7 
A    8
 C8 
A    9
 C9 
A   10
 O1 
A   11
 C10
A   12
 N1 
A   13
 C11
A   14
 C12
A   15
 N2 
A   16
 C13
A   17
 S1 
A   18
 C14
A   19
 C15
A   20
 C16
A   21
 C17
A   22
 C18
A   23
 C19
A   24
 C20
A   25
 N3 
M  END
>  <ref_pdb>  (239) 
Ax0310a

>  <ref_mols>  (239) 
Ax0446a,Ax1080a,Ax0812a,Ax0719a,Ax1140a,Ax0528a,Ax0310a

>  <original SMILES>  (239) 
Cc1ccc2cccc(Oc3nc(C)nc4sc5c(c34)CCC5)c2n1

>  <rationale>  (239) 
info info set:screening_whole;hbond:S87; hydroph_interaction:Y90+V124+T126+V84; pistack:H21; 

>  <experiment>  (239) 
screening_whole

>  <cluster_label>  (239) 
3

>  <cluster_rank>  (239) 
23

>  <N_interactions>  (239) 
7

>  <∆∆G>  (239) 
-8.983854

>  <comRMSD>  (239) 
0.674543

>  <ROCS_TanimotoCombo>  (239) 
0.459

>  <ROCS_ShapeTanimoto>  (239) 
0.255

>  <ROCS_ColorTanimoto>  (239) 
0.204

$$$$
EN300_362628
     RDKit          3D

 16 16  0  0  0  0  0  0  0  0999 V2000
   34.8688    8.8784    3.8208 C   0  0  0  0  0  0  0  0  0  0  0  0
   34.3633    8.7862    5.0980 N   0  0  0  0  0  0  0  0  0  0  0  0
   33.3955    9.5976    5.6942 C   0  0  0  0  0  0  0  0  0  0  0  0
   33.2675   10.9161    5.3641 C   0  0  0  0  0  0  0  0  0  0  0  0
   32.3153   11.7147    5.9394 C   0  0  0  0  0  0  0  0  0  0  0  0
   31.4109   11.2779    6.8847 C   0  0  0  0  0  0  0  0  0  0  0  0
   30.3777   12.2201    7.4698 C   0  0  0  0  0  0  0  0  0  0  0  0
   29.1845   11.6658    7.7181 F   0  0  0  0  0  0  0  0  0  0  0  0
   30.1158   13.2301    6.6048 F   0  0  0  0  0  0  0  0  0  0  0  0
   30.7677   12.8395    8.6108 F   0  0  0  0  0  0  0  0  0  0  0  0
   31.5695    9.8939    7.2194 C   0  0  0  0  0  0  0  0  0  0  0  0
   30.7008    9.1742    8.2621 C   0  0  0  0  0  0  0  0  0  0  0  0
   29.5500    8.6221    7.8921 F   0  0  0  0  0  0  0  0  0  0  0  0
   30.3022   10.0301    9.1790 F   0  0  0  0  0  0  0  0  0  0  0  0
   31.3230    8.1801    8.9326 F   0  0  0  0  0  0  0  0  0  0  0  0
   32.5424    9.1116    6.6215 N   0  0  0  0  0  0  0  0  0  0  0  0
  1  2  1  0
  2  3  1  0
  3  4  2  0
  4  5  1  0
  5  6  2  0
  6  7  1  0
  7  8  1  0
  7  9  1  0
  7 10  1  0
  6 11  1  0
 11 12  1  0
 12 13  1  0
 12 14  1  0
 12 15  1  0
 11 16  2  0
 16  3  1  0
A    1
 C1 
A    2
 N1 
A    3
 C2 
A    4
 C3 
A    5
 C4 
A    6
 C5 
A    7
 C6 
A    8
 F1 
A    9
 F2 
A   10
 F3 
A   11
 C7 
A   12
 C8 
A   13
 F4 
A   14
 F5 
A   15
 F6 
A   16
 N2 
M  END
>  <ref_pdb>  (240) 
Ax0310a

>  <ref_mols>  (240) 
Ax0446a,Ax1080a,Ax0812a,Ax0719a,Ax1140a,Ax0528a,Ax0310a

>  <original SMILES>  (240) 
CNc1ccc(C(F)(F)F)c(C(F)(F)F)n1

>  <rationale>  (240) 
info info set:bb_densepocket2;halogenbond:P107+S125; hbond:S105; hydroph_interaction:P107; 

>  <experiment>  (240) 
bb_densepocket2

>  <cluster_label>  (240) 
9

>  <cluster_rank>  (240) 
23

>  <N_interactions>  (240) 
4

>  <∆∆G>  (240) 
-0.019568

>  <comRMSD>  (240) 
0.778112

>  <ROCS_TanimotoCombo>  (240) 
0.636

>  <ROCS_ShapeTanimoto>  (240) 
0.279

>  <ROCS_ColorTanimoto>  (240) 
0.358

$$$$
EN300_65094
     RDKit          3D

 14 15  0  0  0  0  0  0  0  0999 V2000
   28.5978   13.8750    8.4859 N   0  0  0  0  0  0  0  0  0  0  0  0
   30.0192   13.5069    7.6872 S   0  0  0  0  0  6  0  0  0  0  0  0
   31.0765   14.1001    8.4816 O   0  0  0  0  0  0  0  0  0  0  0  0
   29.8001   13.8103    6.2924 O   0  0  0  0  0  0  0  0  0  0  0  0
   30.1559   11.7493    7.8142 C   0  0  0  0  0  0  0  0  0  0  0  0
   29.0115   11.0786    8.5418 C   0  0  0  0  0  0  0  0  0  0  0  0
   29.1020    9.5716    8.7104 C   0  0  0  0  0  0  0  0  0  0  0  0
   30.2149    9.0409    8.1480 C   0  0  0  0  0  0  0  0  0  0  0  0
   31.2400    9.6493    7.4648 C   0  0  0  0  0  0  0  0  0  0  0  0
   32.1794    8.8377    7.0125 N   0  0  0  0  0  0  0  0  0  0  0  0
   33.1887    9.3958    6.3199 C   0  0  0  0  0  0  0  0  0  0  0  0
   33.3076   10.7415    6.0852 C   0  0  0  0  0  0  0  0  0  0  0  0
   32.3138   11.5740    6.5816 C   0  0  0  0  0  0  0  0  0  0  0  0
   31.2423   11.0384    7.2792 C   0  0  0  0  0  0  0  0  0  0  0  0
  1  2  1  0
  2  3  2  0
  2  4  2  0
  2  5  1  0
  5  6  2  0
  6  7  1  0
  7  8  2  0
  8  9  1  0
  9 10  2  0
 10 11  1  0
 11 12  2  0
 12 13  1  0
 13 14  2  0
 14  5  1  0
 14  9  1  0
A    1
 N1 
A    2
 S1 
A    3
 O1 
A    4
 O2 
A    5
 C1 
A    6
 C2 
A    7
 C3 
A    8
 C4 
A    9
 C5 
A   10
 N2 
A   11
 C6 
A   12
 C7 
A   13
 C8 
A   14
 C9 
M  END
>  <ref_pdb>  (241) 
Ax0310a

>  <ref_mols>  (241) 
Ax0446a,Ax1080a,Ax0812a,Ax0719a,Ax1140a,Ax0528a,Ax0310a

>  <original SMILES>  (241) 
NS(=O)(=O)c1cccc2ncccc12

>  <rationale>  (241) 
info info set:sulfonimide_whole;hbond:S87+S125+E88; 

>  <experiment>  (241) 
sulfonimide_whole

>  <cluster_label>  (241) 
8

>  <cluster_rank>  (241) 
23

>  <N_interactions>  (241) 
3

>  <∆∆G>  (241) 
-5.823174

>  <comRMSD>  (241) 
0.512293

>  <ROCS_TanimotoCombo>  (241) 
0.335

>  <ROCS_ShapeTanimoto>  (241) 
0.205

>  <ROCS_ColorTanimoto>  (241) 
0.13

$$$$
EN300_89824
     RDKit          3D

 14 14  0  0  0  0  0  0  0  0999 V2000
   35.1200   10.5370    4.9416 N   0  0  0  0  0  0  0  0  0  0  0  0
   34.1427   10.5575    5.5589 C   0  0  0  0  0  0  0  0  0  0  0  0
   32.9083   10.6203    6.4269 C   0  0  0  0  0  0  0  0  0  0  0  0
   32.1697    9.3345    6.8251 C   0  0  0  0  0  0  0  0  0  0  0  0
   30.9177    9.4957    7.7178 C   0  0  0  0  0  0  0  0  0  0  0  0
   30.2244    8.4378    8.1167 F   0  0  0  0  0  0  0  0  0  0  0  0
   30.4465   10.8894    8.1572 C   0  0  0  0  0  0  0  0  0  0  0  0
   31.1714   11.9909    7.7577 C   0  0  0  0  0  0  0  0  0  0  0  0
   32.4078   11.8139    6.8957 C   0  0  0  0  0  0  0  0  0  0  0  0
   32.9296   13.0669    6.6844 C   0  0  0  0  0  0  0  0  0  0  0  0
   33.4431   13.7309    8.2972 S   0  0  0  0  0  6  0  0  0  0  0  0
   34.6821   14.7618    7.7898 N   0  0  0  0  0  0  0  0  0  0  0  0
   34.1174   12.7724    9.0909 O   0  0  0  0  0  0  0  0  0  0  0  0
   32.3789   14.4787    8.9308 O   0  0  0  0  0  0  0  0  0  0  0  0
  1  2  3  0
  2  3  1  0
  3  4  2  0
  4  5  1  0
  5  6  1  0
  5  7  2  0
  7  8  1  0
  8  9  2  0
  9 10  1  0
 10 11  1  0
 11 12  1  0
 11 13  2  0
 11 14  2  0
  9  3  1  0
A    1
 N1 
A    2
 C1 
A    3
 C2 
A    4
 C3 
A    5
 C4 
A    6
 F1 
A    7
 C5 
A    8
 C6 
A    9
 C7 
A   10
 C8 
A   11
 S1 
A   12
 N2 
A   13
 O1 
A   14
 O2 
M  END
>  <ref_pdb>  (242) 
Ax0310a

>  <ref_mols>  (242) 
Ax0446a,Ax1080a,Ax0812a,Ax0719a,Ax1140a,Ax0528a,Ax0310a

>  <original SMILES>  (242) 
N#Cc1cc(F)ccc1CS(N)(=O)=O

>  <rationale>  (242) 
info info set:sulfonimide_whole;hbond:S87+G127+A86; 

>  <experiment>  (242) 
sulfonimide_whole

>  <cluster_label>  (242) 
5

>  <cluster_rank>  (242) 
23

>  <N_interactions>  (242) 
3

>  <∆∆G>  (242) 
-5.087655

>  <comRMSD>  (242) 
0.53219

>  <ROCS_TanimotoCombo>  (242) 
0.339

>  <ROCS_ShapeTanimoto>  (242) 
0.195

>  <ROCS_ColorTanimoto>  (242) 
0.143

$$$$
Z6375138526
     RDKit          3D

 16 17  0  0  0  0  0  0  0  0999 V2000
   31.1347    8.8324    7.8594 N   0  0  0  0  0  0  0  0  0  0  0  0
   31.8069    9.4782    7.1512 C   0  0  0  0  0  0  0  0  0  0  0  0
   32.6882    8.8671    6.3856 N   0  0  0  0  0  0  0  0  0  0  0  0
   33.4537    9.6518    5.5712 C   0  0  0  0  0  0  0  0  0  0  0  0
   34.5773    8.8058    4.5846 Cl  0  0  0  0  0  0  0  0  0  0  0  0
   33.3695   11.1465    5.4916 C   0  0  0  0  0  0  0  0  0  0  0  0
   34.3435   12.1238    4.4660 Cl  0  0  0  0  0  0  0  0  0  0  0  0
   32.4338   11.6963    6.3134 C   0  0  0  0  0  0  0  0  0  0  0  0
   31.6700   10.8730    7.1191 C   0  0  0  0  0  0  0  0  0  0  0  0
   30.6635   11.5979    7.9679 C   0  0  0  0  0  0  0  0  0  0  0  0
   30.1254   10.9329    8.8005 O   0  0  0  0  0  0  0  0  0  0  0  0
   30.4048   12.9310    7.6977 N   0  0  0  0  0  0  0  0  0  0  0  0
   29.9422   13.8687    8.5836 C   0  0  0  0  0  0  0  0  0  0  0  0
   28.9450   14.4638    7.6662 C   0  0  0  0  0  0  0  0  0  0  0  0
   27.7652   14.5063    7.8868 O   0  0  0  0  0  0  0  0  0  0  0  0
   29.4045   13.4319    6.6542 C   0  0  0  0  0  0  0  0  0  0  0  0
  1  2  1  0
  2  3  2  0
  3  4  1  0
  4  5  1  0
  4  6  2  0
  6  7  1  0
  6  8  1  0
  8  9  2  0
  9 10  1  0
 10 11  2  0
 10 12  1  0
 12 13  1  0
 13 14  1  0
 14 15  1  0
 14 16  1  0
  9  2  1  0
 16 12  1  0
A    1
 N1 
A    2
 C1 
A    3
 N2 
A    4
 C2 
A    5
CL1 
A    6
 C3 
A    7
CL2 
A    8
 C4 
A    9
 C5 
A   10
 C6 
A   11
 O1 
A   12
 N3 
A   13
 C7 
A   14
 C8 
A   15
 O2 
A   16
 C9 
M  END
>  <ref_pdb>  (243) 
Ax0310a

>  <ref_mols>  (243) 
Ax0446a,Ax1080a,Ax0812a,Ax0719a,Ax1140a,Ax0528a,Ax0310a

>  <original SMILES>  (243) 
Nc1nc(Cl)c(Cl)cc1C(=O)N1CC(O)C1

>  <rationale>  (243) 
info info set:screening_pocket;hbond:S105+H21; 

>  <experiment>  (243) 
screening_pocket

>  <cluster_label>  (243) 
7

>  <cluster_rank>  (243) 
23

>  <N_interactions>  (243) 
2

>  <∆∆G>  (243) 
-2.377587

>  <comRMSD>  (243) 
0.663988

>  <ROCS_TanimotoCombo>  (243) 
0.633

>  <ROCS_ShapeTanimoto>  (243) 
0.251

>  <ROCS_ColorTanimoto>  (243) 
0.382

$$$$
Z409124566
     RDKit          3D

 20 21  0  0  0  0  0  0  0  0999 V2000
   30.1347   10.5343    8.9532 O   0  0  0  0  0  0  0  0  0  0  0  0
   30.4946   11.3190    7.8564 C   0  0  0  0  0  0  0  0  0  0  0  0
   29.8855   12.5833    7.4364 N   0  0  0  0  0  0  0  0  0  0  0  0
   29.4392   13.5068    8.4136 C   0  0  0  0  0  0  0  0  0  0  0  0
   27.8795   13.6537    8.4310 C   0  0  0  0  0  0  0  0  0  0  0  0
   27.3566   13.8133    7.1975 N   0  0  0  0  0  0  0  0  0  0  0  0
   26.8931   12.6245    6.5286 C   0  0  0  0  0  0  0  0  0  0  0  0
   25.6889   12.8311    5.5785 C   0  0  0  0  0  0  0  0  0  0  0  0
   26.0855   12.9770    4.1710 C   0  0  0  0  0  0  0  0  0  0  0  0
   27.0716   14.0975    4.0875 C   0  0  0  0  0  0  0  0  0  0  0  0
   28.2464   14.1626    5.1065 C   0  0  0  0  0  0  0  0  0  0  0  0
   28.1312   14.5498    6.4557 C   0  0  0  0  0  0  0  0  0  0  0  0
   28.7310   15.5116    6.9607 O   0  0  0  0  0  0  0  0  0  0  0  0
   31.5577   10.7523    7.0496 C   0  0  0  0  0  0  0  0  0  0  0  0
   32.3768   11.5150    6.0762 C   0  0  0  0  0  0  0  0  0  0  0  0
   33.3511   10.8212    5.3743 C   0  0  0  0  0  0  0  0  0  0  0  0
   33.5261    9.4674    5.6010 C   0  0  0  0  0  0  0  0  0  0  0  0
   32.7793    8.7901    6.4931 N   0  0  0  0  0  0  0  0  0  0  0  0
   31.8304    9.4107    7.1909 C   0  0  0  0  0  0  0  0  0  0  0  0
   31.1606    8.5902    8.0537 O   0  0  0  0  0  0  0  0  0  0  0  0
  1  2  2  0
  2  3  1  0
  3  4  1  0
  4  5  1  0
  5  6  1  0
  6  7  1  0
  7  8  1  0
  8  9  1  0
  9 10  1  0
 10 11  1  0
 11 12  1  0
 12 13  2  0
  2 14  1  0
 14 15  2  0
 15 16  1  0
 16 17  2  0
 17 18  1  0
 18 19  2  0
 19 20  1  0
 12  6  1  0
 19 14  1  0
A    1
 O1 
A    2
 C1 
A    3
 N1 
A    4
 C2 
A    5
 C3 
A    6
 N2 
A    7
 C4 
A    8
 C5 
A    9
 C6 
A   10
 C7 
A   11
 C8 
A   12
 C9 
A   13
 O2 
A   14
 C10
A   15
 C11
A   16
 C12
A   17
 C13
A   18
 N3 
A   19
 C14
A   20
 O3 
M  END
>  <ref_pdb>  (244) 
Ax0310a

>  <ref_mols>  (244) 
Ax0446a,Ax1080a,Ax0812a,Ax0719a,Ax1140a,Ax0528a,Ax0310a

>  <original SMILES>  (244) 
O=C(NCCN1CCCCCC1=O)c1cccnc1O

>  <rationale>  (244) 
info info set:screening_pocket;hydroph_interaction:P107+E88; 

>  <experiment>  (244) 
screening_pocket

>  <cluster_label>  (244) 
12

>  <cluster_rank>  (244) 
23

>  <N_interactions>  (244) 
3

>  <∆∆G>  (244) 
-1.199102

>  <comRMSD>  (244) 
0.808716

>  <ROCS_TanimotoCombo>  (244) 
0.637

>  <ROCS_ShapeTanimoto>  (244) 
0.224

>  <ROCS_ColorTanimoto>  (244) 
0.413

$$$$
EN300_277240
     RDKit          3D

 11 11  0  0  0  0  0  0  0  0999 V2000
   34.6820   14.7628    7.8518 N   0  0  0  0  0  0  0  0  0  0  0  0
   33.4738   13.6945    8.3409 S   0  0  0  0  0  6  0  0  0  0  0  0
   32.3098   14.3622    8.8858 O   0  0  0  0  0  0  0  0  0  0  0  0
   34.1649   12.7922    9.1846 O   0  0  0  0  0  0  0  0  0  0  0  0
   33.0678   12.8830    6.7964 C   0  0  0  0  0  0  0  0  0  0  0  0
   32.4056   11.6790    7.0334 C   0  0  0  0  0  0  0  0  0  0  0  0
   32.9133   10.4635    6.5740 C   0  0  0  0  0  0  0  0  0  0  0  0
   32.3310    9.2829    6.7947 N   0  0  0  0  0  0  0  0  0  0  0  0
   31.1918    9.3408    7.5104 C   0  0  0  0  0  0  0  0  0  0  0  0
   30.6671   10.5295    7.9651 C   0  0  0  0  0  0  0  0  0  0  0  0
   31.2540   11.7268    7.7369 N   0  0  0  0  0  0  0  0  0  0  0  0
  1  2  1  0
  2  3  2  0
  2  4  2  0
  2  5  1  0
  5  6  1  0
  6  7  2  0
  7  8  1  0
  8  9  2  0
  9 10  1  0
 10 11  2  0
 11  6  1  0
A    1
 N1 
A    2
 S1 
A    3
 O1 
A    4
 O2 
A    5
 C1 
A    6
 C2 
A    7
 C3 
A    8
 N2 
A    9
 C4 
A   10
 C5 
A   11
 N3 
M  END
>  <ref_pdb>  (245) 
Ax0310a

>  <ref_mols>  (245) 
Ax0446a,Ax1080a,Ax0812a,Ax0719a,Ax1140a,Ax0528a,Ax0310a

>  <original SMILES>  (245) 
NS(=O)(=O)Cc1cnccn1

>  <rationale>  (245) 
info info set:sulfonimide_whole;hbond:S87+G127+A86; 

>  <experiment>  (245) 
sulfonimide_whole

>  <cluster_label>  (245) 
5

>  <cluster_rank>  (245) 
24

>  <N_interactions>  (245) 
3

>  <∆∆G>  (245) 
-4.589475

>  <comRMSD>  (245) 
0.566982

>  <ROCS_TanimotoCombo>  (245) 
0.339

>  <ROCS_ShapeTanimoto>  (245) 
0.165

>  <ROCS_ColorTanimoto>  (245) 
0.174

$$$$
Z1620918426
     RDKit          3D

 21 22  0  0  0  0  0  0  0  0999 V2000
   32.6638   13.0540    5.8240 C   0  0  0  0  0  0  0  0  0  0  0  0
   32.5646   11.5651    6.1582 C   0  0  0  0  0  0  0  0  0  0  0  0
   33.5423   10.6635    5.4788 C   0  0  0  0  0  0  0  0  0  0  0  0
   33.5472    9.1721    5.7263 C   0  0  0  0  0  0  0  0  0  0  0  0
   32.5892    8.6049    6.6415 N   0  0  0  0  0  0  0  0  0  0  0  0
   31.7208    9.4261    7.2384 C   0  0  0  0  0  0  0  0  0  0  0  0
   30.9927    8.7588    7.9724 O   0  0  0  0  0  0  0  0  0  0  0  0
   31.5883   10.8283    7.1099 C   0  0  0  0  0  0  0  0  0  0  0  0
   30.4941   11.5318    7.9165 C   0  0  0  0  0  0  0  0  0  0  0  0
   30.0173   10.7128    8.8433 O   0  0  0  0  0  0  0  0  0  0  0  0
   30.2051   12.7966    7.5794 O   0  0  0  0  0  0  0  0  0  0  0  0
   28.9806   13.2843    8.1050 C   0  0  0  0  0  0  0  0  0  0  0  0
   28.3690   14.2449    7.0802 C   0  0  0  0  0  0  0  0  0  0  0  0
   28.5674   15.6096    7.4182 O   0  0  0  0  0  0  0  0  0  0  0  0
   27.7254   13.7272    5.9998 N   0  0  0  0  0  0  0  0  0  0  0  0
   28.2169   14.0660    4.6568 C   0  0  0  0  0  0  0  0  0  0  0  0
   27.0567   14.0736    3.6214 C   0  0  0  0  0  0  0  0  0  0  0  0
   25.7435   13.5622    4.1014 C   0  0  0  0  0  0  0  0  0  0  0  0
   25.2312   13.3370    2.6714 C   0  0  0  0  0  0  0  0  0  0  0  0
   25.7100   12.4129    5.0696 C   0  0  0  0  0  0  0  0  0  0  0  0
   26.8051   12.6037    6.1529 C   0  0  0  0  0  0  0  0  0  0  0  0
  1  2  1  0
  2  3  2  0
  3  4  1  0
  4  5  2  0
  5  6  1  0
  6  7  1  0
  6  8  2  0
  8  9  1  0
  9 10  2  0
  9 11  1  0
 11 12  1  0
 12 13  1  0
 13 14  2  0
 13 15  1  0
 15 16  1  0
 16 17  1  0
 17 18  1  0
 18 19  1  0
 18 20  1  0
 20 21  1  0
  8  2  1  0
 21 15  1  0
A    1
 C1 
A    2
 C2 
A    3
 C3 
A    4
 C4 
A    5
 N1 
A    6
 C5 
A    7
 O1 
A    8
 C6 
A    9
 C7 
A   10
 O2 
A   11
 O3 
A   12
 C8 
A   13
 C9 
A   14
 O4 
A   15
 N2 
A   16
 C10
A   17
 C11
A   18
 C12
A   19
 C13
A   20
 C14
A   21
 C15
M  END
>  <ref_pdb>  (246) 
Ax0310a

>  <ref_mols>  (246) 
Ax0446a,Ax1080a,Ax0812a,Ax0719a,Ax1140a,Ax0528a,Ax0310a

>  <original SMILES>  (246) 
Cc1ccnc(O)c1C(=O)OCC(=O)N1CCC(C)CC1

>  <rationale>  (246) 
info info set:screening_pocket;hbond:S87; hydroph_interaction:P107+Y89+E88; 

>  <experiment>  (246) 
screening_pocket

>  <cluster_label>  (246) 
12

>  <cluster_rank>  (246) 
24

>  <N_interactions>  (246) 
4

>  <∆∆G>  (246) 
-4.061363

>  <comRMSD>  (246) 
0.714332

>  <ROCS_TanimotoCombo>  (246) 
0.628

>  <ROCS_ShapeTanimoto>  (246) 
0.239

>  <ROCS_ColorTanimoto>  (246) 
0.389

$$$$
Z2242930975
     RDKit          3D

 18 19  0  0  0  0  0  0  0  0999 V2000
   34.4766   11.0908    5.3300 C   0  0  0  0  0  0  0  0  0  0  0  0
   33.2671   10.9616    6.2480 C   0  0  0  0  0  0  0  0  0  0  0  0
   32.8310   12.2349    6.9678 C   0  0  0  0  0  0  0  0  0  0  0  0
   31.6150   12.1468    7.8961 C   0  0  0  0  0  0  0  0  0  0  0  0
   31.1428   13.6213    8.7192 S   0  0  0  0  0  6  0  0  0  0  0  0
   32.3391   14.3884    8.7185 O   0  0  0  0  0  0  0  0  0  0  0  0
   30.5259   13.5463    9.9803 O   0  0  0  0  0  0  0  0  0  0  0  0
   29.9145   14.1310    7.7351 N   0  0  0  0  0  0  0  0  0  0  0  0
   28.9637   13.1456    7.2059 C   0  0  0  0  0  0  0  0  0  0  0  0
   27.5529   13.6654    7.4305 C   0  0  0  0  0  0  0  0  0  0  0  0
   27.7649   14.5206    8.7003 C   0  0  2  0  0  0  0  0  0  0  0  0
   26.9705   15.5459    9.0212 N   0  0  0  0  0  0  0  0  0  0  0  0
   29.0770   15.1739    8.3657 C   0  0  0  0  0  0  0  0  0  0  0  0
   30.9833   10.9214    8.0148 C   0  0  0  0  0  0  0  0  0  0  0  0
   29.9405   10.7148    8.7515 F   0  0  0  0  0  0  0  0  0  0  0  0
   31.5335    9.7291    7.2459 C   0  0  0  0  0  0  0  0  0  0  0  0
   32.5860    9.7855    6.4470 C   0  0  0  0  0  0  0  0  0  0  0  0
   33.0105    8.7240    5.8272 F   0  0  0  0  0  0  0  0  0  0  0  0
  1  2  1  0
  2  3  2  0
  3  4  1  0
  4  5  1  0
  5  6  2  0
  5  7  2  0
  5  8  1  0
  8  9  1  0
  9 10  1  0
 10 11  1  0
 11 12  1  6
 11 13  1  0
  4 14  2  0
 14 15  1  0
 14 16  1  0
 16 17  2  0
 17 18  1  0
 17  2  1  0
 13  8  1  0
A    1
 C1 
A    2
 C2 
A    3
 C3 
A    4
 C4 
A    5
 S1 
A    6
 O1 
A    7
 O2 
A    8
 N1 
A    9
 C5 
A   10
 C6 
A   11
 C7 
A   12
 N2 
A   13
 C8 
A   14
 C9 
A   15
 F1 
A   16
 C10
A   17
 C11
A   18
 F2 
M  END
>  <ref_pdb>  (247) 
Ax0310a

>  <ref_mols>  (247) 
Ax0446a,Ax1080a,Ax0812a,Ax0719a,Ax1140a,Ax0528a,Ax0310a

>  <original SMILES>  (247) 
Cc1cc(S(=O)(=O)N2CC[C@H](N)C2)c(F)cc1F

>  <rationale>  (247) 
info info set:3d;halogenbond:S105; hbond:S87+H21; 

>  <experiment>  (247) 
3d

>  <cluster_label>  (247) 
7

>  <cluster_rank>  (247) 
24

>  <N_interactions>  (247) 
3

>  <∆∆G>  (247) 
-0.336699

>  <comRMSD>  (247) 
0.574786

>  <ROCS_TanimotoCombo>  (247) 
0.312

>  <ROCS_ShapeTanimoto>  (247) 
0.22

>  <ROCS_ColorTanimoto>  (247) 
0.092

$$$$
Z4249644996
     RDKit          3D

 18 19  0  0  0  0  0  0  0  0999 V2000
   34.2424   12.5932    4.4435 C   0  0  0  0  0  0  0  0  0  0  0  0
   34.3946   11.1032    4.6268 C   0  0  0  0  0  0  0  0  0  0  0  0
   34.9574    9.7416    4.4506 C   0  0  0  0  0  0  0  0  0  0  0  0
   34.3448    8.7757    5.1501 N   0  0  0  0  0  0  0  0  0  0  0  0
   33.3495    9.3590    5.8413 C   0  0  0  0  0  0  0  0  0  0  0  0
   32.5453    8.6657    6.6471 N   0  0  0  0  0  0  0  0  0  0  0  0
   31.6085    9.3913    7.2325 C   0  0  0  0  0  0  0  0  0  0  0  0
   31.4067   10.7574    7.0891 C   0  0  0  0  0  0  0  0  0  0  0  0
   30.2619   11.2753    7.8662 C   0  0  0  0  0  0  0  0  0  0  0  0
   30.1297   10.7546    8.9211 O   0  0  0  0  0  0  0  0  0  0  0  0
   29.4273   12.2656    7.2096 N   0  0  0  0  0  0  0  0  0  0  0  0
   29.8240   13.0129    6.0487 C   0  0  0  0  0  0  0  0  0  0  0  0
   28.6115   13.1171    8.0581 C   0  0  0  0  0  0  0  0  0  0  0  0
   29.2912   14.4699    8.1913 C   0  0  0  0  0  0  0  0  0  0  0  0
   30.4397   14.5976    8.5754 O   0  0  0  0  0  0  0  0  0  0  0  0
   28.6042   15.5727    7.8278 O   0  0  0  0  0  0  0  0  0  0  0  0
   32.2381   11.5090    6.2737 C   0  0  0  0  0  0  0  0  0  0  0  0
   33.3430   10.7197    5.5563 C   0  0  0  0  0  0  0  0  0  0  0  0
  1  2  1  0
  2  3  2  0
  3  4  1  0
  4  5  1  0
  5  6  2  0
  6  7  1  0
  7  8  2  0
  8  9  1  0
  9 10  2  0
  9 11  1  0
 11 12  1  0
 11 13  1  0
 13 14  1  0
 14 15  2  0
 14 16  1  0
  8 17  1  0
 17 18  2  0
 18  2  1  0
 18  5  1  0
A    1
 C1 
A    2
 C2 
A    3
 C3 
A    4
 N1 
A    5
 C4 
A    6
 N2 
A    7
 C5 
A    8
 C6 
A    9
 C7 
A   10
 O1 
A   11
 N3 
A   12
 C8 
A   13
 C9 
A   14
 C10
A   15
 O2 
A   16
 O3 
A   17
 C11
A   18
 C12
M  END
>  <ref_pdb>  (248) 
Ax0310a

>  <ref_mols>  (248) 
Ax0446a,Ax1080a,Ax0812a,Ax0719a,Ax1140a,Ax0528a,Ax0310a

>  <original SMILES>  (248) 
Cc1c[nH]c2ncc(C(=O)N(C)CC(=O)O)cc12

>  <rationale>  (248) 
info info set:screening_pocket;hbond:S87+E88; hydroph_interaction:P107; saltbridge:H21; 

>  <experiment>  (248) 
screening_pocket

>  <cluster_label>  (248) 
9

>  <cluster_rank>  (248) 
24

>  <N_interactions>  (248) 
4

>  <∆∆G>  (248) 
-4.365627

>  <comRMSD>  (248) 
0.638592

>  <ROCS_TanimotoCombo>  (248) 
0.66

>  <ROCS_ShapeTanimoto>  (248) 
0.276

>  <ROCS_ColorTanimoto>  (248) 
0.385

$$$$
Z995476540
     RDKit          3D

 17 19  0  0  0  0  0  0  0  0999 V2000
   28.8505   16.6304    9.1168 C   0  0  0  0  0  0  0  0  0  0  0  0
   28.8158   15.4213    8.3152 C   0  0  0  0  0  0  0  0  0  0  0  0
   29.1015   14.1360    8.9102 C   0  0  0  0  0  0  0  0  0  0  0  0
   28.9669   13.2422    7.7749 C   0  0  0  0  0  0  0  0  0  0  0  0
   29.1527   11.7614    7.8146 C   0  0  0  0  0  0  0  0  0  0  0  0
   30.3364   11.3497    7.5016 N   0  0  0  0  0  0  0  0  0  0  0  0
   30.8443   10.0835    7.9133 C   0  0  0  0  0  0  0  0  0  0  0  0
   30.3102    9.1819    8.5448 O   0  0  0  0  0  0  0  0  0  0  0  0
   32.1199   10.1297    7.4099 N   0  0  0  0  0  0  0  0  0  0  0  0
   32.4622   11.2506    6.6241 C   0  0  0  0  0  0  0  0  0  0  0  0
   33.2566   10.8904    5.3611 C   0  0  0  0  0  0  0  0  0  0  0  0
   34.2863   11.8903    5.7454 C   0  0  0  0  0  0  0  0  0  0  0  0
   33.5495   12.3214    7.0115 C   0  0  0  0  0  0  0  0  0  0  0  0
   31.0890   11.9662    6.6123 C   0  0  0  0  0  0  0  0  0  0  0  0
   30.7008   12.9304    5.9730 O   0  0  0  0  0  0  0  0  0  0  0  0
   28.6384   13.9470    6.6737 O   0  0  0  0  0  0  0  0  0  0  0  0
   28.5520   15.2963    7.0202 N   0  0  0  0  0  0  0  0  0  0  0  0
  1  2  1  0
  2  3  1  0
  3  4  2  0
  4  5  1  0
  5  6  1  0
  6  7  1  0
  7  8  2  0
  7  9  1  0
  9 10  1  0
 10 11  1  0
 11 12  1  0
 12 13  1  0
 10 14  1  0
 14 15  2  0
  4 16  1  0
 16 17  1  0
 17  2  2  0
 14  6  1  0
 13 10  1  0
A    1
 C1 
A    2
 C2 
A    3
 C3 
A    4
 C4 
A    5
 C5 
A    6
 N1 
A    7
 C6 
A    8
 O1 
A    9
 N2 
A   10
 C7 
A   11
 C8 
A   12
 C9 
A   13
 C10
A   14
 C11
A   15
 O2 
A   16
 O3 
A   17
 N3 
M  END
>  <ref_pdb>  (249) 
Ax0310a

>  <ref_mols>  (249) 
Ax0446a,Ax1080a,Ax0812a,Ax0719a,Ax1140a,Ax0528a,Ax0310a

>  <original SMILES>  (249) 
Cc1cc(CN2C(=O)NC3(CCC3)C2=O)on1

>  <rationale>  (249) 
info info set:3d;hbond:S105+T126; hydroph_interaction:P107+Y89+Y90; pistack:H21; 

>  <experiment>  (249) 
3d

>  <cluster_label>  (249) 
3

>  <cluster_rank>  (249) 
24

>  <N_interactions>  (249) 
6

>  <∆∆G>  (249) 
-0.760024

>  <comRMSD>  (249) 
0.774465

>  <ROCS_TanimotoCombo>  (249) 
0.382

>  <ROCS_ShapeTanimoto>  (249) 
0.222

>  <ROCS_ColorTanimoto>  (249) 
0.159

$$$$
Z285233970
     RDKit          3D

 15 16  0  0  0  0  0  0  0  0999 V2000
   32.1477   13.3098    5.3909 C   0  0  0  0  0  0  0  0  0  0  0  0
   32.4614   12.9696    6.8394 C   0  0  0  0  0  0  0  0  0  0  0  0
   33.8492   13.3332    7.3675 C   0  0  0  0  0  0  0  0  0  0  0  0
   32.1773   11.5048    6.9974 C   0  0  0  0  0  0  0  0  0  0  0  0
   31.1654   11.1353    7.8761 C   0  0  0  0  0  0  0  0  0  0  0  0
   30.8671    9.8100    8.0771 C   0  0  0  0  0  0  0  0  0  0  0  0
   31.5820    8.8591    7.3944 C   0  0  0  0  0  0  0  0  0  0  0  0
   32.5894    9.2152    6.5092 C   0  0  0  0  0  0  0  0  0  0  0  0
   32.8947   10.5407    6.3051 C   0  0  0  0  0  0  0  0  0  0  0  0
   31.4682   13.6499    7.7489 C   0  0  0  0  0  0  0  0  0  0  0  0
   31.5935   14.1222    8.9793 N   0  0  0  0  0  0  0  0  0  0  0  0
   30.3972   14.6840    9.2965 N   0  0  0  0  0  0  0  0  0  0  0  0
   29.6052   14.5240    8.2545 C   0  0  0  0  0  0  0  0  0  0  0  0
   28.3468   14.9107    8.0388 N   0  0  0  0  0  0  0  0  0  0  0  0
   30.2110   13.8572    7.2331 O   0  0  0  0  0  0  0  0  0  0  0  0
  1  2  1  0
  2  3  1  0
  2  4  1  0
  4  5  2  0
  5  6  1  0
  6  7  2  0
  7  8  1  0
  8  9  2  0
  2 10  1  0
 10 11  2  0
 11 12  1  0
 12 13  2  0
 13 14  1  0
 13 15  1  0
  9  4  1  0
 15 10  1  0
A    1
 C1 
A    2
 C2 
A    3
 C3 
A    4
 C4 
A    5
 C5 
A    6
 C6 
A    7
 C7 
A    8
 C8 
A    9
 C9 
A   10
 C10
A   11
 N1 
A   12
 N2 
A   13
 C11
A   14
 N3 
A   15
 O1 
M  END
>  <ref_pdb>  (250) 
Ax0310a

>  <ref_mols>  (250) 
Ax0446a,Ax1080a,Ax0812a,Ax0719a,Ax1140a,Ax0528a,Ax0310a

>  <original SMILES>  (250) 
CC(C)(c1ccccc1)c1nnc(N)o1

>  <rationale>  (250) 
info info set:3d;hbond:S87+E88; 

>  <experiment>  (250) 
3d

>  <cluster_label>  (250) 
8

>  <cluster_rank>  (250) 
24

>  <N_interactions>  (250) 
2

>  <∆∆G>  (250) 
-5.828778

>  <comRMSD>  (250) 
0.64253

>  <ROCS_TanimotoCombo>  (250) 
0.334

>  <ROCS_ShapeTanimoto>  (250) 
0.193

>  <ROCS_ColorTanimoto>  (250) 
0.141

$$$$
EN300_7460235
     RDKit          3D

 18 19  0  0  0  0  0  0  0  0999 V2000
   31.1277   15.6891   10.2010 O   0  0  0  0  0  0  0  0  0  0  0  0
   30.3037   14.8260    9.9743 C   0  0  0  0  0  0  0  0  0  0  0  0
   28.8202   14.8987   10.0487 C   0  0  0  0  0  0  0  0  0  0  0  0
   28.3718   16.0443    8.8124 Cl  0  0  0  0  0  0  0  0  0  0  0  0
   30.4710   13.4951    9.5392 N   0  0  0  0  0  0  0  0  0  0  0  0
   31.2374   13.1711    8.3823 C   0  0  0  0  0  0  0  0  0  0  0  0
   30.5913   12.0991    7.5680 C   0  0  0  0  0  0  0  0  0  0  0  0
   29.5185   11.6068    8.1949 F   0  0  0  0  0  0  0  0  0  0  0  0
   30.0856   12.7437    6.4856 F   0  0  0  0  0  0  0  0  0  0  0  0
   31.5179   10.9552    7.0782 C   0  0  0  0  0  0  0  0  0  0  0  0
   31.4156    9.6373    7.4775 N   0  0  0  0  0  0  0  0  0  0  0  0
   32.1986    8.9238    6.9924 N   0  0  0  0  0  0  0  0  0  0  0  0
   32.9290    9.7074    6.1916 C   0  0  0  0  0  0  0  0  0  0  0  0
   32.5439   10.9952    6.2174 C   0  0  0  0  0  0  0  0  0  0  0  0
   33.2277   12.0932    5.3835 C   0  0  0  0  0  0  0  0  0  0  0  0
   34.6689   11.7811    5.1576 C   0  0  0  0  0  0  0  0  0  0  0  0
   34.8779   10.3788    4.5957 C   0  0  0  0  0  0  0  0  0  0  0  0
   34.1305    9.3887    5.2405 C   0  0  0  0  0  0  0  0  0  0  0  0
  1  2  2  0
  2  3  1  0
  3  4  1  0
  2  5  1  0
  5  6  1  0
  6  7  1  0
  7  8  1  0
  7  9  1  0
  7 10  1  0
 10 11  1  0
 11 12  1  0
 12 13  2  0
 13 14  1  0
 14 15  1  0
 15 16  1  0
 16 17  1  0
 17 18  1  0
 14 10  2  0
 18 13  1  0
A    1
 O1 
A    2
 C1 
A    3
 C2 
A    4
CL1 
A    5
 N1 
A    6
 C3 
A    7
 C4 
A    8
 F1 
A    9
 F2 
A   10
 C5 
A   11
 N2 
A   12
 N3 
A   13
 C6 
A   14
 C7 
A   15
 C8 
A   16
 C9 
A   17
 C10
A   18
 C11
M  END
>  <ref_pdb>  (251) 
Ax0310a

>  <ref_mols>  (251) 
Ax0446a,Ax1080a,Ax0812a,Ax0719a,Ax1140a,Ax0528a,Ax0310a

>  <original SMILES>  (251) 
O=C(CCl)NCC(F)(F)c1[nH]nc2c1CCCC2

>  <rationale>  (251) 
info info set:bb_whole;halogenbond:E88; hbond:S87+S125; hydroph_interaction:P107; 

>  <experiment>  (251) 
bb_whole

>  <cluster_label>  (251) 
7

>  <cluster_rank>  (251) 
25

>  <N_interactions>  (251) 
4

>  <∆∆G>  (251) 
-2.579032

>  <comRMSD>  (251) 
0.779278

>  <ROCS_TanimotoCombo>  (251) 
0.412

>  <ROCS_ShapeTanimoto>  (251) 
0.228

>  <ROCS_ColorTanimoto>  (251) 
0.184

$$$$
EN300_801850
     RDKit          3D

 18 19  0  0  0  0  0  0  0  0999 V2000
   29.8285    6.9307    9.2101 C   0  0  0  0  0  0  0  0  0  0  0  0
   29.7156    8.2610    9.0305 C   0  0  0  0  0  0  0  0  0  0  0  0
   28.9474    8.8489    8.0675 C   0  0  0  0  0  0  0  0  0  0  0  0
   29.2172    8.6653   10.2151 C   0  0  0  0  0  0  0  0  0  0  0  0
   31.0524    8.8296    8.8245 C   0  0  0  0  0  0  0  0  0  0  0  0
   31.5679    9.6517    7.6360 C   0  0  0  0  0  0  0  0  0  0  0  0
   32.5118    9.0543    6.8531 N   0  0  0  0  0  0  0  0  0  0  0  0
   33.0417    9.7283    5.8058 C   0  0  0  0  0  0  0  0  0  0  0  0
   34.1195    9.0368    4.9480 C   0  0  0  0  0  0  0  0  0  0  0  0
   34.7595    9.6761    3.7449 C   0  0  0  0  0  0  0  0  0  0  0  0
   34.2592   11.0779    3.4583 C   0  0  0  0  0  0  0  0  0  0  0  0
   33.2157   11.8046    4.2887 C   0  0  0  0  0  0  0  0  0  0  0  0
   32.7571   13.4079    3.8318 Cl  0  0  0  0  0  0  0  0  0  0  0  0
   32.6437   11.0239    5.4856 C   0  0  0  0  0  0  0  0  0  0  0  0
   31.6688   11.5985    6.3231 C   0  0  0  0  0  0  0  0  0  0  0  0
   31.1087   10.9492    7.4074 C   0  0  0  0  0  0  0  0  0  0  0  0
   30.1256   11.6000    8.2157 N   0  0  0  0  0  0  0  0  0  0  0  0
   29.8113   12.9452    7.9608 N   0  0  0  0  0  0  0  0  0  0  0  0
  1  2  1  0
  2  3  1  0
  2  4  1  0
  2  5  1  0
  5  6  1  0
  6  7  2  0
  7  8  1  0
  8  9  2  0
  9 10  1  0
 10 11  2  0
 11 12  1  0
 12 13  1  0
 12 14  2  0
 14 15  1  0
 15 16  2  0
 16 17  1  0
 17 18  1  0
 16  6  1  0
 14  8  1  0
A    1
 C1 
A    2
 C2 
A    3
 C3 
A    4
 C4 
A    5
 C5 
A    6
 C6 
A    7
 N1 
A    8
 C7 
A    9
 C8 
A   10
 C9 
A   11
 C10
A   12
 C11
A   13
CL1 
A   14
 C12
A   15
 C13
A   16
 C14
A   17
 N2 
A   18
 N3 
M  END
>  <ref_pdb>  (252) 
Ax0310a

>  <ref_mols>  (252) 
Ax0446a,Ax1080a,Ax0812a,Ax0719a,Ax1140a,Ax0528a,Ax0310a

>  <original SMILES>  (252) 
CC(C)(C)Cc1nc2cccc(Cl)c2cc1NN

>  <rationale>  (252) 
info info set:bb_densepocket2;hbond:S125; hydroph_interaction:P107+V124+D109; 

>  <experiment>  (252) 
bb_densepocket2

>  <cluster_label>  (252) 
3

>  <cluster_rank>  (252) 
25

>  <N_interactions>  (252) 
6

>  <∆∆G>  (252) 
-1.829656

>  <comRMSD>  (252) 
0.433994

>  <ROCS_TanimotoCombo>  (252) 
0.648

>  <ROCS_ShapeTanimoto>  (252) 
0.255

>  <ROCS_ColorTanimoto>  (252) 
0.392

$$$$
Z408160318
     RDKit          3D

 18 19  0  0  0  0  0  0  0  0999 V2000
   28.8257   16.6661    8.6930 C   0  0  0  0  0  0  0  0  0  0  0  0
   28.8373   15.3557    8.4055 C   0  0  0  0  0  0  0  0  0  0  0  0
   27.6683   14.7407    8.0083 C   0  0  0  0  0  0  0  0  0  0  0  0
   27.7137   13.4215    7.6876 C   0  0  0  0  0  0  0  0  0  0  0  0
   28.9901   12.6913    7.7629 C   0  0  0  0  0  0  0  0  0  0  0  0
   29.0764   11.4532    7.4680 F   0  0  0  0  0  0  0  0  0  0  0  0
   30.0926   13.3491    8.1582 C   0  0  0  0  0  0  0  0  0  0  0  0
   31.5279   12.3589    8.1646 S   0  0  0  0  0  6  0  0  0  0  0  0
   32.6796   12.9795    8.7891 O   0  0  0  0  0  0  0  0  0  0  0  0
   30.9929   11.0847    8.5870 O   0  0  0  0  0  0  0  0  0  0  0  0
   31.9619   11.9500    6.6449 N   0  0  0  0  0  0  0  0  0  0  0  0
   33.3523   12.2706    6.2143 C   0  0  0  0  0  0  0  0  0  0  0  0
   33.9637   11.1875    5.3431 C   0  0  0  0  0  0  0  0  0  0  0  0
   33.7319    9.8644    5.8735 N   0  0  0  0  0  0  0  0  0  0  0  0
   32.5835    9.5525    6.5326 C   0  0  0  0  0  0  0  0  0  0  0  0
   32.4057    8.4522    7.0546 O   0  0  0  0  0  0  0  0  0  0  0  0
   31.6264   10.5168    6.5605 C   0  0  0  0  0  0  0  0  0  0  0  0
   30.0399   14.6612    8.5037 C   0  0  0  0  0  0  0  0  0  0  0  0
  1  2  1  0
  2  3  2  0
  3  4  1  0
  4  5  2  0
  5  6  1  0
  5  7  1  0
  7  8  1  0
  8  9  2  0
  8 10  2  0
  8 11  1  0
 11 12  1  0
 12 13  1  0
 13 14  1  0
 14 15  1  0
 15 16  2  0
 15 17  1  0
  7 18  2  0
 18  2  1  0
 17 11  1  0
A    1
 C1 
A    2
 C2 
A    3
 C3 
A    4
 C4 
A    5
 C5 
A    6
 F1 
A    7
 C6 
A    8
 S1 
A    9
 O1 
A   10
 O2 
A   11
 N1 
A   12
 C7 
A   13
 C8 
A   14
 N2 
A   15
 C9 
A   16
 O3 
A   17
 C10
A   18
 C11
M  END
>  <ref_pdb>  (253) 
Ax0310a

>  <ref_mols>  (253) 
Ax0446a,Ax1080a,Ax0812a,Ax0719a,Ax1140a,Ax0528a,Ax0310a

>  <original SMILES>  (253) 
Cc1ccc(F)c(S(=O)(=O)N2CCNC(=O)C2)c1

>  <rationale>  (253) 
info info set:3d;halogenbond:P107; hbond:S87+S105+G127; hydroph_interaction:Y90; 

>  <experiment>  (253) 
3d

>  <cluster_label>  (253) 
9

>  <cluster_rank>  (253) 
25

>  <N_interactions>  (253) 
5

>  <∆∆G>  (253) 
-0.50501

>  <comRMSD>  (253) 
0.816962

>  <ROCS_TanimotoCombo>  (253) 
0.327

>  <ROCS_ShapeTanimoto>  (253) 
0.215

>  <ROCS_ColorTanimoto>  (253) 
0.112

$$$$
Z1420340146
     RDKit          3D

 17 18  0  0  0  0  0  0  0  0999 V2000
   28.0372   14.7863    6.6451 N   0  0  0  0  0  0  0  0  0  0  0  0
   28.8584   15.2868    7.7126 C   0  0  0  0  0  0  0  0  0  0  0  0
   29.5342   14.1089    8.3141 C   0  0  0  0  0  0  0  0  0  0  0  0
   30.3166   13.2525    7.5432 N   0  0  0  0  0  0  0  0  0  0  0  0
   30.5281   11.9458    7.8553 C   0  0  0  0  0  0  0  0  0  0  0  0
   29.9772   11.0961    8.7732 O   0  0  0  0  0  0  0  0  0  0  0  0
   31.4537   11.2301    7.1212 C   0  0  0  0  0  0  0  0  0  0  0  0
   32.3264   11.7616    6.1900 C   0  0  0  0  0  0  0  0  0  0  0  0
   33.3318   10.9518    5.3762 C   0  0  0  0  0  0  0  0  0  0  0  0
   34.1271   11.5864    4.4882 F   0  0  0  0  0  0  0  0  0  0  0  0
   33.3842    9.4446    5.6092 C   0  0  0  0  0  0  0  0  0  0  0  0
   34.2360    8.6865    4.9206 F   0  0  0  0  0  0  0  0  0  0  0  0
   32.4240    8.8555    6.6562 C   0  0  0  0  0  0  0  0  0  0  0  0
   31.4738    9.7206    7.3987 C   0  0  0  0  0  0  0  0  0  0  0  0
   30.3300    8.6029    8.7156 I   0  0  0  0  0  0  0  0  0  0  0  0
   28.5024   13.6509    9.5007 C   0  0  0  0  0  0  0  0  0  0  0  0
   29.7946   14.2050    9.7565 C   0  0  0  0  0  0  0  0  0  0  0  0
  1  2  3  0
  2  3  1  0
  3  4  1  0
  4  5  1  0
  5  6  2  0
  5  7  1  0
  7  8  2  0
  8  9  1  0
  9 10  1  0
  9 11  2  0
 11 12  1  0
 11 13  1  0
 13 14  2  0
 14 15  1  0
  3 16  1  0
 16 17  1  0
 17  3  1  0
 14  7  1  0
A    1
 N1 
A    2
 C1 
A    3
 C2 
A    4
 N2 
A    5
 C3 
A    6
 O1 
A    7
 C4 
A    8
 C5 
A    9
 C6 
A   10
 F1 
A   11
 C7 
A   12
 F2 
A   13
 C8 
A   14
 C9 
A   15
 I1 
A   16
 C10
A   17
 C11
M  END
>  <ref_pdb>  (254) 
Ax0310a

>  <ref_mols>  (254) 
Ax0446a,Ax1080a,Ax0812a,Ax0719a,Ax1140a,Ax0528a,Ax0310a

>  <original SMILES>  (254) 
N#CC1(NC(=O)c2cc(F)c(F)cc2I)CC1

>  <rationale>  (254) 
info info set:screening_pocket;hbond:S87+E88; hydroph_interaction:P107; 

>  <experiment>  (254) 
screening_pocket

>  <cluster_label>  (254) 
8

>  <cluster_rank>  (254) 
25

>  <N_interactions>  (254) 
4

>  <∆∆G>  (254) 
-1.329146

>  <comRMSD>  (254) 
0.892112

>  <ROCS_TanimotoCombo>  (254) 
0.637

>  <ROCS_ShapeTanimoto>  (254) 
0.235

>  <ROCS_ColorTanimoto>  (254) 
0.402

$$$$
EN300_15344
     RDKit          3D

 13 13  0  0  0  0  0  0  0  0999 V2000
   34.7964    9.8680    5.0992 N   0  0  0  0  0  0  0  0  0  0  0  0
   34.0551   10.9351    5.6114 C   0  0  0  0  0  0  0  0  0  0  0  0
   32.8284   10.7119    6.4786 C   0  0  0  0  0  0  0  0  0  0  0  0
   32.2787    9.3522    6.7070 C   0  0  0  0  0  0  0  0  0  0  0  0
   31.1443    9.2740    7.5299 C   0  0  0  0  0  0  0  0  0  0  0  0
   30.5903   10.4324    8.0742 C   0  0  0  0  0  0  0  0  0  0  0  0
   31.1210   11.7086    7.8481 C   0  0  0  0  0  0  0  0  0  0  0  0
   32.2427   11.8251    7.0564 C   0  0  0  0  0  0  0  0  0  0  0  0
   32.8973   13.0658    6.7765 C   0  0  0  0  0  0  0  0  0  0  0  0
   33.4835   13.7695    8.3455 S   0  0  0  0  0  6  0  0  0  0  0  0
   34.7192   14.7939    7.8149 N   0  0  0  0  0  0  0  0  0  0  0  0
   34.1226   12.7804    9.1270 O   0  0  0  0  0  0  0  0  0  0  0  0
   32.4396   14.5287    8.9941 O   0  0  0  0  0  0  0  0  0  0  0  0
  1  2  3  0
  2  3  1  0
  3  4  2  0
  4  5  1  0
  5  6  2  0
  6  7  1  0
  7  8  2  0
  8  9  1  0
  9 10  1  0
 10 11  1  0
 10 12  2  0
 10 13  2  0
  8  3  1  0
A    1
 N1 
A    2
 C1 
A    3
 C2 
A    4
 C3 
A    5
 C4 
A    6
 C5 
A    7
 C6 
A    8
 C7 
A    9
 C8 
A   10
 S1 
A   11
 N2 
A   12
 O1 
A   13
 O2 
M  END
>  <ref_pdb>  (255) 
Ax0310a

>  <ref_mols>  (255) 
Ax0446a,Ax1080a,Ax0812a,Ax0719a,Ax1140a,Ax0528a,Ax0310a

>  <original SMILES>  (255) 
N#Cc1ccccc1CS(N)(=O)=O

>  <rationale>  (255) 
info info set:sulfonimide_whole;hbond:S87+S105+G127+A86; 

>  <experiment>  (255) 
sulfonimide_whole

>  <cluster_label>  (255) 
5

>  <cluster_rank>  (255) 
25

>  <N_interactions>  (255) 
4

>  <∆∆G>  (255) 
-6.789392

>  <comRMSD>  (255) 
0.555434

>  <ROCS_TanimotoCombo>  (255) 
0.33

>  <ROCS_ShapeTanimoto>  (255) 
0.187

>  <ROCS_ColorTanimoto>  (255) 
0.143

$$$$
Z2472751875
     RDKit          3D

 23 25  0  0  0  0  0  0  0  0999 V2000
   28.2488   14.1592    7.1353 C   0  0  0  0  0  0  0  0  0  0  0  0
   29.4416   13.7484    6.2951 C   0  0  0  0  0  0  0  0  0  0  0  0
   29.5299   14.5403    5.0708 C   0  0  0  0  0  0  0  0  0  0  0  0
   30.6868   14.2920    4.1479 C   0  0  0  0  0  0  0  0  0  0  0  0
   31.8262   13.2641    4.3018 C   0  0  0  0  0  0  0  0  0  0  0  0
   31.4234   12.5218    5.6320 C   0  0  0  0  0  0  0  0  0  0  0  0
   32.2498   11.3333    5.8292 C   0  0  0  0  0  0  0  0  0  0  0  0
   31.4909   10.4555    6.6589 N   0  0  0  0  0  0  0  0  0  0  0  0
   32.0496    9.2478    6.8081 C   0  0  0  0  0  0  0  0  0  0  0  0
   31.2550    8.4315    7.5708 N   0  0  0  0  0  0  0  0  0  0  0  0
   30.2952    9.0899    8.3907 C   0  0  0  0  0  0  0  0  0  0  0  0
   30.7813    8.2876    9.4920 C   0  0  0  0  0  0  0  0  0  0  0  0
   28.8379    8.8035    8.4123 C   0  0  0  0  0  0  0  0  0  0  0  0
   30.4809   10.6006    8.2659 C   0  0  0  0  0  0  0  0  0  0  0  0
   29.3168   11.3370    8.6260 O   0  0  0  0  0  0  0  0  0  0  0  0
   33.1893    8.8806    6.2776 N   0  0  0  0  0  0  0  0  0  0  0  0
   33.8527    9.7524    5.5189 C   0  0  0  0  0  0  0  0  0  0  0  0
   35.1425    9.3211    4.8718 C   0  0  0  0  0  0  0  0  0  0  0  0
   35.8633   10.1993    4.0678 C   0  0  0  0  0  0  0  0  0  0  0  0
   35.3932   11.4730    3.8613 C   0  0  0  0  0  0  0  0  0  0  0  0
   34.2045   11.8989    4.4325 C   0  0  0  0  0  0  0  0  0  0  0  0
   33.4425   11.0454    5.2502 C   0  0  0  0  0  0  0  0  0  0  0  0
   30.3637   12.7724    6.5326 C   0  0  0  0  0  0  0  0  0  0  0  0
  1  2  1  0
  2  3  2  0
  3  4  1  0
  4  5  2  0
  5  6  1  0
  6  7  1  0
  7  8  2  0
  8  9  1  0
  9 10  1  0
 10 11  1  0
 11 12  1  0
 11 13  1  0
 11 14  1  0
 14 15  1  0
  9 16  2  0
 16 17  1  0
 17 18  2  0
 18 19  1  0
 19 20  2  0
 20 21  1  0
 21 22  2  0
  6 23  2  0
 23  2  1  0
 22  7  1  0
 22 17  1  0
A    1
 C1 
A    2
 C2 
A    3
 C3 
A    4
 C4 
A    5
 C5 
A    6
 C6 
A    7
 C7 
A    8
 N1 
A    9
 C8 
A   10
 N2 
A   11
 C9 
A   12
 C10
A   13
 C11
A   14
 C12
A   15
 O1 
A   16
 N3 
A   17
 C13
A   18
 C14
A   19
 C15
A   20
 C16
A   21
 C17
A   22
 C18
A   23
 C19
M  END
>  <ref_pdb>  (256) 
Ax0310a

>  <ref_mols>  (256) 
Ax0446a,Ax1080a,Ax0812a,Ax0719a,Ax1140a,Ax0528a,Ax0310a

>  <original SMILES>  (256) 
Cc1cccc(-c2nc(NC(C)(C)CO)nc3ccccc23)c1

>  <rationale>  (256) 
info info set:screening_pocket;hbond:S105+S125; hydroph_interaction:P107+E88; 

>  <experiment>  (256) 
screening_pocket

>  <cluster_label>  (256) 
12

>  <cluster_rank>  (256) 
25

>  <N_interactions>  (256) 
4

>  <∆∆G>  (256) 
-0.380483

>  <comRMSD>  (256) 
0.9856

>  <ROCS_TanimotoCombo>  (256) 
0.644

>  <ROCS_ShapeTanimoto>  (256) 
0.256

>  <ROCS_ColorTanimoto>  (256) 
0.389

$$$$
EN300_321134
     RDKit          3D

 12 12  0  0  0  0  0  0  0  0999 V2000
   28.4378   14.8359    9.5299 C   0  0  0  0  0  0  0  0  0  0  0  0
   29.0095   13.6545    9.1929 N   0  0  0  0  0  0  0  0  0  0  0  0
   30.3332   13.7262    8.1960 S   0  0  0  0  0  6  0  0  0  0  0  0
   31.2428   14.6062    8.8919 O   0  0  0  0  0  0  0  0  0  0  0  0
   29.7812   13.9069    6.8830 O   0  0  0  0  0  0  0  0  0  0  0  0
   31.0375   12.1402    8.2895 C   0  0  0  0  0  0  0  0  0  0  0  0
   30.6651   11.1826    7.2781 C   0  0  2  0  0  0  0  0  0  0  0  0
   30.7396    9.7917    7.9763 C   0  0  0  0  0  0  0  0  0  0  0  0
   31.9501    9.0130    7.6844 N   0  0  0  0  0  0  0  0  0  0  0  0
   32.6760    9.3675    6.4544 C   0  0  0  0  0  0  0  0  0  0  0  0
   32.7845   10.8662    6.2232 C   0  0  0  0  0  0  0  0  0  0  0  0
   31.4898   11.4224    6.1364 O   0  0  0  0  0  0  0  0  0  0  0  0
  1  2  1  0
  2  3  1  0
  3  4  2  0
  3  5  2  0
  3  6  1  0
  7  6  1  1
  7  8  1  0
  8  9  1  0
  9 10  1  0
 10 11  1  0
 11 12  1  0
 12  7  1  0
A    1
 C1 
A    2
 N1 
A    3
 S1 
A    4
 O1 
A    5
 O2 
A    6
 C2 
A    7
 C3 
A    8
 C4 
A    9
 N2 
A   10
 C5 
A   11
 C6 
A   12
 O3 
M  END
>  <ref_pdb>  (257) 
Ax0310a

>  <ref_mols>  (257) 
Ax0446a,Ax1080a,Ax0812a,Ax0719a,Ax1140a,Ax0528a,Ax0310a

>  <original SMILES>  (257) 
CNS(=O)(=O)C[C@@H]1CNCCO1

>  <rationale>  (257) 
info info set:sulfonimide_whole;hbond:S87+S105+H21; 

>  <experiment>  (257) 
sulfonimide_whole

>  <cluster_label>  (257) 
7

>  <cluster_rank>  (257) 
26

>  <N_interactions>  (257) 
3

>  <∆∆G>  (257) 
-1.84173

>  <comRMSD>  (257) 
0.609683

>  <ROCS_TanimotoCombo>  (257) 
0.333

>  <ROCS_ShapeTanimoto>  (257) 
0.164

>  <ROCS_ColorTanimoto>  (257) 
0.169

$$$$
Z1609890284
     RDKit          3D

 22 23  0  0  0  0  0  0  0  0999 V2000
   29.8878   14.1152    9.5821 C   0  0  0  0  0  0  0  0  0  0  0  0
   29.3358   14.5442    8.2661 C   0  0  0  0  0  0  0  0  0  0  0  0
   28.6552   15.6145    8.0599 N   0  0  0  0  0  0  0  0  0  0  0  0
   28.4314   15.5125    6.7337 O   0  0  0  0  0  0  0  0  0  0  0  0
   28.9511   14.4268    6.1121 C   0  0  0  0  0  0  0  0  0  0  0  0
   28.7717   14.2428    4.6367 C   0  0  0  0  0  0  0  0  0  0  0  0
   29.5623   13.7252    7.0176 C   0  0  0  0  0  0  0  0  0  0  0  0
   30.2033   12.5875    6.8123 N   0  0  0  0  0  0  0  0  0  0  0  0
   29.6383   11.5935    7.6578 C   0  0  0  0  0  0  0  0  0  0  0  0
   31.5493   12.6438    6.2953 C   0  0  0  0  0  0  0  0  0  0  0  0
   32.2796   13.5004    5.8186 O   0  0  0  0  0  0  0  0  0  0  0  0
   31.9613   11.2276    6.4721 C   0  0  0  0  0  0  0  0  0  0  0  0
   32.9393   10.7544    5.4353 C   0  0  0  0  0  0  0  0  0  0  0  0
   33.2925    9.2929    5.6609 C   0  0  0  0  0  0  0  0  0  0  0  0
   34.1672    8.6604    4.8323 O   0  0  0  0  0  0  0  0  0  0  0  0
   32.7798    8.5362    6.6694 N   0  0  0  0  0  0  0  0  0  0  0  0
   31.9200    9.0588    7.5593 C   0  0  0  0  0  0  0  0  0  0  0  0
   31.3329    8.3341    8.7841 C   0  0  0  0  0  0  0  0  0  0  0  0
   30.1237    7.8813    8.8352 C   0  0  0  0  0  0  0  0  0  0  0  0
   29.5459    8.8495    8.0156 C   0  0  0  0  0  0  0  0  0  0  0  0
   29.6429    8.2269   10.1444 C   0  0  0  0  0  0  0  0  0  0  0  0
   31.4678   10.4753    7.4806 C   0  0  0  0  0  0  0  0  0  0  0  0
  1  2  1  0
  2  3  2  0
  3  4  1  0
  4  5  1  0
  5  6  1  0
  5  7  2  0
  7  8  1  0
  8  9  1  0
  8 10  1  0
 10 11  2  0
 10 12  1  0
 12 13  2  0
 13 14  1  0
 14 15  1  0
 14 16  2  0
 16 17  1  0
 17 18  1  0
 18 19  1  0
 19 20  1  0
 19 21  1  0
 17 22  2  0
  7  2  1  0
 22 12  1  0
A    1
 C1 
A    2
 C2 
A    3
 N1 
A    4
 O1 
A    5
 C3 
A    6
 C4 
A    7
 C5 
A    8
 N2 
A    9
 C6 
A   10
 C7 
A   11
 O2 
A   12
 C8 
A   13
 C9 
A   14
 C10
A   15
 O3 
A   16
 N3 
A   17
 C11
A   18
 C12
A   19
 C13
A   20
 C14
A   21
 C15
A   22
 C16
M  END
>  <ref_pdb>  (258) 
Ax0310a

>  <ref_mols>  (258) 
Ax0446a,Ax1080a,Ax0812a,Ax0719a,Ax1140a,Ax0528a,Ax0310a

>  <original SMILES>  (258) 
Cc1noc(C)c1N(C)C(=O)c1cc(O)nc(CC(C)C)c1

>  <rationale>  (258) 
info info set:screening_pocket;hbond:S87; hydroph_interaction:P107+V124+E88; pistack:H21; 

>  <experiment>  (258) 
screening_pocket

>  <cluster_label>  (258) 
12

>  <cluster_rank>  (258) 
26

>  <N_interactions>  (258) 
6

>  <∆∆G>  (258) 
-1.240521

>  <comRMSD>  (258) 
0.88499

>  <ROCS_TanimotoCombo>  (258) 
0.636

>  <ROCS_ShapeTanimoto>  (258) 
0.231

>  <ROCS_ColorTanimoto>  (258) 
0.405

$$$$
EN300_42709
     RDKit          3D

 12 12  0  0  0  0  0  0  0  0999 V2000
   36.0173   14.0235    8.3270 C   0  0  0  0  0  0  0  0  0  0  0  0
   34.7337   14.6209    7.9538 N   0  0  0  0  0  0  0  0  0  0  0  0
   33.4040   13.6726    8.3201 S   0  0  0  0  0  6  0  0  0  0  0  0
   33.9902   12.6878    9.1347 O   0  0  0  0  0  0  0  0  0  0  0  0
   32.3266   14.4407    8.8988 O   0  0  0  0  0  0  0  0  0  0  0  0
   32.8939   12.9424    6.7448 C   0  0  0  0  0  0  0  0  0  0  0  0
   32.3945   11.6383    6.8713 C   0  0  0  0  0  0  0  0  0  0  0  0
   31.4771   11.2055    7.8811 C   0  0  0  0  0  0  0  0  0  0  0  0
   31.2398    9.8834    7.7215 C   0  0  0  0  0  0  0  0  0  0  0  0
   30.3472    8.9894    8.5998 C   0  0  0  0  0  0  0  0  0  0  0  0
   31.9511    9.4758    6.6323 O   0  0  0  0  0  0  0  0  0  0  0  0
   32.6772   10.5745    6.0946 N   0  0  0  0  0  0  0  0  0  0  0  0
  1  2  1  0
  2  3  1  0
  3  4  2  0
  3  5  2  0
  3  6  1  0
  6  7  1  0
  7  8  1  0
  8  9  2  0
  9 10  1  0
  9 11  1  0
 11 12  1  0
 12  7  2  0
A    1
 C1 
A    2
 N1 
A    3
 S1 
A    4
 O1 
A    5
 O2 
A    6
 C2 
A    7
 C3 
A    8
 C4 
A    9
 C5 
A   10
 C6 
A   11
 O3 
A   12
 N2 
M  END
>  <ref_pdb>  (259) 
Ax0310a

>  <ref_mols>  (259) 
Ax0446a,Ax1080a,Ax0812a,Ax0719a,Ax1140a,Ax0528a,Ax0310a

>  <original SMILES>  (259) 
CNS(=O)(=O)Cc1cc(C)on1

>  <rationale>  (259) 
info info set:sulfonimide_joint;hbond:S87+G127+A86; hydroph_interaction:V124; 

>  <experiment>  (259) 
sulfonimide_joint

>  <cluster_label>  (259) 
5

>  <cluster_rank>  (259) 
26

>  <N_interactions>  (259) 
4

>  <∆∆G>  (259) 
-7.537686

>  <comRMSD>  (259) 
0.507084

>  <ROCS_TanimotoCombo>  (259) 
0.303

>  <ROCS_ShapeTanimoto>  (259) 
0.153

>  <ROCS_ColorTanimoto>  (259) 
0.15

$$$$
EN300_26597100
     RDKit          3D

 18 20  0  0  0  0  0  0  0  0999 V2000
   32.0864   14.6779    9.5983 O   0  0  0  0  0  0  0  0  0  0  0  0
   30.8891   14.8418    9.7900 C   0  0  0  0  0  0  0  0  0  0  0  0
   29.8316   14.3962    8.8126 C   0  0  0  0  0  0  0  0  0  0  0  0
   28.3544   14.8239    9.0444 C   0  0  0  0  0  0  0  0  0  0  0  0
   27.4364   14.2983    7.9456 C   0  0  0  0  0  0  0  0  0  0  0  0
   27.7417   13.4467    6.7276 C   0  0  0  0  0  0  0  0  0  0  0  0
   29.0111   13.0882    6.5504 C   0  0  0  0  0  0  0  0  0  0  0  0
   30.0463   13.5268    7.5293 C   0  0  0  0  0  0  0  0  0  0  0  0
   31.3386   13.1629    7.3184 O   0  0  0  0  0  0  0  0  0  0  0  0
   31.5829   11.8248    7.2023 C   0  0  0  0  0  0  0  0  0  0  0  0
   30.7719   10.9577    7.8283 N   0  0  0  0  0  0  0  0  0  0  0  0
   31.0555    9.6543    7.6940 C   0  0  0  0  0  0  0  0  0  0  0  0
   32.0534    9.0889    6.9963 N   0  0  0  0  0  0  0  0  0  0  0  0
   32.8595    9.9561    6.3591 C   0  0  0  0  0  0  0  0  0  0  0  0
   34.1731    9.3888    5.4095 S   0  0  0  0  0  0  0  0  0  0  0  0
   34.6840   10.9658    4.9979 C   0  0  0  0  0  0  0  0  0  0  0  0
   33.7373   11.9504    5.6486 C   0  0  0  0  0  0  0  0  0  0  0  0
   32.7418   11.3317    6.3887 C   0  0  0  0  0  0  0  0  0  0  0  0
  1  2  2  0
  2  3  1  0
  3  4  2  0
  4  5  1  0
  5  6  2  0
  6  7  1  0
  7  8  2  0
  8  9  1  0
  9 10  1  0
 10 11  2  0
 11 12  1  0
 12 13  2  0
 13 14  1  0
 14 15  1  0
 15 16  1  0
 16 17  2  0
 17 18  1  0
  8  3  1  0
 18 10  1  0
 18 14  2  0
A    1
 O1 
A    2
 C1 
A    3
 C2 
A    4
 C3 
A    5
 C4 
A    6
 C5 
A    7
 C6 
A    8
 C7 
A    9
 O2 
A   10
 C8 
A   11
 N1 
A   12
 C9 
A   13
 N2 
A   14
 C10
A   15
 S1 
A   16
 C11
A   17
 C12
A   18
 C13
M  END
>  <ref_pdb>  (260) 
Ax0310a

>  <ref_mols>  (260) 
Ax0446a,Ax1080a,Ax0812a,Ax0719a,Ax1140a,Ax0528a,Ax0310a

>  <original SMILES>  (260) 
O=Cc1ccccc1Oc1ncnc2sccc12

>  <rationale>  (260) 
info info set:bb_whole;hbond:S87; hydroph_interaction:P107+Y89+Y90; 

>  <experiment>  (260) 
bb_whole

>  <cluster_label>  (260) 
3

>  <cluster_rank>  (260) 
26

>  <N_interactions>  (260) 
4

>  <∆∆G>  (260) 
-5.869225

>  <comRMSD>  (260) 
0.529395

>  <ROCS_TanimotoCombo>  (260) 
0.441

>  <ROCS_ShapeTanimoto>  (260) 
0.237

>  <ROCS_ColorTanimoto>  (260) 
0.204

$$$$
Z86322916
     RDKit          3D

 29 33  0  0  0  0  0  0  0  0999 V2000
   26.1777   13.5665    8.6786 C   0  0  0  0  0  0  0  0  0  0  0  0
   27.6211   13.5553    8.2621 C   0  0  0  0  0  0  0  0  0  0  0  0
   27.9737   12.9064    7.0977 C   0  0  0  0  0  0  0  0  0  0  0  0
   29.3752   12.8695    6.6773 C   0  0  0  0  0  0  0  0  0  0  0  0
   30.4176   13.5566    7.5471 C   0  0  0  0  0  0  0  0  0  0  0  0
   31.5883   13.4719    7.1056 O   0  0  0  0  0  0  0  0  0  0  0  0
   32.0749   12.2122    6.8475 C   0  0  0  0  0  0  0  0  0  0  0  0
   31.3502   11.3198    7.3762 N   0  0  0  0  0  0  0  0  0  0  0  0
   31.6701   10.0758    7.2188 C   0  0  0  0  0  0  0  0  0  0  0  0
   30.7907    9.4250    7.8688 C   0  0  0  0  0  0  0  0  0  0  0  0
   29.8049   10.2649    8.4616 C   0  0  0  0  0  0  0  0  0  0  0  0
   28.6673    9.9262    9.2247 C   0  0  0  0  0  0  0  0  0  0  0  0
   28.9401    8.4593    9.1124 C   0  0  0  0  0  0  0  0  0  0  0  0
   29.8246    7.6198    8.6068 N   0  0  0  0  0  0  0  0  0  0  0  0
   30.7749    8.1561    7.9789 C   0  0  0  0  0  0  0  0  0  0  0  0
   32.6200    9.4867    6.5780 N   0  0  0  0  0  0  0  0  0  0  0  0
   33.3657   10.4067    6.0428 C   0  0  0  0  0  0  0  0  0  0  0  0
   34.7117    9.9069    5.1307 S   0  0  0  0  0  0  0  0  0  0  0  0
   35.0999   11.5056    4.9050 C   0  0  0  0  0  0  0  0  0  0  0  0
   34.2315   12.4091    5.4592 C   0  0  0  0  0  0  0  0  0  0  0  0
   33.1882   11.7932    6.1368 C   0  0  0  0  0  0  0  0  0  0  0  0
   34.6720   13.7887    5.1816 C   0  0  0  0  0  0  0  0  0  0  0  0
   36.1832   13.5291    4.9145 C   0  0  0  0  0  0  0  0  0  0  0  0
   36.2279   12.1405    4.2100 C   0  0  0  0  0  0  0  0  0  0  0  0
   29.9555   14.1917    8.6984 C   0  0  0  0  0  0  0  0  0  0  0  0
   30.8848   14.8768    9.5681 N   0  0  0  0  0  4  0  0  0  0  0  0
   32.0689   14.5937    9.3490 O   0  0  0  0  0  0  0  0  0  0  0  0
   30.5131   15.9743    9.9869 O   0  0  0  0  0  1  0  0  0  0  0  0
   28.5921   14.1984    9.0604 C   0  0  0  0  0  0  0  0  0  0  0  0
  1  2  1  0
  2  3  2  0
  3  4  1  0
  4  5  2  0
  5  6  1  0
  6  7  1  0
  7  8  2  0
  8  9  1  0
  9 10  1  0
 10 11  2  0
 11 12  1  0
 12 13  2  0
 13 14  1  0
 14 15  2  0
  9 16  2  0
 16 17  1  0
 17 18  1  0
 18 19  1  0
 19 20  2  0
 20 21  1  0
 20 22  1  0
 22 23  1  0
 23 24  1  0
  5 25  1  0
 25 26  1  0
 26 27  2  0
 26 28  1  0
 25 29  2  0
 29  2  1  0
 21  7  1  0
 15 10  1  0
 21 17  2  0
 24 19  1  0
M  CHG  2  26   1  28  -1
A    1
 C1 
A    2
 C2 
A    3
 C3 
A    4
 C4 
A    5
 C5 
A    6
 O1 
A    7
 C6 
A    8
 N1 
A    9
 C7 
A   10
 C8 
A   11
 C9 
A   12
 C10
A   13
 C11
A   14
 N2 
A   15
 C12
A   16
 N3 
A   17
 C13
A   18
 S1 
A   19
 C14
A   20
 C15
A   21
 C16
A   22
 C17
A   23
 C18
A   24
 C19
A   25
 C20
A   26
 N4 
A   27
 O2 
A   28
 O3 
A   29
 C21
M  END
>  <ref_pdb>  (261) 
Ax0310a

>  <ref_mols>  (261) 
Ax0446a,Ax1080a,Ax0812a,Ax0719a,Ax1140a,Ax0528a,Ax0310a

>  <original SMILES>  (261) 
Cc1ccc(Oc2nc(-c3cccnc3)nc3sc4c(c23)CCC4)c([N+](=O)[O-])c1

>  <rationale>  (261) 
info info set:screening_whole;hbond:G127; hydroph_interaction:P107+Y89+H21; 

>  <experiment>  (261) 
screening_whole

>  <cluster_label>  (261) 
9

>  <cluster_rank>  (261) 
26

>  <N_interactions>  (261) 
4

>  <∆∆G>  (261) 
-5.020325

>  <comRMSD>  (261) 
0.928916

>  <ROCS_TanimotoCombo>  (261) 
0.467

>  <ROCS_ShapeTanimoto>  (261) 
0.275

>  <ROCS_ColorTanimoto>  (261) 
0.192

$$$$
Z2242847454
     RDKit          3D

 23 25  0  0  0  0  0  0  0  0999 V2000
   29.2048    9.6633    8.9935 C   0  0  0  0  0  0  0  0  0  0  0  0
   29.5954   10.9153    8.3540 N   0  0  0  0  0  0  0  0  0  0  0  0
   28.5595   11.7771    7.9765 C   0  0  0  0  0  0  0  0  0  0  0  0
   28.9183   13.1538    7.4725 C   0  0  2  0  0  0  0  0  0  0  0  0
   29.9735   13.6713    8.4052 C   0  0  0  0  0  0  0  0  0  0  0  0
   29.5776   14.8016    9.4057 C   0  0  1  0  0  0  0  0  0  0  0  0
   30.6933   15.5942    9.6592 O   0  0  0  0  0  0  0  0  0  0  0  0
   28.5316   15.3082    8.2838 C   0  0  0  0  0  0  0  0  0  0  0  0
   27.8907   14.1681    7.6378 N   0  0  0  0  0  0  0  0  0  0  0  0
   30.7129   10.8057    7.5997 C   0  0  0  0  0  0  0  0  0  0  0  0
   31.4014   11.7410    6.9404 N   0  0  0  0  0  0  0  0  0  0  0  0
   32.4754   11.2340    6.2574 C   0  0  0  0  0  0  0  0  0  0  0  0
   32.8963    9.8085    6.3156 C   0  0  0  0  0  0  0  0  0  0  0  0
   34.0900    9.7764    5.4101 C   0  0  0  0  0  0  0  0  0  0  0  0
   34.3619   10.9624    4.8850 N   0  0  0  0  0  0  0  0  0  0  0  0
   33.3979   11.8174    5.3921 N   0  0  0  0  0  0  0  0  0  0  0  0
   33.4417   13.2076    4.9869 C   0  0  0  0  0  0  0  0  0  0  0  0
   33.8133   13.9892    6.2072 C   0  0  0  0  0  0  0  0  0  0  0  0
   32.0819   13.6732    4.4117 C   0  0  0  0  0  0  0  0  0  0  0  0
   34.5066   13.4245    3.9026 C   0  0  0  0  0  0  0  0  0  0  0  0
   32.1517    8.9640    7.1152 C   0  0  0  0  0  0  0  0  0  0  0  0
   32.4373    7.8769    7.3807 O   0  0  0  0  0  0  0  0  0  0  0  0
   31.0428    9.4900    7.5980 N   0  0  0  0  0  0  0  0  0  0  0  0
  1  2  1  0
  2  3  1  0
  4  3  1  1
  4  5  1  0
  5  6  1  0
  6  7  1  6
  6  8  1  0
  8  9  1  0
  2 10  1  0
 10 11  2  0
 11 12  1  0
 12 13  2  0
 13 14  1  0
 14 15  2  0
 15 16  1  0
 16 17  1  0
 17 18  1  0
 17 19  1  0
 17 20  1  0
 13 21  1  0
 21 22  2  0
 21 23  1  0
  9  4  1  0
 23 10  1  0
 16 12  1  0
A    1
 C1 
A    2
 N1 
A    3
 C2 
A    4
 C3 
A    5
 C4 
A    6
 C5 
A    7
 O1 
A    8
 C6 
A    9
 N2 
A   10
 C7 
A   11
 N3 
A   12
 C8 
A   13
 C9 
A   14
 C10
A   15
 N4 
A   16
 N5 
A   17
 C11
A   18
 C12
A   19
 C13
A   20
 C14
A   21
 C15
A   22
 O2 
A   23
 N6 
M  END
>  <ref_pdb>  (262) 
Ax0310a

>  <ref_mols>  (262) 
Ax0446a,Ax1080a,Ax0812a,Ax0719a,Ax1140a,Ax0528a,Ax0310a

>  <original SMILES>  (262) 
CN(C[C@@H]1C[C@@H](O)CN1)c1nc2c(cnn2C(C)(C)C)c(=O)[nH]1

>  <rationale>  (262) 
info info set:screening_whole;hbond:S87+S105+G127+E88; hydroph_interaction:P107; 

>  <experiment>  (262) 
screening_whole

>  <cluster_label>  (262) 
8

>  <cluster_rank>  (262) 
26

>  <N_interactions>  (262) 
5

>  <∆∆G>  (262) 
-4.267414

>  <comRMSD>  (262) 
0.63981

>  <ROCS_TanimotoCombo>  (262) 
0.458

>  <ROCS_ShapeTanimoto>  (262) 
0.26

>  <ROCS_ColorTanimoto>  (262) 
0.198

$$$$
EN300_7548276
     RDKit          3D

 18 19  0  0  0  0  0  0  0  0999 V2000
   27.6028   13.8849    7.4360 C   0  0  0  0  0  0  0  0  0  0  0  0
   28.4385   14.3521    8.6008 C   0  0  0  0  0  0  0  0  0  0  0  0
   27.9056   14.3150   10.0803 C   0  0  0  0  0  0  0  0  0  0  0  0
   28.7847   15.8093    8.3481 C   0  0  0  0  0  0  0  0  0  0  0  0
   29.6903   13.6784    8.5234 O   0  0  0  0  0  0  0  0  0  0  0  0
   29.8261   12.6175    7.7031 C   0  0  0  0  0  0  0  0  0  0  0  0
   29.7305   12.7219    6.4906 O   0  0  0  0  0  0  0  0  0  0  0  0
   30.0756   11.4390    8.3057 N   0  0  0  0  0  0  0  0  0  0  0  0
   31.1442   10.7663    7.8418 C   0  0  2  0  0  0  0  0  0  0  0  0
   32.3653   11.5031    7.4534 C   0  0  0  0  0  0  0  0  0  0  0  0
   32.8293   10.2527    6.7208 C   0  0  1  0  0  0  0  0  0  0  0  0
   33.5490   10.2564    5.3652 C   0  0  0  0  0  0  0  0  0  0  0  0
   34.9328   10.5692    5.4896 O   0  0  0  0  0  0  0  0  0  0  0  0
   31.5132   10.8871    6.3017 C   0  0  0  0  0  0  0  0  0  0  0  0
   32.2305    8.9280    7.1178 O   0  0  0  0  0  0  0  0  0  0  0  0
   31.1091    9.3230    7.9485 C   0  0  0  0  0  0  0  0  0  0  0  0
   31.1549    8.4707    9.1443 C   0  0  0  0  0  0  0  0  0  0  0  0
   29.8275    8.5629    8.1501 C   0  0  0  0  0  0  0  0  0  0  0  0
  1  2  1  0
  2  3  1  0
  2  4  1  0
  2  5  1  0
  5  6  1  0
  6  7  2  0
  6  8  1  0
  9  8  1  6
  9 10  1  0
 10 11  1  0
 11 12  1  6
 12 13  1  0
 11 14  1  0
 11 15  1  0
 15 16  1  0
 16 17  1  0
 16 18  1  0
 14  9  1  0
 16  9  1  0
A    1
 C1 
A    2
 C2 
A    3
 C3 
A    4
 C4 
A    5
 O1 
A    6
 C5 
A    7
 O2 
A    8
 N1 
A    9
 C6 
A   10
 C7 
A   11
 C8 
A   12
 C9 
A   13
 O3 
A   14
 C10
A   15
 O4 
A   16
 C11
A   17
 C12
A   18
 C13
M  END
>  <ref_pdb>  (263) 
Ax0310a

>  <ref_mols>  (263) 
Ax0446a,Ax1080a,Ax0812a,Ax0719a,Ax1140a,Ax0528a,Ax0310a

>  <original SMILES>  (263) 
CC(C)(C)OC(=O)N[C@]12C[C@](CO)(C1)OC2(C)C

>  <rationale>  (263) 
info info set:bb_whole;hbond:S125; hydroph_interaction:P107+Y89+Y90+V124; 

>  <experiment>  (263) 
bb_whole

>  <cluster_label>  (263) 
3

>  <cluster_rank>  (263) 
27

>  <N_interactions>  (263) 
6

>  <∆∆G>  (263) 
-6.527391

>  <comRMSD>  (263) 
0.788107

>  <ROCS_TanimotoCombo>  (263) 
0.429

>  <ROCS_ShapeTanimoto>  (263) 
0.231

>  <ROCS_ColorTanimoto>  (263) 
0.198

$$$$
EN300_88110
     RDKit          3D

 19 20  0  0  0  0  0  0  0  0999 V2000
   27.3332   15.3217    9.2552 C   0  0  0  0  0  0  0  0  0  0  0  0
   28.5113   14.5712    8.6857 C   0  0  0  0  0  0  0  0  0  0  0  0
   29.7526   14.7807    9.5700 C   0  0  0  0  0  0  0  0  0  0  0  0
   28.5974   15.0972    7.2712 C   0  0  0  0  0  0  0  0  0  0  0  0
   28.2286   13.2054    8.4513 O   0  0  0  0  0  0  0  0  0  0  0  0
   29.0835   12.6620    7.6103 C   0  0  0  0  0  0  0  0  0  0  0  0
   28.9627   12.5953    6.4051 O   0  0  0  0  0  0  0  0  0  0  0  0
   30.0925   12.2432    8.3268 N   0  0  0  0  0  0  0  0  0  0  0  0
   31.1748   11.5302    7.7545 C   0  0  1  0  0  0  0  0  0  0  0  0
   31.0579   10.1638    8.1278 C   0  0  0  0  0  0  0  0  0  0  0  0
   31.9645    9.2547    7.3504 C   0  0  0  0  0  0  0  0  0  0  0  0
   32.9322    9.8435    6.4848 C   0  0  0  0  0  0  0  0  0  0  0  0
   33.2069   11.3926    6.5610 C   0  0  1  0  0  0  0  0  0  0  0  0
   34.4966   11.8785    5.9057 C   0  0  0  0  0  0  0  0  0  0  0  0
   34.8843   13.0295    5.8609 O   0  0  0  0  0  0  0  0  0  0  0  0
   35.2173   10.9028    5.3308 O   0  0  0  0  0  0  0  0  0  0  0  0
   32.2503   12.0060    5.6459 C   0  0  0  0  0  0  0  0  0  0  0  0
   31.0218   11.4404    6.2758 C   0  0  0  0  0  0  0  0  0  0  0  0
   32.5517   12.2207    7.6987 C   0  0  0  0  0  0  0  0  0  0  0  0
  1  2  1  0
  2  3  1  0
  2  4  1  0
  2  5  1  0
  5  6  1  0
  6  7  2  0
  6  8  1  0
  9  8  1  1
  9 10  1  0
 10 11  1  0
 11 12  1  0
 12 13  1  0
 13 14  1  6
 14 15  2  0
 14 16  1  0
 13 17  1  0
 17 18  1  0
 13 19  1  0
 18  9  1  0
 19  9  1  0
A    1
 C1 
A    2
 C2 
A    3
 C3 
A    4
 C4 
A    5
 O1 
A    6
 C5 
A    7
 O2 
A    8
 N1 
A    9
 C6 
A   10
 C7 
A   11
 C8 
A   12
 C9 
A   13
 C10
A   14
 C11
A   15
 O3 
A   16
 O4 
A   17
 C12
A   18
 C13
A   19
 C14
M  END
>  <ref_pdb>  (264) 
Ax0310a

>  <ref_mols>  (264) 
Ax0446a,Ax1080a,Ax0812a,Ax0719a,Ax1140a,Ax0528a,Ax0310a

>  <original SMILES>  (264) 
CC(C)(C)OC(=O)N[C@@]12CCC[C@@](C(=O)O)(CC1)C2

>  <rationale>  (264) 
info info set:bb_whole;hbond:S125; hydroph_interaction:P107+Y90+H21; 

>  <experiment>  (264) 
bb_whole

>  <cluster_label>  (264) 
9

>  <cluster_rank>  (264) 
27

>  <N_interactions>  (264) 
5

>  <∆∆G>  (264) 
-1.771926

>  <comRMSD>  (264) 
0.844862

>  <ROCS_TanimotoCombo>  (264) 
0.418

>  <ROCS_ShapeTanimoto>  (264) 
0.235

>  <ROCS_ColorTanimoto>  (264) 
0.183

$$$$
Z392517650
     RDKit          3D

 14 14  0  0  0  0  0  0  0  0999 V2000
   28.6022   15.4767    7.1690 N   0  0  0  0  0  0  0  0  0  0  0  0
   28.3934   15.0127    8.5240 C   0  0  0  0  0  0  0  0  0  0  0  0
   29.6247   15.1111    9.4425 C   0  0  0  0  0  0  0  0  0  0  0  0
   30.8257   13.9469    9.4078 S   0  0  0  0  0  0  0  0  0  0  0  0
   29.6959   12.9466    8.5940 C   0  0  0  0  0  0  0  0  0  0  0  0
   30.1548   11.6887    8.2521 C   0  0  0  0  0  0  0  0  0  0  0  0
   30.2003   10.6583    8.9112 O   0  0  0  0  0  0  0  0  0  0  0  0
   30.6130   11.7483    7.0131 N   0  0  0  0  0  0  0  0  0  0  0  0
   31.6278   10.9729    6.5615 C   0  0  0  0  0  0  0  0  0  0  0  0
   32.6921   11.4861    5.5891 C   0  0  0  0  0  0  0  0  0  0  0  0
   33.7083   10.4490    5.2124 C   0  0  0  0  0  0  0  0  0  0  0  0
   33.5246    9.0787    5.8538 C   0  0  0  0  0  0  0  0  0  0  0  0
   32.5469    8.7139    6.7161 N   0  0  0  0  0  0  0  0  0  0  0  0
   31.6515    9.6565    7.0334 C   0  0  0  0  0  0  0  0  0  0  0  0
  1  2  3  0
  2  3  1  0
  3  4  1  0
  4  5  1  0
  5  6  1  0
  6  7  2  0
  6  8  1  0
  8  9  1  0
  9 10  2  0
 10 11  1  0
 11 12  2  0
 12 13  1  0
 13 14  2  0
 14  9  1  0
A    1
 N1 
A    2
 C1 
A    3
 C2 
A    4
 S1 
A    5
 C3 
A    6
 C4 
A    7
 O1 
A    8
 N2 
A    9
 C5 
A   10
 C6 
A   11
 C7 
A   12
 C8 
A   13
 N3 
A   14
 C9 
M  END
>  <ref_pdb>  (265) 
Ax0310a

>  <ref_mols>  (265) 
Ax0446a,Ax1080a,Ax0812a,Ax0719a,Ax1140a,Ax0528a,Ax0310a

>  <original SMILES>  (265) 
N#CCSCC(=O)Nc1cccnc1

>  <rationale>  (265) 
info info set:screening_pocket;hbond:E88; hydroph_interaction:P107; 

>  <experiment>  (265) 
screening_pocket

>  <cluster_label>  (265) 
8

>  <cluster_rank>  (265) 
27

>  <N_interactions>  (265) 
2

>  <∆∆G>  (265) 
-1.649161

>  <comRMSD>  (265) 
0.915079

>  <ROCS_TanimotoCombo>  (265) 
0.665

>  <ROCS_ShapeTanimoto>  (265) 
0.194

>  <ROCS_ColorTanimoto>  (265) 
0.471

$$$$
EN300_1120771
     RDKit          3D

 14 14  0  0  0  0  0  0  0  0999 V2000
   34.9325   10.3044    4.9424 N   0  0  0  0  0  0  0  0  0  0  0  0
   33.9840   10.3748    5.6068 C   0  0  0  0  0  0  0  0  0  0  0  0
   32.8736   10.4932    6.4480 C   0  0  0  0  0  0  0  0  0  0  0  0
   32.1725    9.3914    6.9383 C   0  0  0  0  0  0  0  0  0  0  0  0
   31.0837    9.6099    7.7954 C   0  0  0  0  0  0  0  0  0  0  0  0
   30.1458    8.2011    8.5520 Br  0  0  0  0  0  0  0  0  0  0  0  0
   30.6625   10.8851    8.1438 C   0  0  0  0  0  0  0  0  0  0  0  0
   31.3376   11.9597    7.6764 C   0  0  0  0  0  0  0  0  0  0  0  0
   32.4147   11.7266    6.8680 C   0  0  0  0  0  0  0  0  0  0  0  0
   32.8677   13.1528    6.6587 C   0  0  0  0  0  0  0  0  0  0  0  0
   33.4670   13.7792    8.2672 S   0  0  0  0  0  6  0  0  0  0  0  0
   34.7313   14.7955    7.7941 N   0  0  0  0  0  0  0  0  0  0  0  0
   32.4178   14.5045    8.9500 O   0  0  0  0  0  0  0  0  0  0  0  0
   34.0848   12.7514    9.0249 O   0  0  0  0  0  0  0  0  0  0  0  0
  1  2  3  0
  2  3  1  0
  3  4  2  0
  4  5  1  0
  5  6  1  0
  5  7  2  0
  7  8  1  0
  8  9  2  0
  9 10  1  0
 10 11  1  0
 11 12  1  0
 11 13  2  0
 11 14  2  0
  9  3  1  0
A    1
 N1 
A    2
 C1 
A    3
 C2 
A    4
 C3 
A    5
 C4 
A    6
BR1 
A    7
 C5 
A    8
 C6 
A    9
 C7 
A   10
 C8 
A   11
 S1 
A   12
 N2 
A   13
 O1 
A   14
 O2 
M  END
>  <ref_pdb>  (266) 
Ax0310a

>  <ref_mols>  (266) 
Ax0446a,Ax1080a,Ax0812a,Ax0719a,Ax1140a,Ax0528a,Ax0310a

>  <original SMILES>  (266) 
N#Cc1cc(Br)ccc1CS(N)(=O)=O

>  <rationale>  (266) 
info info set:sulfonimide_whole;hbond:S87+G127+A86; 

>  <experiment>  (266) 
sulfonimide_whole

>  <cluster_label>  (266) 
5

>  <cluster_rank>  (266) 
27

>  <N_interactions>  (266) 
3

>  <∆∆G>  (266) 
-5.74798

>  <comRMSD>  (266) 
0.62517

>  <ROCS_TanimotoCombo>  (266) 
0.331

>  <ROCS_ShapeTanimoto>  (266) 
0.191

>  <ROCS_ColorTanimoto>  (266) 
0.14

$$$$
EN300_7506818
     RDKit          3D

 16 16  0  0  0  0  0  0  0  0999 V2000
   32.4315   13.8706    5.5931 N   0  0  0  0  0  0  0  0  0  0  0  0
   33.4416   13.0849    6.6478 S   0  0  0  0  0  6  0  0  0  0  0  0
   34.5522   12.6434    5.8589 O   0  0  0  0  0  0  0  0  0  0  0  0
   33.6035   13.8499    7.8694 O   0  0  0  0  0  0  0  0  0  0  0  0
   32.3522   11.7802    7.0402 C   0  0  0  0  0  0  0  0  0  0  0  0
   32.9238   10.4336    6.7867 C   0  0  0  0  0  0  0  0  0  0  0  0
   32.0539    9.3090    7.1711 C   0  0  0  0  0  0  0  0  0  0  0  0
   32.4482    8.1017    7.0174 F   0  0  0  0  0  0  0  0  0  0  0  0
   30.7025    9.6353    7.7606 C   0  0  0  0  0  0  0  0  0  0  0  0
   30.3361   10.9482    7.8914 C   0  0  0  0  0  0  0  0  0  0  0  0
   31.1185   12.0088    7.5435 C   0  0  0  0  0  0  0  0  0  0  0  0
   30.5823   13.2512    7.7511 O   0  0  0  0  0  0  0  0  0  0  0  0
   29.1309   13.1783    7.6828 C   0  0  0  0  0  0  0  0  0  0  0  0
   28.6635   14.4126    7.4218 F   0  0  0  0  0  0  0  0  0  0  0  0
   28.6532   12.3563    6.7349 F   0  0  0  0  0  0  0  0  0  0  0  0
   28.6335   12.8332    8.8680 F   0  0  0  0  0  0  0  0  0  0  0  0
  1  2  1  0
  2  3  2  0
  2  4  2  0
  2  5  1  0
  5  6  2  0
  6  7  1  0
  7  8  1  0
  7  9  2  0
  9 10  1  0
 10 11  2  0
 11 12  1  0
 12 13  1  0
 13 14  1  0
 13 15  1  0
 13 16  1  0
 11  5  1  0
A    1
 N1 
A    2
 S1 
A    3
 O1 
A    4
 O2 
A    5
 C1 
A    6
 C2 
A    7
 C3 
A    8
 F1 
A    9
 C4 
A   10
 C5 
A   11
 C6 
A   12
 O3 
A   13
 C7 
A   14
 F2 
A   15
 F3 
A   16
 F4 
M  END
>  <ref_pdb>  (267) 
Ax0310a

>  <ref_mols>  (267) 
Ax0446a,Ax1080a,Ax0812a,Ax0719a,Ax1140a,Ax0528a,Ax0310a

>  <original SMILES>  (267) 
NS(=O)(=O)c1cc(F)ccc1OC(F)(F)F

>  <rationale>  (267) 
info info set:sulfonimide_whole;halogenbond:E88+P107; hbond:S87+G127; 

>  <experiment>  (267) 
sulfonimide_whole

>  <cluster_label>  (267) 
7

>  <cluster_rank>  (267) 
27

>  <N_interactions>  (267) 
4

>  <∆∆G>  (267) 
-0.163645

>  <comRMSD>  (267) 
0.94653

>  <ROCS_TanimotoCombo>  (267) 
0.329

>  <ROCS_ShapeTanimoto>  (267) 
0.205

>  <ROCS_ColorTanimoto>  (267) 
0.124

$$$$
Z3363177539
     RDKit          3D

 16 17  0  0  0  0  0  0  0  0999 V2000
   29.6334    8.4146    8.4646 C   0  0  0  0  0  0  0  0  0  0  0  0
   30.8856    9.1549    8.5503 C   0  0  0  0  0  0  0  0  0  0  0  0
   31.6534    9.5147    7.4689 C   0  0  0  0  0  0  0  0  0  0  0  0
   32.3330    8.5622    6.8743 N   0  0  0  0  0  0  0  0  0  0  0  0
   33.0275    9.1702    5.8484 O   0  0  0  0  0  0  0  0  0  0  0  0
   32.7528   10.4904    5.8468 C   0  0  0  0  0  0  0  0  0  0  0  0
   33.3854   11.2715    4.8707 C   0  0  0  0  0  0  0  0  0  0  0  0
   31.8772   10.7744    6.8480 C   0  0  0  0  0  0  0  0  0  0  0  0
   31.3744   12.0330    7.1338 C   0  0  0  0  0  0  0  0  0  0  0  0
   30.7451   12.0040    8.4135 N   0  0  0  0  0  0  0  0  0  0  0  0
   30.7065   13.3572    8.9292 C   0  0  0  0  0  0  0  0  0  0  0  0
   29.5273   13.8301    8.2589 C   0  0  0  0  0  0  0  0  0  0  0  0
   28.9626   15.0518    8.3301 C   0  0  0  0  0  0  0  0  0  0  0  0
   27.8996   15.2215    7.6180 N   0  0  0  0  0  0  0  0  0  0  0  0
   27.5580   13.8238    6.7858 S   0  0  0  0  0  0  0  0  0  0  0  0
   28.8376   12.9915    7.4203 C   0  0  0  0  0  0  0  0  0  0  0  0
  1  2  1  0
  2  3  1  0
  3  4  2  0
  4  5  1  0
  5  6  1  0
  6  7  1  0
  6  8  2  0
  8  9  1  0
  9 10  1  0
 10 11  1  0
 11 12  1  0
 12 13  1  0
 13 14  2  0
 14 15  1  0
 15 16  1  0
  8  3  1  0
 16 12  2  0
A    1
 C1 
A    2
 C2 
A    3
 C3 
A    4
 N1 
A    5
 O1 
A    6
 C4 
A    7
 C5 
A    8
 C6 
A    9
 C7 
A   10
 N2 
A   11
 C8 
A   12
 C9 
A   13
 C10
A   14
 N3 
A   15
 S1 
A   16
 C11
M  END
>  <ref_pdb>  (268) 
Ax0310a

>  <ref_mols>  (268) 
Ax0446a,Ax1080a,Ax0812a,Ax0719a,Ax1140a,Ax0528a,Ax0310a

>  <original SMILES>  (268) 
CCc1noc(C)c1CNCc1cnsc1

>  <rationale>  (268) 
info info set:screening_pocket;hbond:G127; hydroph_interaction:P107+V124; pication:H21; 

>  <experiment>  (268) 
screening_pocket

>  <cluster_label>  (268) 
12

>  <cluster_rank>  (268) 
27

>  <N_interactions>  (268) 
4

>  <∆∆G>  (268) 
-2.974935

>  <comRMSD>  (268) 
0.674077

>  <ROCS_TanimotoCombo>  (268) 
0.628

>  <ROCS_ShapeTanimoto>  (268) 
0.227

>  <ROCS_ColorTanimoto>  (268) 
0.401

$$$$
Z1537081226
     RDKit          3D

 19 21  0  0  0  0  0  0  0  0999 V2000
   34.5011    8.9483    4.2532 C   0  0  0  0  0  0  0  0  0  0  0  0
   33.9726    8.5712    5.4205 N   0  0  0  0  0  0  0  0  0  0  0  0
   33.0990    9.4244    6.1843 C   0  0  0  0  0  0  0  0  0  0  0  0
   33.3233   10.9240    6.0207 C   0  0  0  0  0  0  0  0  0  0  0  0
   32.3855   11.7223    6.8925 C   0  0  0  0  0  0  0  0  0  0  0  0
   31.3978   11.0237    7.7563 C   0  0  0  0  0  0  0  0  0  0  0  0
   30.5852   11.9051    8.5448 N   0  0  0  0  0  0  0  0  0  0  0  0
   29.6884   12.8216    8.1650 C   0  0  0  0  0  0  0  0  0  0  0  0
   28.7405   13.3371    8.9610 N   0  0  0  0  0  0  0  0  0  0  0  0
   27.8865   14.2140    8.4553 C   0  0  0  0  0  0  0  0  0  0  0  0
   27.8397   14.6438    7.2111 N   0  0  0  0  0  0  0  0  0  0  0  0
   28.7986   14.1306    6.4391 C   0  0  0  0  0  0  0  0  0  0  0  0
   28.9059   14.5368    4.8340 S   0  0  0  0  0  0  0  0  0  0  0  0
   30.2576   13.7258    4.3990 C   0  0  0  0  0  0  0  0  0  0  0  0
   30.8853   13.7609    3.0152 C   0  0  0  0  0  0  0  0  0  0  0  0
   30.6915   12.9829    5.6060 C   0  0  0  0  0  0  0  0  0  0  0  0
   29.7655   13.2668    6.7786 C   0  0  0  0  0  0  0  0  0  0  0  0
   31.3639    9.6344    7.7280 C   0  0  0  0  0  0  0  0  0  0  0  0
   32.1767    8.8436    6.9849 N   0  0  0  0  0  0  0  0  0  0  0  0
  1  2  1  0
  2  3  1  0
  3  4  2  0
  4  5  1  0
  5  6  2  0
  6  7  1  0
  7  8  1  0
  8  9  2  0
  9 10  1  0
 10 11  2  0
 11 12  1  0
 12 13  1  0
 13 14  1  0
 14 15  1  0
 14 16  2  0
 16 17  1  0
  6 18  1  0
 18 19  2  0
 19  3  1  0
 17  8  1  0
 17 12  2  0
A    1
 C1 
A    2
 N1 
A    3
 C2 
A    4
 C3 
A    5
 C4 
A    6
 C5 
A    7
 N2 
A    8
 C6 
A    9
 N3 
A   10
 C7 
A   11
 N4 
A   12
 C8 
A   13
 S1 
A   14
 C9 
A   15
 C10
A   16
 C11
A   17
 C12
A   18
 C13
A   19
 N5 
M  END
>  <ref_pdb>  (269) 
Ax0310a

>  <ref_mols>  (269) 
Ax0446a,Ax1080a,Ax0812a,Ax0719a,Ax1140a,Ax0528a,Ax0310a

>  <original SMILES>  (269) 
CNc1ccc(Nc2ncnc3sc(C)cc23)cn1

>  <rationale>  (269) 
info info set:screening_pocket;hbond:S105+S125+G127; hydroph_interaction:E88; 

>  <experiment>  (269) 
screening_pocket

>  <cluster_label>  (269) 
12

>  <cluster_rank>  (269) 
28

>  <N_interactions>  (269) 
4

>  <∆∆G>  (269) 
-3.154988

>  <comRMSD>  (269) 
0.780559

>  <ROCS_TanimotoCombo>  (269) 
0.624

>  <ROCS_ShapeTanimoto>  (269) 
0.22

>  <ROCS_ColorTanimoto>  (269) 
0.404

$$$$
Z1416749754
     RDKit          3D

 16 17  0  0  0  0  0  0  0  0999 V2000
   27.7657   15.5616    9.4240 N   0  0  0  0  0  0  0  0  0  0  0  0
   28.2952   14.9124    8.3383 C   0  0  0  0  0  0  0  0  0  0  0  0
   27.5050   14.7121    7.1902 O   0  0  0  0  0  0  0  0  0  0  0  0
   29.7365   14.4238    8.3398 C   0  0  0  0  0  0  0  0  0  0  0  0
   30.7263   14.8028    9.4427 C   0  0  0  0  0  0  0  0  0  0  0  0
   31.9213   14.2627    9.1580 N   0  0  0  0  0  0  0  0  0  0  0  0
   31.7040   13.5993    7.9758 N   0  0  0  0  0  0  0  0  0  0  0  0
   32.7522   12.9040    7.2901 C   0  0  0  0  0  0  0  0  0  0  0  0
   32.3474   11.6058    7.2570 C   0  0  0  0  0  0  0  0  0  0  0  0
   33.1695   10.7530    6.2946 C   0  0  0  0  0  0  0  0  0  0  0  0
   32.8311    9.4089    6.2478 C   0  0  0  0  0  0  0  0  0  0  0  0
   31.6870    8.9830    7.1728 C   0  0  0  0  0  0  0  0  0  0  0  0
   30.9819    9.8249    8.0033 C   0  0  0  0  0  0  0  0  0  0  0  0
   30.0090    9.3359    8.7585 F   0  0  0  0  0  0  0  0  0  0  0  0
   31.3015   11.1454    8.0457 C   0  0  0  0  0  0  0  0  0  0  0  0
   30.4320   13.6477    7.4791 C   0  0  0  0  0  0  0  0  0  0  0  0
  1  2  1  0
  2  3  2  0
  2  4  1  0
  4  5  1  0
  5  6  2  0
  6  7  1  0
  7  8  1  0
  8  9  1  0
  9 10  2  0
 10 11  1  0
 11 12  2  0
 12 13  1  0
 13 14  1  0
 13 15  2  0
  7 16  1  0
 16  4  2  0
 15  9  1  0
A    1
 N1 
A    2
 C1 
A    3
 O1 
A    4
 C2 
A    5
 C3 
A    6
 N2 
A    7
 N3 
A    8
 C4 
A    9
 C5 
A   10
 C6 
A   11
 C7 
A   12
 C8 
A   13
 C9 
A   14
 F1 
A   15
 C10
A   16
 C11
M  END
>  <ref_pdb>  (270) 
Ax0310a

>  <ref_mols>  (270) 
Ax0446a,Ax1080a,Ax0812a,Ax0719a,Ax1140a,Ax0528a,Ax0310a

>  <original SMILES>  (270) 
NC(=O)c1cnn(Cc2cccc(F)c2)c1

>  <rationale>  (270) 
info info set:3d;hbond:S87+H21; 

>  <experiment>  (270) 
3d

>  <cluster_label>  (270) 
7

>  <cluster_rank>  (270) 
28

>  <N_interactions>  (270) 
2

>  <∆∆G>  (270) 
-2.967069

>  <comRMSD>  (270) 
0.811785

>  <ROCS_TanimotoCombo>  (270) 
0.295

>  <ROCS_ShapeTanimoto>  (270) 
0.193

>  <ROCS_ColorTanimoto>  (270) 
0.102

$$$$
EN300_2005216
     RDKit          3D

 12 12  0  0  0  0  0  0  0  0999 V2000
   34.8029   14.7559    7.8444 N   0  0  0  0  0  0  0  0  0  0  0  0
   33.5455   13.8649    8.5200 S   0  0  0  0  0  6  0  0  0  0  0  0
   34.2194   12.8336    9.2027 O   0  0  0  0  0  0  0  0  0  0  0  0
   32.6528   14.7669    9.2122 O   0  0  0  0  0  0  0  0  0  0  0  0
   32.7493   13.1989    7.0731 C   0  0  0  0  0  0  0  0  0  0  0  0
   31.2286   13.2955    7.1481 C   0  0  0  0  0  0  0  0  0  0  0  0
   30.4044   12.1607    7.5822 C   0  0  0  0  0  0  0  0  0  0  0  0
   31.1320   10.9750    7.2576 N   0  0  0  0  0  0  0  0  0  0  0  0
   31.1038    9.8177    7.9684 C   0  0  0  0  0  0  0  0  0  0  0  0
   31.9877    8.6777    7.4077 C   0  0  0  0  0  0  0  0  0  0  0  0
   32.3892    9.6730    6.2744 C   0  0  0  0  0  0  0  0  0  0  0  0
   31.9327   10.9126    6.1825 N   0  0  0  0  0  0  0  0  0  0  0  0
  1  2  1  0
  2  3  2  0
  2  4  2  0
  2  5  1  0
  5  6  1  0
  6  7  1  0
  7  8  1  0
  8  9  1  0
  9 10  2  0
 10 11  1  0
 11 12  2  0
 12  8  1  0
A    1
 N1 
A    2
 S1 
A    3
 O1 
A    4
 O2 
A    5
 C1 
A    6
 C2 
A    7
 C3 
A    8
 N2 
A    9
 C4 
A   10
 C5 
A   11
 C6 
A   12
 N3 
M  END
>  <ref_pdb>  (271) 
Ax0310a

>  <ref_mols>  (271) 
Ax0446a,Ax1080a,Ax0812a,Ax0719a,Ax1140a,Ax0528a,Ax0310a

>  <original SMILES>  (271) 
NS(=O)(=O)CCCn1cccn1

>  <rationale>  (271) 
info info set:sulfonimide_joint;hbond:S87+G127+A86; 

>  <experiment>  (271) 
sulfonimide_joint

>  <cluster_label>  (271) 
5

>  <cluster_rank>  (271) 
28

>  <N_interactions>  (271) 
3

>  <∆∆G>  (271) 
-4.255096

>  <comRMSD>  (271) 
0.697569

>  <ROCS_TanimotoCombo>  (271) 
0.313

>  <ROCS_ShapeTanimoto>  (271) 
0.152

>  <ROCS_ColorTanimoto>  (271) 
0.161

$$$$
Z1753973188
     RDKit          3D

 28 32  0  0  0  0  0  0  0  0999 V2000
   28.4848   16.1740    8.6997 C   0  0  0  0  0  0  0  0  0  0  0  0
   28.3162   15.5294    7.4770 O   0  0  0  0  0  0  0  0  0  0  0  0
   27.8473   14.2992    7.6947 C   0  0  2  0  0  0  0  0  0  0  0  0
   28.5309   13.7425    8.9557 C   0  0  0  0  0  0  0  0  0  0  0  0
   29.8192   13.1620    8.3798 C   0  0  2  0  0  0  0  0  0  0  0  0
   31.0908   13.8844    8.9011 C   0  0  0  0  0  0  0  0  0  0  0  0
   31.1957   15.0403    9.6740 N   0  0  0  0  0  0  0  0  0  0  0  0
   32.5381   15.2925    9.8717 N   0  0  0  0  0  0  0  0  0  0  0  0
   33.0947   14.1956    9.1482 C   0  0  0  0  0  0  0  0  0  0  0  0
   34.6271   14.0627    9.0670 C   0  0  0  0  0  0  0  0  0  0  0  0
   32.1864   13.3599    8.5791 O   0  0  0  0  0  0  0  0  0  0  0  0
   29.7399   13.2650    6.9820 N   0  0  0  0  0  0  0  0  0  0  0  0
   30.7422   12.8979    6.1677 C   0  0  0  0  0  0  0  0  0  0  0  0
   31.1282   13.5679    4.9751 O   0  0  0  0  0  0  0  0  0  0  0  0
   31.4413   11.6244    6.4383 C   0  0  0  0  0  0  0  0  0  0  0  0
   30.8025   10.6684    7.3541 C   0  0  0  0  0  0  0  0  0  0  0  0
   31.5449    9.3916    7.4865 C   0  0  0  0  0  0  0  0  0  0  0  0
   31.1621    8.3931    8.2545 C   0  0  0  0  0  0  0  0  0  0  0  0
   29.8448    7.9238    8.4816 C   0  0  0  0  0  0  0  0  0  0  0  0
   30.3047    8.7568    9.5497 C   0  0  0  0  0  0  0  0  0  0  0  0
   32.6626    9.1849    6.8348 N   0  0  0  0  0  0  0  0  0  0  0  0
   33.2053   10.0929    6.0665 C   0  0  0  0  0  0  0  0  0  0  0  0
   34.3968    9.7438    5.4823 C   0  0  0  0  0  0  0  0  0  0  0  0
   35.0738   10.6267    4.6734 C   0  0  0  0  0  0  0  0  0  0  0  0
   34.5336   11.8704    4.4416 C   0  0  0  0  0  0  0  0  0  0  0  0
   33.3219   12.2142    5.0158 C   0  0  0  0  0  0  0  0  0  0  0  0
   32.6564   11.3434    5.8263 C   0  0  0  0  0  0  0  0  0  0  0  0
   28.3389   13.3490    6.6216 C   0  0  0  0  0  0  0  0  0  0  0  0
  1  2  1  0
  3  2  1  6
  3  4  1  0
  4  5  1  0
  5  6  1  1
  6  7  2  0
  7  8  1  0
  8  9  2  0
  9 10  1  0
  9 11  1  0
  5 12  1  0
 12 13  1  0
 13 14  2  0
 13 15  1  0
 15 16  2  0
 16 17  1  0
 17 18  1  0
 18 19  1  0
 19 20  1  0
 17 21  2  0
 21 22  1  0
 22 23  2  0
 23 24  1  0
 24 25  2  0
 25 26  1  0
 26 27  2  0
 12 28  1  0
 28  3  1  0
 11  6  1  0
 27 15  1  0
 20 18  1  0
 27 22  1  0
A    1
 C1 
A    2
 O1 
A    3
 C2 
A    4
 C3 
A    5
 C4 
A    6
 C5 
A    7
 N1 
A    8
 N2 
A    9
 C6 
A   10
 C7 
A   11
 O2 
A   12
 N3 
A   13
 C8 
A   14
 O3 
A   15
 C9 
A   16
 C10
A   17
 C11
A   18
 C12
A   19
 C13
A   20
 C14
A   21
 N4 
A   22
 C15
A   23
 C16
A   24
 C17
A   25
 C18
A   26
 C19
A   27
 C20
A   28
 C21
M  END
>  <ref_pdb>  (272) 
Ax0310a

>  <ref_mols>  (272) 
Ax0446a,Ax1080a,Ax0812a,Ax0719a,Ax1140a,Ax0528a,Ax0310a

>  <original SMILES>  (272) 
CO[C@@H]1C[C@H](c2nnc(C)o2)N(C(=O)c2cc(C3CC3)nc3ccccc23)C1

>  <rationale>  (272) 
info info set:screening_whole;hbond:S87+E88; hydroph_interaction:P107+V124+D109; 

>  <experiment>  (272) 
screening_whole

>  <cluster_label>  (272) 
8

>  <cluster_rank>  (272) 
28

>  <N_interactions>  (272) 
5

>  <∆∆G>  (272) 
-6.160231

>  <comRMSD>  (272) 
0.867035

>  <ROCS_TanimotoCombo>  (272) 
0.458

>  <ROCS_ShapeTanimoto>  (272) 
0.274

>  <ROCS_ColorTanimoto>  (272) 
0.184

$$$$
EN300_6508393
     RDKit          3D

 18 18  0  0  0  0  0  0  0  0999 V2000
   29.0726    8.7431    8.0867 C   0  0  0  0  0  0  0  0  0  0  0  0
   29.9191    8.3304    9.0892 C   0  0  0  0  0  0  0  0  0  0  0  0
   29.3083    8.6406   10.2409 C   0  0  0  0  0  0  0  0  0  0  0  0
   29.9100    6.9401    9.1691 C   0  0  0  0  0  0  0  0  0  0  0  0
   31.1927    8.8325    8.7723 O   0  0  0  0  0  0  0  0  0  0  0  0
   31.0006   10.0530    8.2590 C   0  0  0  0  0  0  0  0  0  0  0  0
   30.2376   10.8743    8.6892 O   0  0  0  0  0  0  0  0  0  0  0  0
   31.8281   10.3423    7.0994 C   0  0  0  0  0  0  0  0  0  0  0  0
   32.7119    9.3984    6.5765 C   0  0  0  0  0  0  0  0  0  0  0  0
   33.5200    9.7090    5.4903 C   0  0  0  0  0  0  0  0  0  0  0  0
   34.4185    8.7842    4.9636 N   0  0  0  0  0  0  0  0  0  0  0  0
   33.4206   10.9724    4.9324 C   0  0  0  0  0  0  0  0  0  0  0  0
   32.5235   11.9083    5.4437 C   0  0  0  0  0  0  0  0  0  0  0  0
   31.7063   11.5979    6.5340 C   0  0  0  0  0  0  0  0  0  0  0  0
   30.7239   12.6114    7.0558 C   0  0  0  0  0  0  0  0  0  0  0  0
   29.4974   12.1092    7.3654 F   0  0  0  0  0  0  0  0  0  0  0  0
   31.1618   13.3336    8.1163 F   0  0  0  0  0  0  0  0  0  0  0  0
   30.4147   13.4965    6.0709 F   0  0  0  0  0  0  0  0  0  0  0  0
  1  2  1  0
  2  3  1  0
  2  4  1  0
  2  5  1  0
  5  6  1  0
  6  7  2  0
  6  8  1  0
  8  9  2  0
  9 10  1  0
 10 11  1  0
 10 12  2  0
 12 13  1  0
 13 14  2  0
 14 15  1  0
 15 16  1  0
 15 17  1  0
 15 18  1  0
 14  8  1  0
A    1
 C1 
A    2
 C2 
A    3
 C3 
A    4
 C4 
A    5
 O1 
A    6
 C5 
A    7
 O2 
A    8
 C6 
A    9
 C7 
A   10
 C8 
A   11
 N1 
A   12
 C9 
A   13
 C10
A   14
 C11
A   15
 C12
A   16
 F1 
A   17
 F2 
A   18
 F3 
M  END
>  <ref_pdb>  (273) 
Ax0310a

>  <ref_mols>  (273) 
Ax0446a,Ax1080a,Ax0812a,Ax0719a,Ax1140a,Ax0528a,Ax0310a

>  <original SMILES>  (273) 
CC(C)(C)OC(=O)c1cc(N)ccc1C(F)(F)F

>  <rationale>  (273) 
info info set:bb_densepocket2;hbond:S105; hydroph_interaction:P107+V124+D109; 

>  <experiment>  (273) 
bb_densepocket2

>  <cluster_label>  (273) 
3

>  <cluster_rank>  (273) 
28

>  <N_interactions>  (273) 
5

>  <∆∆G>  (273) 
-2.687518

>  <comRMSD>  (273) 
0.434892

>  <ROCS_TanimotoCombo>  (273) 
0.645

>  <ROCS_ShapeTanimoto>  (273) 
0.261

>  <ROCS_ColorTanimoto>  (273) 
0.385

$$$$
Z3079948286
     RDKit          3D

 19 21  0  0  0  0  0  0  0  0999 V2000
   34.3892    9.5204    3.0619 C   0  0  0  0  0  0  0  0  0  0  0  0
   34.9814    9.2403    4.4523 C   0  0  0  0  0  0  0  0  0  0  0  0
   34.1804    8.7549    5.4027 N   0  0  0  0  0  0  0  0  0  0  0  0
   33.2555    9.4843    6.0617 C   0  0  0  0  0  0  0  0  0  0  0  0
   33.2863   11.0004    5.9151 C   0  0  0  0  0  0  0  0  0  0  0  0
   32.2106   11.7466    6.7143 C   0  0  0  0  0  0  0  0  0  0  0  0
   31.2636   10.9236    7.5340 C   0  0  0  0  0  0  0  0  0  0  0  0
   30.2713   11.5342    8.2708 N   0  0  0  0  0  0  0  0  0  0  0  0
   29.6341   12.6828    7.8023 C   0  0  0  0  0  0  0  0  0  0  0  0
   29.7999   12.9798    6.4772 N   0  0  0  0  0  0  0  0  0  0  0  0
   29.1329   14.1862    5.9649 C   0  0  0  0  0  0  0  0  0  0  0  0
   28.4068   15.0200    6.6829 N   0  0  0  0  0  0  0  0  0  0  0  0
   28.2678   14.7362    7.9094 C   0  0  0  0  0  0  0  0  0  0  0  0
   28.8663   13.5290    8.5812 C   0  0  0  0  0  0  0  0  0  0  0  0
   28.4548   13.6286    9.8549 C   0  0  0  0  0  0  0  0  0  0  0  0
   27.7843   14.7262   10.0744 C   0  0  0  0  0  0  0  0  0  0  0  0
   27.5086   15.5066    8.9418 C   0  0  0  0  0  0  0  0  0  0  0  0
   31.4122    9.5456    7.5241 C   0  0  0  0  0  0  0  0  0  0  0  0
   32.3402    8.8452    6.8421 N   0  0  0  0  0  0  0  0  0  0  0  0
  1  2  1  0
  2  3  1  0
  3  4  1  0
  4  5  2  0
  5  6  1  0
  6  7  2  0
  7  8  1  0
  8  9  1  0
  9 10  2  0
 10 11  1  0
 11 12  2  0
 12 13  1  0
 13 14  2  0
 14 15  1  0
 15 16  1  0
 16 17  1  0
  7 18  1  0
 18 19  2  0
 19  4  1  0
 14  9  1  0
 17 13  1  0
A    1
 C1 
A    2
 C2 
A    3
 N1 
A    4
 C3 
A    5
 C4 
A    6
 C5 
A    7
 C6 
A    8
 N2 
A    9
 C7 
A   10
 N3 
A   11
 C8 
A   12
 N4 
A   13
 C9 
A   14
 C10
A   15
 C11
A   16
 C12
A   17
 C13
A   18
 C14
A   19
 N5 
M  END
>  <ref_pdb>  (274) 
Ax0310a

>  <ref_mols>  (274) 
Ax0446a,Ax1080a,Ax0812a,Ax0719a,Ax1140a,Ax0528a,Ax0310a

>  <original SMILES>  (274) 
CCNc1ccc(Nc2ncnc3c2CCC3)cn1

>  <rationale>  (274) 
info info set:screening_pocket;hbond:S105+S125; hydroph_interaction:Y89+Y90+H21; pistack:H21; 

>  <experiment>  (274) 
screening_pocket

>  <cluster_label>  (274) 
9

>  <cluster_rank>  (274) 
28

>  <N_interactions>  (274) 
7

>  <∆∆G>  (274) 
-2.145545

>  <comRMSD>  (274) 
0.55895

>  <ROCS_TanimotoCombo>  (274) 
0.637

>  <ROCS_ShapeTanimoto>  (274) 
0.235

>  <ROCS_ColorTanimoto>  (274) 
0.402

$$$$
Z31209614
     RDKit          3D

 25 28  0  0  0  0  0  0  0  0999 V2000
   32.1649   14.4709    9.1780 O   0  0  0  0  0  0  0  0  0  0  0  0
   31.0089   14.7867    9.4802 N   0  0  0  0  0  4  0  0  0  0  0  0
   30.7260   15.7846   10.1608 O   0  0  0  0  0  1  0  0  0  0  0  0
   29.9549   14.3070    8.6003 C   0  0  0  0  0  0  0  0  0  0  0  0
   28.5590   14.6093    8.9919 C   0  0  0  0  0  0  0  0  0  0  0  0
   27.5402   14.1014    8.0266 C   0  0  0  0  0  0  0  0  0  0  0  0
   27.8820   13.4048    6.8931 C   0  0  0  0  0  0  0  0  0  0  0  0
   29.2185   13.1552    6.5872 C   0  0  0  0  0  0  0  0  0  0  0  0
   30.2454   13.6024    7.4217 C   0  0  0  0  0  0  0  0  0  0  0  0
   31.5459   13.3446    7.0156 O   0  0  0  0  0  0  0  0  0  0  0  0
   31.9476   12.0378    6.8651 C   0  0  0  0  0  0  0  0  0  0  0  0
   31.2410   11.1546    7.4755 N   0  0  0  0  0  0  0  0  0  0  0  0
   31.6791    9.9402    7.3035 C   0  0  0  0  0  0  0  0  0  0  0  0
   30.9278    9.0988    8.0139 C   0  0  0  0  0  0  0  0  0  0  0  0
   30.7906    7.8449    8.0431 C   0  0  0  0  0  0  0  0  0  0  0  0
   29.8352    7.3510    8.9582 C   0  0  0  0  0  0  0  0  0  0  0  0
   29.3174    8.3543    9.6225 C   0  0  0  0  0  0  0  0  0  0  0  0
   29.9887    9.7921    9.0775 S   0  0  0  0  0  0  0  0  0  0  0  0
   32.6631    9.4630    6.6211 N   0  0  0  0  0  0  0  0  0  0  0  0
   33.3662   10.3624    6.0199 C   0  0  0  0  0  0  0  0  0  0  0  0
   34.4486    9.9201    5.2894 C   0  0  0  0  0  0  0  0  0  0  0  0
   35.2650   10.8213    4.6352 C   0  0  0  0  0  0  0  0  0  0  0  0
   34.9855   12.1812    4.7105 C   0  0  0  0  0  0  0  0  0  0  0  0
   33.8916   12.6390    5.4350 C   0  0  0  0  0  0  0  0  0  0  0  0
   33.0697   11.7230    6.1002 C   0  0  0  0  0  0  0  0  0  0  0  0
  1  2  2  0
  2  3  1  0
  2  4  1  0
  4  5  2  0
  5  6  1  0
  6  7  2  0
  7  8  1  0
  8  9  2  0
  9 10  1  0
 10 11  1  0
 11 12  2  0
 12 13  1  0
 13 14  1  0
 14 15  2  0
 15 16  1  0
 16 17  2  0
 17 18  1  0
 13 19  2  0
 19 20  1  0
 20 21  2  0
 21 22  1  0
 22 23  2  0
 23 24  1  0
 24 25  2  0
  9  4  1  0
 25 11  1  0
 18 14  1  0
 25 20  1  0
M  CHG  2   2   1   3  -1
A    1
 O1 
A    2
 N1 
A    3
 O2 
A    4
 C1 
A    5
 C2 
A    6
 C3 
A    7
 C4 
A    8
 C5 
A    9
 C6 
A   10
 O3 
A   11
 C7 
A   12
 N2 
A   13
 C8 
A   14
 C9 
A   15
 C10
A   16
 C11
A   17
 C12
A   18
 S1 
A   19
 N3 
A   20
 C13
A   21
 C14
A   22
 C15
A   23
 C16
A   24
 C17
A   25
 C18
M  END
>  <ref_pdb>  (275) 
Ax0310a

>  <ref_mols>  (275) 
Ax0446a,Ax1080a,Ax0812a,Ax0719a,Ax1140a,Ax0528a,Ax0310a

>  <original SMILES>  (275) 
O=[N+]([O-])c1ccccc1Oc1nc(-c2cccs2)nc2ccccc12

>  <rationale>  (275) 
info info set:screening_whole;hbond:G127; hydroph_interaction:P107+Y90+V124+D109; pistack:H21; 

>  <experiment>  (275) 
screening_whole

>  <cluster_label>  (275) 
3

>  <cluster_rank>  (275) 
29

>  <N_interactions>  (275) 
6

>  <∆∆G>  (275) 
-3.171112

>  <comRMSD>  (275) 
0.88881

>  <ROCS_TanimotoCombo>  (275) 
0.474

>  <ROCS_ShapeTanimoto>  (275) 
0.275

>  <ROCS_ColorTanimoto>  (275) 
0.199

$$$$
EN300_27183
     RDKit          3D

 16 16  0  0  0  0  0  0  0  0999 V2000
   31.5209   14.1944    9.0378 N   0  0  0  0  0  0  0  0  0  0  0  0
   30.1880   14.5931    9.2155 C   0  0  0  0  0  0  0  0  0  0  0  0
   29.1247   14.4260    8.1294 C   0  0  0  0  0  0  0  0  0  0  0  0
   29.4739   13.5834    7.1255 O   0  0  0  0  0  0  0  0  0  0  0  0
   29.7652   12.4280    7.7498 C   0  0  0  0  0  0  0  0  0  0  0  0
   29.1143   12.0818    8.6680 O   0  0  0  0  0  0  0  0  0  0  0  0
   30.9314   11.5758    7.2575 C   0  0  0  0  0  0  0  0  0  0  0  0
   30.6756   10.2005    7.8392 C   0  0  0  0  0  0  0  0  0  0  0  0
   31.6964    9.1239    7.4498 C   0  0  0  0  0  0  0  0  0  0  0  0
   32.8623    9.5973    6.5214 C   0  0  0  0  0  0  0  0  0  0  0  0
   32.8608   10.9524    6.1519 C   0  0  0  0  0  0  0  0  0  0  0  0
   34.1309   11.5133    5.1640 S   0  0  0  0  0  6  0  0  0  0  0  0
   33.5522   11.4899    3.5866 N   0  0  0  0  0  0  0  0  0  0  0  0
   34.3125   12.9111    5.4803 O   0  0  0  0  0  0  0  0  0  0  0  0
   35.2156   10.5691    5.2202 O   0  0  0  0  0  0  0  0  0  0  0  0
   31.9616   11.9589    6.4668 C   0  0  0  0  0  0  0  0  0  0  0  0
  1  2  3  0
  2  3  1  0
  3  4  1  0
  4  5  1  0
  5  6  2  0
  5  7  1  0
  7  8  2  0
  8  9  1  0
  9 10  2  0
 10 11  1  0
 11 12  1  0
 12 13  1  0
 12 14  2  0
 12 15  2  0
 11 16  2  0
 16  7  1  0
A    1
 N1 
A    2
 C1 
A    3
 C2 
A    4
 O1 
A    5
 C3 
A    6
 O2 
A    7
 C4 
A    8
 C5 
A    9
 C6 
A   10
 C7 
A   11
 C8 
A   12
 S1 
A   13
 N2 
A   14
 O3 
A   15
 O4 
A   16
 C9 
M  END
>  <ref_pdb>  (276) 
Ax0310a

>  <ref_mols>  (276) 
Ax0446a,Ax1080a,Ax0812a,Ax0719a,Ax1140a,Ax0528a,Ax0310a

>  <original SMILES>  (276) 
N#CCOC(=O)c1cccc(S(N)(=O)=O)c1

>  <rationale>  (276) 
info info set:sulfonimide_whole;hbond:S87; hydroph_interaction:P107; saltbridge:H21; 

>  <experiment>  (276) 
sulfonimide_whole

>  <cluster_label>  (276) 
9

>  <cluster_rank>  (276) 
29

>  <N_interactions>  (276) 
4

>  <∆∆G>  (276) 
-3.252887

>  <comRMSD>  (276) 
0.574013

>  <ROCS_TanimotoCombo>  (276) 
0.351

>  <ROCS_ShapeTanimoto>  (276) 
0.217

>  <ROCS_ColorTanimoto>  (276) 
0.133

$$$$
Z1951386268
     RDKit          3D

 16 17  0  0  0  0  0  0  0  0999 V2000
   28.4713   15.6351    7.4208 N   0  0  0  0  0  0  0  0  0  0  0  0
   28.9112   14.5500    8.0459 C   0  0  0  0  0  0  0  0  0  0  0  0
   29.5104   13.3620    8.7374 C   0  0  0  0  0  0  0  0  0  0  0  0
   30.4666   12.7522    8.0547 N   0  0  0  0  0  0  0  0  0  0  0  0
   30.6596   11.4169    8.1146 C   0  0  0  0  0  0  0  0  0  0  0  0
   30.1526   10.6091    8.8600 O   0  0  0  0  0  0  0  0  0  0  0  0
   31.6088   10.6807    7.2031 C   0  0  0  0  0  0  0  0  0  0  0  0
   31.6697    9.1890    7.4595 C   0  0  0  0  0  0  0  0  0  0  0  0
   32.4727    8.7058    6.6559 O   0  0  0  0  0  0  0  0  0  0  0  0
   32.9889    9.7100    5.8484 C   0  0  0  0  0  0  0  0  0  0  0  0
   34.0122    9.4919    4.7275 C   0  0  0  0  0  0  0  0  0  0  0  0
   34.3974   10.8088    3.9815 C   0  0  0  0  0  0  0  0  0  0  0  0
   35.2651   10.8312    2.9659 F   0  0  0  0  0  0  0  0  0  0  0  0
   33.7188   12.0887    4.4831 C   0  0  0  0  0  0  0  0  0  0  0  0
   32.8232   12.1224    5.5091 C   0  0  0  0  0  0  0  0  0  0  0  0
   32.4644   10.9772    6.1683 C   0  0  0  0  0  0  0  0  0  0  0  0
  1  2  3  0
  2  3  1  0
  3  4  1  0
  4  5  1  0
  5  6  2  0
  5  7  1  0
  7  8  2  0
  8  9  1  0
  9 10  1  0
 10 11  2  0
 11 12  1  0
 12 13  1  0
 12 14  2  0
 14 15  1  0
 15 16  2  0
 16  7  1  0
 16 10  1  0
A    1
 N1 
A    2
 C1 
A    3
 C2 
A    4
 N2 
A    5
 C3 
A    6
 O1 
A    7
 C4 
A    8
 C5 
A    9
 O2 
A   10
 C6 
A   11
 C7 
A   12
 C8 
A   13
 F1 
A   14
 C9 
A   15
 C10
A   16
 C11
M  END
>  <ref_pdb>  (277) 
Ax0310a

>  <ref_mols>  (277) 
Ax0446a,Ax1080a,Ax0812a,Ax0719a,Ax1140a,Ax0528a,Ax0310a

>  <original SMILES>  (277) 
N#CCNC(=O)c1coc2cc(F)ccc12

>  <rationale>  (277) 
info info set:screening_pocket;hbond:S87+E88; hydroph_interaction:P107; 

>  <experiment>  (277) 
screening_pocket

>  <cluster_label>  (277) 
8

>  <cluster_rank>  (277) 
29

>  <N_interactions>  (277) 
4

>  <∆∆G>  (277) 
-4.612948

>  <comRMSD>  (277) 
0.422568

>  <ROCS_TanimotoCombo>  (277) 
0.628

>  <ROCS_ShapeTanimoto>  (277) 
0.247

>  <ROCS_ColorTanimoto>  (277) 
0.381

$$$$
EN300_281983
     RDKit          3D

 11 11  0  0  0  0  0  0  0  0999 V2000
   30.3663    9.5575    8.2923 C   0  0  0  0  0  0  0  0  0  0  0  0
   31.6761    9.7004    7.8980 C   0  0  1  0  0  0  0  0  0  0  0  0
   32.1663    9.6724    6.6343 C   0  0  0  0  0  0  0  0  0  0  0  0
   31.9337   10.8788    6.0577 C   0  0  0  0  0  0  0  0  0  0  0  0
   32.0452   11.8749    7.1179 C   0  0  2  0  0  0  0  0  0  0  0  0
   33.1724   12.8530    6.9689 C   0  0  0  0  0  0  0  0  0  0  0  0
   33.6116   13.7203    8.4401 S   0  0  0  0  0  6  0  0  0  0  0  0
   34.8004   14.7116    7.8001 N   0  0  0  0  0  0  0  0  0  0  0  0
   32.5065   14.4953    8.9453 O   0  0  0  0  0  0  0  0  0  0  0  0
   34.2925   12.8404    9.3030 O   0  0  0  0  0  0  0  0  0  0  0  0
   32.1024   11.0611    8.2938 O   0  0  0  0  0  0  0  0  0  0  0  0
  2  1  1  6
  2  3  1  0
  3  4  1  0
  4  5  1  0
  5  6  1  6
  6  7  1  0
  7  8  1  0
  7  9  2  0
  7 10  2  0
  5 11  1  0
 11  2  1  0
A    1
 C1 
A    2
 C2 
A    3
 C3 
A    4
 C4 
A    5
 C5 
A    6
 C6 
A    7
 S1 
A    8
 N1 
A    9
 O1 
A   10
 O2 
A   11
 O3 
M  END
>  <ref_pdb>  (278) 
Ax0310a

>  <ref_mols>  (278) 
Ax0446a,Ax1080a,Ax0812a,Ax0719a,Ax1140a,Ax0528a,Ax0310a

>  <original SMILES>  (278) 
C[C@H]1CC[C@H](CS(N)(=O)=O)O1

>  <rationale>  (278) 
info info set:sulfonimide_joint;hbond:S87+G127+A86; hydroph_interaction:P107; 

>  <experiment>  (278) 
sulfonimide_joint

>  <cluster_label>  (278) 
5

>  <cluster_rank>  (278) 
29

>  <N_interactions>  (278) 
4

>  <∆∆G>  (278) 
-2.914651

>  <comRMSD>  (278) 
0.660255

>  <ROCS_TanimotoCombo>  (278) 
0.305

>  <ROCS_ShapeTanimoto>  (278) 
0.146

>  <ROCS_ColorTanimoto>  (278) 
0.159

$$$$
Z1669791937
     RDKit          3D

 18 19  0  0  0  0  0  0  0  0999 V2000
   25.8197   12.9189    5.7533 C   0  0  0  0  0  0  0  0  0  0  0  0
   26.9853   13.3567    6.5971 C   0  0  0  0  0  0  0  0  0  0  0  0
   27.3774   14.7117    6.9626 C   0  0  0  0  0  0  0  0  0  0  0  0
   28.4579   14.8359    7.7105 N   0  0  0  0  0  0  0  0  0  0  0  0
   28.7089   13.5569    7.8131 C   0  0  0  0  0  0  0  0  0  0  0  0
   29.7997   12.9365    8.5567 C   0  0  0  0  0  0  0  0  0  0  0  0
   30.6264   12.5862    7.7747 O   0  0  0  0  0  0  0  0  0  0  0  0
   30.7814   11.2912    8.0480 C   0  0  0  0  0  0  0  0  0  0  0  0
   30.2246   10.6365    8.8828 O   0  0  0  0  0  0  0  0  0  0  0  0
   31.7811   10.6283    7.1758 C   0  0  0  0  0  0  0  0  0  0  0  0
   32.6580   11.5606    6.3859 C   0  0  0  0  0  0  0  0  0  0  0  0
   32.5135   12.9500    6.4954 C   0  0  0  0  0  0  0  0  0  0  0  0
   33.5869   10.9338    5.5701 C   0  0  0  0  0  0  0  0  0  0  0  0
   33.6124    9.5280    5.5724 C   0  0  0  0  0  0  0  0  0  0  0  0
   32.7986    8.7324    6.3127 N   0  0  0  0  0  0  0  0  0  0  0  0
   31.9038    9.3018    7.0968 C   0  0  0  0  0  0  0  0  0  0  0  0
   31.1309    8.4457    7.8112 O   0  0  0  0  0  0  0  0  0  0  0  0
   27.8907   12.6076    7.1814 O   0  0  0  0  0  0  0  0  0  0  0  0
  1  2  1  0
  2  3  2  0
  3  4  1  0
  4  5  2  0
  5  6  1  0
  6  7  1  0
  7  8  1  0
  8  9  2  0
  8 10  1  0
 10 11  2  0
 11 12  1  0
 11 13  1  0
 13 14  2  0
 14 15  1  0
 15 16  2  0
 16 17  1  0
  5 18  1  0
 18  2  1  0
 16 10  1  0
A    1
 C1 
A    2
 C2 
A    3
 C3 
A    4
 N1 
A    5
 C4 
A    6
 C5 
A    7
 O1 
A    8
 C6 
A    9
 O2 
A   10
 C7 
A   11
 C8 
A   12
 C9 
A   13
 C10
A   14
 C11
A   15
 N2 
A   16
 C12
A   17
 O3 
A   18
 O4 
M  END
>  <ref_pdb>  (279) 
Ax0310a

>  <ref_mols>  (279) 
Ax0446a,Ax1080a,Ax0812a,Ax0719a,Ax1140a,Ax0528a,Ax0310a

>  <original SMILES>  (279) 
Cc1cnc(COC(=O)c2c(C)ccnc2O)o1

>  <rationale>  (279) 
info info set:screening_pocket;hbond:S87; hydroph_interaction:Y89; pication:H21; 

>  <experiment>  (279) 
screening_pocket

>  <cluster_label>  (279) 
12

>  <cluster_rank>  (279) 
29

>  <N_interactions>  (279) 
3

>  <∆∆G>  (279) 
-3.299133

>  <comRMSD>  (279) 
0.92871

>  <ROCS_TanimotoCombo>  (279) 
0.628

>  <ROCS_ShapeTanimoto>  (279) 
0.236

>  <ROCS_ColorTanimoto>  (279) 
0.392

$$$$
Z2140875110
     RDKit          3D

 20 21  0  0  0  0  0  0  0  0999 V2000
   29.7238    8.4678    8.6942 C   0  0  0  0  0  0  0  0  0  0  0  0
   31.0713    8.3428    8.1894 C   0  0  0  0  0  0  0  0  0  0  0  0
   31.8068    9.2896    7.2862 C   0  0  0  0  0  0  0  0  0  0  0  0
   32.7794    8.7128    6.5460 N   0  0  0  0  0  0  0  0  0  0  0  0
   33.3128    9.6724    5.8104 C   0  0  0  0  0  0  0  0  0  0  0  0
   32.6767   11.2495    5.9955 S   0  0  0  0  0  0  0  0  0  0  0  0
   31.5964   10.6105    7.1446 C   0  0  0  0  0  0  0  0  0  0  0  0
   30.6108   11.3787    7.8441 C   0  0  0  0  0  0  0  0  0  0  0  0
   30.0424   10.8777    8.7638 O   0  0  0  0  0  0  0  0  0  0  0  0
   30.3161   12.6449    7.4252 N   0  0  0  0  0  0  0  0  0  0  0  0
   29.2926   13.3615    8.1352 C   0  0  0  0  0  0  0  0  0  0  0  0
   28.0599   13.3236    7.4667 C   0  0  0  0  0  0  0  0  0  0  0  0
   27.2571   12.0720    7.1614 C   0  0  0  0  0  0  0  0  0  0  0  0
   25.8754   11.8123    6.4731 C   0  0  0  0  0  0  0  0  0  0  0  0
   24.7311   10.6279    6.0370 Cl  0  0  0  0  0  0  0  0  0  0  0  0
   25.5811   13.1512    6.1276 C   0  0  0  0  0  0  0  0  0  0  0  0
   26.1212   14.3248    6.2783 C   0  0  0  0  0  0  0  0  0  0  0  0
   24.9411   15.2389    5.4764 Cl  0  0  0  0  0  0  0  0  0  0  0  0
   27.4477   14.5808    7.0104 C   0  0  0  0  0  0  0  0  0  0  0  0
   28.0986   15.7537    7.2657 O   0  0  0  0  0  0  0  0  0  0  0  0
  1  2  1  0
  2  3  1  0
  3  4  1  0
  4  5  2  0
  5  6  1  0
  6  7  1  0
  7  8  1  0
  8  9  2  0
  8 10  1  0
 10 11  1  0
 11 12  1  0
 12 13  2  0
 13 14  1  0
 14 15  1  0
 14 16  2  0
 16 17  1  0
 17 18  1  0
 17 19  2  0
 19 20  1  0
  7  3  2  0
 19 12  1  0
A    1
 C1 
A    2
 C2 
A    3
 C3 
A    4
 N1 
A    5
 C4 
A    6
 S1 
A    7
 C5 
A    8
 C6 
A    9
 O1 
A   10
 N2 
A   11
 C7 
A   12
 C8 
A   13
 C9 
A   14
 C10
A   15
CL1 
A   16
 C11
A   17
 C12
A   18
CL2 
A   19
 C13
A   20
 O2 
M  END
>  <ref_pdb>  (280) 
Ax0310a

>  <ref_mols>  (280) 
Ax0446a,Ax1080a,Ax0812a,Ax0719a,Ax1140a,Ax0528a,Ax0310a

>  <original SMILES>  (280) 
CCc1ncsc1C(=O)NCc1cc(Cl)cc(Cl)c1O

>  <rationale>  (280) 
info info set:screening_pocket;hbond:S87; hydroph_interaction:P107+V124; pication:H21; 

>  <experiment>  (280) 
screening_pocket

>  <cluster_label>  (280) 
12

>  <cluster_rank>  (280) 
30

>  <N_interactions>  (280) 
4

>  <∆∆G>  (280) 
-4.207925

>  <comRMSD>  (280) 
0.885622

>  <ROCS_TanimotoCombo>  (280) 
0.625

>  <ROCS_ShapeTanimoto>  (280) 
0.208

>  <ROCS_ColorTanimoto>  (280) 
0.418

$$$$
Z6032156791
     RDKit          3D

 24 27  0  0  0  0  0  0  0  0999 V2000
   28.5907   15.8753    7.1039 N   0  0  0  0  0  0  0  0  0  0  0  0
   28.9465   15.2761    7.9436 C   0  0  0  0  0  0  0  0  0  0  0  0
   29.4659   14.3647    8.9531 C   0  0  2  0  0  0  0  0  0  0  0  0
   29.8938   15.1023   10.2246 C   0  0  0  0  0  0  0  0  0  0  0  0
   29.1461   15.1235   11.5459 C   0  0  0  0  0  0  0  0  0  0  0  0
   29.7424   15.9953   12.6394 C   0  0  0  0  0  0  0  0  0  0  0  0
   30.9862   16.7627   12.4264 C   0  0  0  0  0  0  0  0  0  0  0  0
   31.7094   16.7675   11.2896 C   0  0  0  0  0  0  0  0  0  0  0  0
   31.1876   15.9307   10.1491 C   0  0  0  0  0  0  0  0  0  0  0  0
   30.5620   13.4818    8.4631 C   0  0  0  0  0  0  0  0  0  0  0  0
   29.8278   12.4311    7.9945 C   0  0  1  0  0  0  0  0  0  0  0  0
   30.3326   11.2421    8.3840 N   0  0  0  0  0  0  0  0  0  0  0  0
   31.2941   10.6328    7.5748 C   0  0  0  0  0  0  0  0  0  0  0  0
   32.2009   11.4487    6.7118 C   0  0  0  0  0  0  0  0  0  0  0  0
   33.3077   11.0287    5.7413 C   0  0  0  0  0  0  0  0  0  0  0  0
   33.1738    9.5163    5.9498 C   0  0  0  0  0  0  0  0  0  0  0  0
   34.0920    8.8127    5.1308 N   0  0  0  0  0  0  0  0  0  0  0  0
   35.1673    9.3649    4.3372 C   0  0  0  0  0  0  0  0  0  0  0  0
   35.9130    8.3776    3.5943 C   0  0  0  0  0  0  0  0  0  0  0  0
   35.6139    8.6954    2.3611 C   0  0  0  0  0  0  0  0  0  0  0  0
   34.6925    9.8175    2.8603 C   0  0  0  0  0  0  0  0  0  0  0  0
   32.3573    8.7580    6.7440 N   0  0  0  0  0  0  0  0  0  0  0  0
   31.4516    9.3058    7.5253 C   0  0  0  0  0  0  0  0  0  0  0  0
   28.6037   13.0836    8.7670 C   0  0  0  0  0  0  0  0  0  0  0  0
  1  2  3  0
  3  2  1  6
  3  4  1  0
  4  5  2  0
  5  6  1  0
  6  7  2  0
  7  8  1  0
  8  9  2  0
  3 10  1  0
 10 11  1  0
 11 12  1  1
 12 13  1  0
 13 14  2  0
 14 15  1  0
 15 16  2  0
 16 17  1  0
 17 18  1  0
 18 19  1  0
 19 20  1  0
 20 21  1  0
 16 22  1  0
 22 23  2  0
 11 24  1  0
 24  3  1  0
  9  4  1  0
 23 13  1  0
 21 18  1  0
A    1
 N1 
A    2
 C1 
A    3
 C2 
A    4
 C3 
A    5
 C4 
A    6
 C5 
A    7
 C6 
A    8
 C7 
A    9
 C8 
A   10
 C9 
A   11
 C10
A   12
 N2 
A   13
 C11
A   14
 C12
A   15
 C13
A   16
 C14
A   17
 N3 
A   18
 C15
A   19
 C16
A   20
 C17
A   21
 C18
A   22
 N4 
A   23
 C19
A   24
 C20
M  END
>  <ref_pdb>  (281) 
Ax0310a

>  <ref_mols>  (281) 
Ax0446a,Ax1080a,Ax0812a,Ax0719a,Ax1140a,Ax0528a,Ax0310a

>  <original SMILES>  (281) 
N#C[C@]1(c2ccccc2)C[C@@H](Nc2ccc(NC3CCC3)nc2)C1

>  <rationale>  (281) 
info info set:screening_pocket;hbond:S105+S125; hydroph_interaction:Y90+V84+D39; 

>  <experiment>  (281) 
screening_pocket

>  <cluster_label>  (281) 
8

>  <cluster_rank>  (281) 
30

>  <N_interactions>  (281) 
6

>  <∆∆G>  (281) 
-4.518442

>  <comRMSD>  (281) 
0.388719

>  <ROCS_TanimotoCombo>  (281) 
0.628

>  <ROCS_ShapeTanimoto>  (281) 
0.233

>  <ROCS_ColorTanimoto>  (281) 
0.395

$$$$
EN300_246091
     RDKit          3D

 11 11  0  0  0  0  0  0  0  0999 V2000
   34.6859   14.8205    7.9178 N   0  0  0  0  0  0  0  0  0  0  0  0
   33.5494   13.6510    8.2839 S   0  0  0  0  0  6  0  0  0  0  0  0
   34.2178   12.7864    9.1804 O   0  0  0  0  0  0  0  0  0  0  0  0
   32.2899   14.2421    8.6863 O   0  0  0  0  0  0  0  0  0  0  0  0
   33.3698   12.8696    6.6702 C   0  0  0  0  0  0  0  0  0  0  0  0
   32.3206   11.7995    6.6870 C   0  0  1  0  0  0  0  0  0  0  0  0
   32.6989   10.4733    6.3876 C   0  0  0  0  0  0  0  0  0  0  0  0
   32.3258    9.4785    7.3678 O   0  0  0  0  0  0  0  0  0  0  0  0
   31.0007    9.5919    7.9216 C   0  0  0  0  0  0  0  0  0  0  0  0
   30.5445   11.0409    7.9395 C   0  0  0  0  0  0  0  0  0  0  0  0
   31.6855   11.8595    7.9675 O   0  0  0  0  0  0  0  0  0  0  0  0
  1  2  1  0
  2  3  2  0
  2  4  2  0
  2  5  1  0
  6  5  1  1
  6  7  1  0
  7  8  1  0
  8  9  1  0
  9 10  1  0
 10 11  1  0
 11  6  1  0
A    1
 N1 
A    2
 S1 
A    3
 O1 
A    4
 O2 
A    5
 C1 
A    6
 C2 
A    7
 C3 
A    8
 O3 
A    9
 C4 
A   10
 C5 
A   11
 O4 
M  END
>  <ref_pdb>  (282) 
Ax0310a

>  <ref_mols>  (282) 
Ax0446a,Ax1080a,Ax0812a,Ax0719a,Ax1140a,Ax0528a,Ax0310a

>  <original SMILES>  (282) 
NS(=O)(=O)C[C@H]1COCCO1

>  <rationale>  (282) 
info info set:sulfonimide_whole;hbond:S87+G127+A86; 

>  <experiment>  (282) 
sulfonimide_whole

>  <cluster_label>  (282) 
5

>  <cluster_rank>  (282) 
30

>  <N_interactions>  (282) 
3

>  <∆∆G>  (282) 
-2.57133

>  <comRMSD>  (282) 
0.635251

>  <ROCS_TanimotoCombo>  (282) 
0.332

>  <ROCS_ShapeTanimoto>  (282) 
0.168

>  <ROCS_ColorTanimoto>  (282) 
0.164

$$$$
EN300_261587
     RDKit          3D

 15 16  0  0  0  0  0  0  0  0999 V2000
   28.5709   13.7803    9.5748 N   0  0  0  0  0  0  0  0  0  0  0  0
   29.6740   14.4500    8.5286 S   0  0  0  0  0  6  0  0  0  0  0  0
   29.1093   15.7251    8.1562 O   0  0  0  0  0  0  0  0  0  0  0  0
   30.9986   14.3684    9.1253 O   0  0  0  0  0  0  0  0  0  0  0  0
   29.6277   13.3260    7.1315 C   0  0  0  0  0  0  0  0  0  0  0  0
   29.9194   11.8879    7.5058 C   0  0  0  0  0  0  0  0  0  0  0  0
   28.8466   11.2996    8.4013 C   0  0  0  0  0  0  0  0  0  0  0  0
   29.0773    9.8643    8.8099 C   0  0  0  0  0  0  0  0  0  0  0  0
   30.2894    9.1445    8.3097 C   0  0  0  0  0  0  0  0  0  0  0  0
   31.2101    9.7644    7.4790 C   0  0  0  0  0  0  0  0  0  0  0  0
   32.2068    8.9384    7.1250 N   0  0  0  0  0  0  0  0  0  0  0  0
   33.2167    9.4751    6.2563 C   0  0  0  0  0  0  0  0  0  0  0  0
   33.2784   10.8803    5.7177 C   0  0  0  0  0  0  0  0  0  0  0  0
   32.1369   11.7483    6.1548 C   0  0  0  0  0  0  0  0  0  0  0  0
   31.0575   11.1452    7.0675 C   0  0  0  0  0  0  0  0  0  0  0  0
  1  2  1  0
  2  3  2  0
  2  4  2  0
  2  5  1  0
  5  6  1  0
  6  7  2  0
  7  8  1  0
  8  9  2  0
  9 10  1  0
 10 11  2  0
 11 12  1  0
 12 13  2  0
 13 14  1  0
 14 15  2  0
 15  6  1  0
 15 10  1  0
A    1
 N1 
A    2
 S1 
A    3
 O1 
A    4
 O2 
A    5
 C1 
A    6
 C2 
A    7
 C3 
A    8
 C4 
A    9
 C5 
A   10
 C6 
A   11
 N2 
A   12
 C7 
A   13
 C8 
A   14
 C9 
A   15
 C10
M  END
>  <ref_pdb>  (283) 
Ax0310a

>  <ref_mols>  (283) 
Ax0446a,Ax1080a,Ax0812a,Ax0719a,Ax1140a,Ax0528a,Ax0310a

>  <original SMILES>  (283) 
NS(=O)(=O)Cc1cccc2ncccc12

>  <rationale>  (283) 
info info set:sulfonimide_whole;hbond:S87+S125; hydroph_interaction:P107; 

>  <experiment>  (283) 
sulfonimide_whole

>  <cluster_label>  (283) 
3

>  <cluster_rank>  (283) 
30

>  <N_interactions>  (283) 
3

>  <∆∆G>  (283) 
-7.515546

>  <comRMSD>  (283) 
0.422098

>  <ROCS_TanimotoCombo>  (283) 
0.376

>  <ROCS_ShapeTanimoto>  (283) 
0.214

>  <ROCS_ColorTanimoto>  (283) 
0.162

$$$$
EN300_26689248
     RDKit          3D

 22 24  0  0  0  0  0  0  0  0999 V2000
   30.3452    7.8777    8.6197 C   0  0  0  0  0  0  0  0  0  0  0  0
   31.1523    8.9038    7.8575 C   0  0  0  0  0  0  0  0  0  0  0  0
   30.5432   10.2083    8.1083 C   0  0  0  0  0  0  0  0  0  0  0  0
   31.2138   11.3152    7.4725 C   0  0  0  0  0  0  0  0  0  0  0  0
   30.5980   12.6554    7.6909 C   0  0  0  0  0  0  0  0  0  0  0  0
   30.3888   13.4919    6.8404 O   0  0  0  0  0  0  0  0  0  0  0  0
   30.2103   12.9166    8.9561 N   0  0  0  0  0  0  0  0  0  0  0  0
   29.6670   14.0816    9.3135 C   0  0  0  0  0  0  0  0  0  0  0  0
   30.9334   14.9036    9.2833 C   0  0  0  0  0  0  0  0  0  0  0  0
   31.1592   16.0281   10.0741 N   0  0  0  0  0  0  0  0  0  0  0  0
   29.1457   14.1399   10.7202 C   0  0  0  0  0  0  0  0  0  0  0  0
   28.5525   15.3831   10.8954 C   0  0  0  0  0  0  0  0  0  0  0  0
   27.2598   15.1797   10.2710 C   0  0  0  0  0  0  0  0  0  0  0  0
   27.5396   15.4426    8.8197 C   0  0  0  0  0  0  0  0  0  0  0  0
   28.5743   14.4632    8.2939 C   0  0  0  0  0  0  0  0  0  0  0  0
   32.4598   11.1046    6.6539 C   0  0  0  0  0  0  0  0  0  0  0  0
   33.5229   11.8458    5.8547 C   0  0  0  0  0  0  0  0  0  0  0  0
   33.4889   13.3694    5.7345 C   0  0  0  0  0  0  0  0  0  0  0  0
   34.4149   11.0155    5.3350 N   0  0  0  0  0  0  0  0  0  0  0  0
   33.9909    9.7434    5.7575 O   0  0  0  0  0  0  0  0  0  0  0  0
   32.8518    9.7811    6.5362 C   0  0  0  0  0  0  0  0  0  0  0  0
   32.2504    8.6718    7.0896 N   0  0  0  0  0  0  0  0  0  0  0  0
  1  2  1  0
  2  3  2  0
  3  4  1  0
  4  5  1  0
  5  6  2  0
  5  7  1  0
  7  8  1  0
  8  9  1  0
  9 10  3  0
  8 11  1  0
 11 12  1  0
 12 13  1  0
 13 14  1  0
 14 15  1  0
  4 16  2  0
 16 17  1  0
 17 18  1  0
 17 19  2  0
 19 20  1  0
 20 21  1  0
 21 22  2  0
 22  2  1  0
 15  8  1  0
 21 16  1  0
A    1
 C1 
A    2
 C2 
A    3
 C3 
A    4
 C4 
A    5
 C5 
A    6
 O1 
A    7
 N1 
A    8
 C6 
A    9
 C7 
A   10
 N2 
A   11
 C8 
A   12
 C9 
A   13
 C10
A   14
 C11
A   15
 C12
A   16
 C13
A   17
 C14
A   18
 C15
A   19
 N3 
A   20
 O2 
A   21
 C16
A   22
 N4 
M  END
>  <ref_pdb>  (284) 
Ax0310a

>  <ref_mols>  (284) 
Ax0446a,Ax1080a,Ax0812a,Ax0719a,Ax1140a,Ax0528a,Ax0310a

>  <original SMILES>  (284) 
Cc1cc(C(=O)NC2(C#N)CCCCC2)c2c(C)noc2n1

>  <rationale>  (284) 
info info set:bb_whole;hbond:S87+S125; hydroph_interaction:Y89+Y90+V124+H21; 

>  <experiment>  (284) 
bb_whole

>  <cluster_label>  (284) 
9

>  <cluster_rank>  (284) 
30

>  <N_interactions>  (284) 
7

>  <∆∆G>  (284) 
-3.009655

>  <comRMSD>  (284) 
0.599434

>  <ROCS_TanimotoCombo>  (284) 
0.414

>  <ROCS_ShapeTanimoto>  (284) 
0.246

>  <ROCS_ColorTanimoto>  (284) 
0.168

$$$$
Z5259439744
     RDKit          3D

 25 29  0  0  0  0  0  0  0  0999 V2000
   33.1194   13.6141    9.3277 N   0  0  0  0  0  0  0  0  0  0  0  0
   31.8542   13.9844    9.1978 C   0  0  0  0  0  0  0  0  0  0  0  0
   31.2892   15.1480    9.3935 N   0  0  0  0  0  0  0  0  0  0  0  0
   30.0133   14.9577    9.0356 C   0  0  0  0  0  0  0  0  0  0  0  0
   28.8165   16.0114    8.9971 C   0  0  0  0  0  0  0  0  0  0  0  0
   27.5868   15.1758    8.5142 C   0  0  0  0  0  0  0  0  0  0  0  0
   27.4933   13.8041    8.1394 C   0  0  0  0  0  0  0  0  0  0  0  0
   28.7250   13.0851    8.2636 C   0  0  0  0  0  0  0  0  0  0  0  0
   28.4479   11.6708    7.8613 C   0  0  0  0  0  0  0  0  0  0  0  0
   27.3630   11.3603    7.4099 O   0  0  0  0  0  0  0  0  0  0  0  0
   29.5308   10.8546    8.0595 N   0  0  0  0  0  0  0  0  0  0  0  0
   29.4547    9.6328    8.5947 C   0  0  0  0  0  0  0  0  0  0  0  0
   30.6923    8.7755    8.3334 C   0  0  0  0  0  0  0  0  0  0  0  0
   31.6067    9.3509    7.3587 N   0  0  0  0  0  0  0  0  0  0  0  0
   32.5447    8.6221    6.6791 N   0  0  0  0  0  0  0  0  0  0  0  0
   33.1992    9.4938    5.8868 C   0  0  0  0  0  0  0  0  0  0  0  0
   32.6883   10.8789    6.0265 C   0  0  0  0  0  0  0  0  0  0  0  0
   31.6111   10.6513    7.0488 C   0  0  0  0  0  0  0  0  0  0  0  0
   30.7495   11.5213    7.6258 C   0  0  0  0  0  0  0  0  0  0  0  0
   33.2452   12.0160    5.2641 C   0  0  0  0  0  0  0  0  0  0  0  0
   34.1041   11.5198    4.2752 C   0  0  0  0  0  0  0  0  0  0  0  0
   34.9142   10.4129    4.5736 C   0  0  0  0  0  0  0  0  0  0  0  0
   34.3107    9.2083    4.9531 C   0  0  0  0  0  0  0  0  0  0  0  0
   29.8679   13.6451    8.6718 C   0  0  0  0  0  0  0  0  0  0  0  0
   31.0553   13.0290    8.7821 O   0  0  0  0  0  0  0  0  0  0  0  0
  1  2  1  0
  2  3  2  0
  3  4  1  0
  4  5  2  0
  5  6  1  0
  6  7  2  0
  7  8  1  0
  8  9  1  0
  9 10  2  0
  9 11  1  0
 11 12  1  0
 12 13  1  0
 13 14  1  0
 14 15  1  0
 15 16  2  0
 16 17  1  0
 17 18  2  0
 18 19  1  0
 17 20  1  0
 20 21  1  0
 21 22  1  0
 22 23  1  0
  8 24  2  0
 24 25  1  0
 25  2  1  0
 24  4  1  0
 19 11  1  0
 18 14  1  0
 23 16  1  0
A    1
 N1 
A    2
 C1 
A    3
 N2 
A    4
 C2 
A    5
 C3 
A    6
 C4 
A    7
 C5 
A    8
 C6 
A    9
 C7 
A   10
 O1 
A   11
 N3 
A   12
 C8 
A   13
 C9 
A   14
 N4 
A   15
 N5 
A   16
 C10
A   17
 C11
A   18
 C12
A   19
 C13
A   20
 C14
A   21
 C15
A   22
 C16
A   23
 C17
A   24
 C18
A   25
 O2 
M  END
>  <ref_pdb>  (285) 
Ax0310a

>  <ref_mols>  (285) 
Ax0446a,Ax1080a,Ax0812a,Ax0719a,Ax1140a,Ax0528a,Ax0310a

>  <original SMILES>  (285) 
Nc1nc2cccc(C(=O)N3CCn4nc5c(c4C3)CCCC5)c2o1

>  <rationale>  (285) 
info info set:screening_whole;hbond:S87+G127; hydroph_interaction:P107+Y89+Y90; 

>  <experiment>  (285) 
screening_whole

>  <cluster_label>  (285) 
3

>  <cluster_rank>  (285) 
31

>  <N_interactions>  (285) 
6

>  <∆∆G>  (285) 
-0.42349

>  <comRMSD>  (285) 
0.896658

>  <ROCS_TanimotoCombo>  (285) 
0.474

>  <ROCS_ShapeTanimoto>  (285) 
0.276

>  <ROCS_ColorTanimoto>  (285) 
0.198

$$$$
Z4988613996
     RDKit          3D

 21 23  0  0  0  0  0  0  0  0999 V2000
   30.2695   14.0039    9.8019 C   0  0  0  0  0  0  0  0  0  0  0  0
   28.9730   13.5057    9.2488 C   0  0  0  0  0  0  0  0  0  0  0  0
   27.9291   14.5128    9.4267 C   0  0  0  0  0  0  0  0  0  0  0  0
   26.5891   14.0302    8.9085 C   0  0  0  0  0  0  0  0  0  0  0  0
   26.3487   12.6757    8.2935 C   0  0  0  0  0  0  0  0  0  0  0  0
   25.1479   12.2884    7.8761 F   0  0  0  0  0  0  0  0  0  0  0  0
   27.4732   11.9122    8.2079 C   0  0  0  0  0  0  0  0  0  0  0  0
   28.6985   12.2899    8.6485 C   0  0  0  0  0  0  0  0  0  0  0  0
   29.7803   11.2195    8.4258 C   0  0  0  0  0  0  0  0  0  0  0  0
   29.6776   10.0893    8.8718 O   0  0  0  0  0  0  0  0  0  0  0  0
   30.7842   11.7667    7.7028 N   0  0  0  0  0  0  0  0  0  0  0  0
   31.7178   10.9697    6.9663 C   0  0  0  0  0  0  0  0  0  0  0  0
   31.8165    9.5272    7.2465 C   0  0  0  0  0  0  0  0  0  0  0  0
   32.6541    8.7118    6.6161 N   0  0  0  0  0  0  0  0  0  0  0  0
   33.4067    9.3248    5.6887 C   0  0  0  0  0  0  0  0  0  0  0  0
   34.3358    8.6226    4.9306 N   0  0  0  0  0  0  0  0  0  0  0  0
   34.9612    9.4614    4.0695 C   0  0  0  0  0  0  0  0  0  0  0  0
   34.3595   10.8040    4.3230 C   0  0  0  0  0  0  0  0  0  0  0  0
   33.3965   10.6904    5.3345 C   0  0  0  0  0  0  0  0  0  0  0  0
   32.5232   11.5443    5.9933 C   0  0  0  0  0  0  0  0  0  0  0  0
   32.4838   12.8800    5.6685 C   0  0  0  0  0  0  0  0  0  0  0  0
  1  2  1  0
  2  3  2  0
  3  4  1  0
  4  5  2  0
  5  6  1  0
  5  7  1  0
  7  8  2  0
  8  9  1  0
  9 10  2  0
  9 11  1  0
 11 12  1  0
 12 13  2  0
 13 14  1  0
 14 15  2  0
 15 16  1  0
 16 17  1  0
 17 18  2  0
 18 19  1  0
 19 20  2  0
 20 21  1  0
  8  2  1  0
 20 12  1  0
 19 15  1  0
A    1
 C1 
A    2
 C2 
A    3
 C3 
A    4
 C4 
A    5
 C5 
A    6
 F1 
A    7
 C6 
A    8
 C7 
A    9
 C8 
A   10
 O1 
A   11
 N1 
A   12
 C9 
A   13
 C10
A   14
 N2 
A   15
 C11
A   16
 N3 
A   17
 C12
A   18
 C13
A   19
 C14
A   20
 C15
A   21
 C16
M  END
>  <ref_pdb>  (286) 
Ax0310a

>  <ref_mols>  (286) 
Ax0446a,Ax1080a,Ax0812a,Ax0719a,Ax1140a,Ax0528a,Ax0310a

>  <original SMILES>  (286) 
Cc1ccc(F)cc1C(=O)Nc1cnc2[nH]ccc2c1C

>  <rationale>  (286) 
info info set:screening_pocket;hbond:S87+G127; hydroph_interaction:P107+Y89+Y90+H21; 

>  <experiment>  (286) 
screening_pocket

>  <cluster_label>  (286) 
9

>  <cluster_rank>  (286) 
31

>  <N_interactions>  (286) 
7

>  <∆∆G>  (286) 
-2.894499

>  <comRMSD>  (286) 
0.94171

>  <ROCS_TanimotoCombo>  (286) 
0.631

>  <ROCS_ShapeTanimoto>  (286) 
0.241

>  <ROCS_ColorTanimoto>  (286) 
0.39

$$$$
EN300_3481483
     RDKit          3D

 12 12  0  0  0  0  0  0  0  0999 V2000
   28.6658   15.7332    7.9448 N   0  0  0  0  0  0  0  0  0  0  0  0
   28.4922   14.3129    7.7022 C   0  0  0  0  0  0  0  0  0  0  0  0
   29.2698   13.3691    8.5893 C   0  0  0  0  0  0  0  0  0  0  0  0
   30.4177   12.8009    7.8945 N   0  0  0  0  0  0  0  0  0  0  0  0
   30.7211   11.4505    8.0068 C   0  0  0  0  0  0  0  0  0  0  0  0
   30.2545   10.6540    8.7905 O   0  0  0  0  0  0  0  0  0  0  0  0
   31.7376   10.8308    7.0985 C   0  0  0  0  0  0  0  0  0  0  0  0
   32.5765   11.7855    6.1453 C   0  0  0  0  0  0  0  0  0  0  0  0
   33.4968   10.7282    5.4000 C   0  0  0  0  0  0  0  0  0  0  0  0
   33.4463    9.2544    5.6596 C   0  0  0  0  0  0  0  0  0  0  0  0
   32.6204    8.7167    6.5419 N   0  0  0  0  0  0  0  0  0  0  0  0
   31.7833    9.4943    7.2440 N   0  0  0  0  0  0  0  0  0  0  0  0
  1  2  3  0
  2  3  1  0
  3  4  1  0
  4  5  1  0
  5  6  2  0
  5  7  1  0
  7  8  2  0
  8  9  1  0
  9 10  2  0
 10 11  1  0
 11 12  2  0
 12  7  1  0
A    1
 N1 
A    2
 C1 
A    3
 C2 
A    4
 N2 
A    5
 C3 
A    6
 O1 
A    7
 C4 
A    8
 C5 
A    9
 C6 
A   10
 C7 
A   11
 N3 
A   12
 N4 
M  END
>  <ref_pdb>  (287) 
Ax0310a

>  <ref_mols>  (287) 
Ax0446a,Ax1080a,Ax0812a,Ax0719a,Ax1140a,Ax0528a,Ax0310a

>  <original SMILES>  (287) 
N#CCNC(=O)c1cccnn1

>  <rationale>  (287) 
info info set:bb_densepocket2;hbond:S87+E88; 

>  <experiment>  (287) 
bb_densepocket2

>  <cluster_label>  (287) 
8

>  <cluster_rank>  (287) 
31

>  <N_interactions>  (287) 
3

>  <∆∆G>  (287) 
-3.214166

>  <comRMSD>  (287) 
0.50883

>  <ROCS_TanimotoCombo>  (287) 
0.616

>  <ROCS_ShapeTanimoto>  (287) 
0.204

>  <ROCS_ColorTanimoto>  (287) 
0.412

$$$$
EN300_93385
     RDKit          3D

 13 13  0  0  0  0  0  0  0  0999 V2000
   34.7550   14.7929    7.9148 N   0  0  0  0  0  0  0  0  0  0  0  0
   33.4444   13.8925    8.5589 S   0  0  0  0  0  6  0  0  0  0  0  0
   34.0326   12.7863    9.1977 O   0  0  0  0  0  0  0  0  0  0  0  0
   32.5317   14.7709    9.2721 O   0  0  0  0  0  0  0  0  0  0  0  0
   32.5533   13.2150    7.2788 C   0  0  0  0  0  0  0  0  0  0  0  0
   31.0661   13.4210    7.1283 C   0  0  0  0  0  0  0  0  0  0  0  0
   30.3302   12.2803    7.3165 O   0  0  0  0  0  0  0  0  0  0  0  0
   31.0238   11.1880    7.1387 C   0  0  0  0  0  0  0  0  0  0  0  0
   30.6798   10.1131    8.1213 C   0  0  0  0  0  0  0  0  0  0  0  0
   31.3508    8.9508    7.9931 C   0  0  0  0  0  0  0  0  0  0  0  0
   32.3068    8.7617    7.0075 C   0  0  0  0  0  0  0  0  0  0  0  0
   32.6314    9.7472    6.1057 C   0  0  0  0  0  0  0  0  0  0  0  0
   31.9902   10.9542    6.1761 C   0  0  0  0  0  0  0  0  0  0  0  0
  1  2  1  0
  2  3  2  0
  2  4  2  0
  2  5  1  0
  5  6  1  0
  6  7  1  0
  7  8  1  0
  8  9  2  0
  9 10  1  0
 10 11  2  0
 11 12  1  0
 12 13  2  0
 13  8  1  0
A    1
 N1 
A    2
 S1 
A    3
 O1 
A    4
 O2 
A    5
 C1 
A    6
 C2 
A    7
 O3 
A    8
 C3 
A    9
 C4 
A   10
 C5 
A   11
 C6 
A   12
 C7 
A   13
 C8 
M  END
>  <ref_pdb>  (288) 
Ax0310a

>  <ref_mols>  (288) 
Ax0446a,Ax1080a,Ax0812a,Ax0719a,Ax1140a,Ax0528a,Ax0310a

>  <original SMILES>  (288) 
NS(=O)(=O)CCOc1ccccc1

>  <rationale>  (288) 
info info set:sulfonimide_whole;hbond:S87+G127+A86; hydroph_interaction:P107; 

>  <experiment>  (288) 
sulfonimide_whole

>  <cluster_label>  (288) 
5

>  <cluster_rank>  (288) 
31

>  <N_interactions>  (288) 
4

>  <∆∆G>  (288) 
-4.189408

>  <comRMSD>  (288) 
0.674345

>  <ROCS_TanimotoCombo>  (288) 
0.33

>  <ROCS_ShapeTanimoto>  (288) 
0.171

>  <ROCS_ColorTanimoto>  (288) 
0.16

$$$$
EN300_801186
     RDKit          3D

 17 18  0  0  0  0  0  0  0  0999 V2000
   29.1880    8.7155   10.1952 C   0  0  0  0  0  0  0  0  0  0  0  0
   29.7355    8.3406    9.0504 C   0  0  0  0  0  0  0  0  0  0  0  0
   29.7606    6.9591    9.1916 C   0  0  0  0  0  0  0  0  0  0  0  0
   28.9801    8.7252    8.0255 C   0  0  0  0  0  0  0  0  0  0  0  0
   31.0873    8.8263    8.8301 C   0  0  0  0  0  0  0  0  0  0  0  0
   31.6990    9.5360    7.5695 C   0  0  0  0  0  0  0  0  0  0  0  0
   32.5616    8.9302    6.7397 N   0  0  0  0  0  0  0  0  0  0  0  0
   33.0487    9.6669    5.7180 C   0  0  0  0  0  0  0  0  0  0  0  0
   34.0548    9.0070    4.7381 C   0  0  0  0  0  0  0  0  0  0  0  0
   34.6015    9.7789    3.5797 C   0  0  0  0  0  0  0  0  0  0  0  0
   35.4580    9.1963    2.7322 F   0  0  0  0  0  0  0  0  0  0  0  0
   34.1564   11.2217    3.4030 C   0  0  0  0  0  0  0  0  0  0  0  0
   33.2727   11.7471    4.3180 C   0  0  0  0  0  0  0  0  0  0  0  0
   32.6792   11.0120    5.5041 C   0  0  0  0  0  0  0  0  0  0  0  0
   31.7793   11.6686    6.3577 C   0  0  0  0  0  0  0  0  0  0  0  0
   31.2492   10.9887    7.4163 C   0  0  0  0  0  0  0  0  0  0  0  0
   30.3837   11.5740    8.2817 O   0  0  0  0  0  0  0  0  0  0  0  0
  1  2  1  0
  2  3  1  0
  2  4  1  0
  2  5  1  0
  5  6  1  0
  6  7  2  0
  7  8  1  0
  8  9  2  0
  9 10  1  0
 10 11  1  0
 10 12  2  0
 12 13  1  0
 13 14  2  0
 14 15  1  0
 15 16  2  0
 16 17  1  0
 16  6  1  0
 14  8  1  0
A    1
 C1 
A    2
 C2 
A    3
 C3 
A    4
 C4 
A    5
 C5 
A    6
 C6 
A    7
 N1 
A    8
 C7 
A    9
 C8 
A   10
 C9 
A   11
 F1 
A   12
 C10
A   13
 C11
A   14
 C12
A   15
 C13
A   16
 C14
A   17
 O1 
M  END
>  <ref_pdb>  (289) 
Ax0310a

>  <ref_mols>  (289) 
Ax0446a,Ax1080a,Ax0812a,Ax0719a,Ax1140a,Ax0528a,Ax0310a

>  <original SMILES>  (289) 
CC(C)(C)Cc1nc2cc(F)ccc2cc1O

>  <rationale>  (289) 
info info set:bb_densepocket2;hbond:S125+G127; hydroph_interaction:P107+V124+D109; 

>  <experiment>  (289) 
bb_densepocket2

>  <cluster_label>  (289) 
3

>  <cluster_rank>  (289) 
32

>  <N_interactions>  (289) 
6

>  <∆∆G>  (289) 
-0.017091

>  <comRMSD>  (289) 
0.511964

>  <ROCS_TanimotoCombo>  (289) 
0.647

>  <ROCS_ShapeTanimoto>  (289) 
0.24

>  <ROCS_ColorTanimoto>  (289) 
0.406

$$$$
EN300_39672689
     RDKit          3D

 16 16  0  0  0  0  0  0  0  0999 V2000
   29.1481   12.7178    8.6722 N   0  0  0  0  0  0  0  0  0  0  0  0
   30.2418   13.7603    8.0103 S   0  0  0  0  0  6  0  0  0  0  0  0
   29.8228   13.8232    6.6363 O   0  0  0  0  0  0  0  0  0  0  0  0
   30.2534   14.8913    8.9191 O   0  0  0  0  0  0  0  0  0  0  0  0
   31.8762   13.0745    8.0099 C   0  0  0  0  0  0  0  0  0  0  0  0
   32.0398   11.6646    7.4987 C   0  0  0  0  0  0  0  0  0  0  0  0
   31.0671   10.6599    7.9609 C   0  0  0  0  0  0  0  0  0  0  0  0
   30.0877   10.9657    8.7473 F   0  0  0  0  0  0  0  0  0  0  0  0
   31.1743    9.3029    7.5577 C   0  0  0  0  0  0  0  0  0  0  0  0
   32.2101    8.9765    6.7129 C   0  0  0  0  0  0  0  0  0  0  0  0
   33.1172    9.9069    6.2452 C   0  0  0  0  0  0  0  0  0  0  0  0
   33.0597   11.2550    6.6224 C   0  0  0  0  0  0  0  0  0  0  0  0
   34.0122   12.1406    6.1266 C   0  0  0  0  0  0  0  0  0  0  0  0
   35.0314   11.5292    5.4633 F   0  0  0  0  0  0  0  0  0  0  0  0
   33.4715   12.9923    5.2299 F   0  0  0  0  0  0  0  0  0  0  0  0
   34.5451   12.9651    7.0666 F   0  0  0  0  0  0  0  0  0  0  0  0
  1  2  1  0
  2  3  2  0
  2  4  2  0
  2  5  1  0
  5  6  1  0
  6  7  2  0
  7  8  1  0
  7  9  1  0
  9 10  2  0
 10 11  1  0
 11 12  2  0
 12 13  1  0
 13 14  1  0
 13 15  1  0
 13 16  1  0
 12  6  1  0
A    1
 N1 
A    2
 S1 
A    3
 O1 
A    4
 O2 
A    5
 C1 
A    6
 C2 
A    7
 C3 
A    8
 F1 
A    9
 C4 
A   10
 C5 
A   11
 C6 
A   12
 C7 
A   13
 C8 
A   14
 F2 
A   15
 F3 
A   16
 F4 
M  END
>  <ref_pdb>  (290) 
Ax0310a

>  <ref_mols>  (290) 
Ax0446a,Ax1080a,Ax0812a,Ax0719a,Ax1140a,Ax0528a,Ax0310a

>  <original SMILES>  (290) 
NS(=O)(=O)Cc1c(F)cccc1C(F)(F)F

>  <rationale>  (290) 
info info set:sulfonimide_whole;halogenbond:S125; hbond:S87+S125; 

>  <experiment>  (290) 
sulfonimide_whole

>  <cluster_label>  (290) 
9

>  <cluster_rank>  (290) 
32

>  <N_interactions>  (290) 
3

>  <∆∆G>  (290) 
-2.411167

>  <comRMSD>  (290) 
0.886583

>  <ROCS_TanimotoCombo>  (290) 
0.354

>  <ROCS_ShapeTanimoto>  (290) 
0.208

>  <ROCS_ColorTanimoto>  (290) 
0.146

$$$$
Z56886590
     RDKit          3D

 17 18  0  0  0  0  0  0  0  0999 V2000
   30.6061    8.3022    8.3943 C   0  0  0  0  0  0  0  0  0  0  0  0
   31.1920    9.5897    7.8213 C   0  0  0  0  0  0  0  0  0  0  0  0
   32.1780    9.4168    6.6642 C   0  0  0  0  0  0  0  0  0  0  0  0
   32.7498   10.7310    6.1155 C   0  0  0  0  0  0  0  0  0  0  0  0
   32.3138   11.8921    6.7473 C   0  0  0  0  0  0  0  0  0  0  0  0
   32.9487   13.1476    6.1395 C   0  0  0  0  0  0  0  0  0  0  0  0
   31.4193   11.9583    7.8088 C   0  0  0  0  0  0  0  0  0  0  0  0
   31.0133   13.5143    8.5299 S   0  0  0  0  0  6  0  0  0  0  0  0
   32.2578   14.2012    8.4988 O   0  0  0  0  0  0  0  0  0  0  0  0
   30.3994   13.4949    9.7893 O   0  0  0  0  0  0  0  0  0  0  0  0
   29.7922   14.1433    7.5988 N   0  0  0  0  0  0  0  0  0  0  0  0
   29.0632   15.3116    8.2286 C   0  0  0  0  0  0  0  0  0  0  0  0
   27.7536   14.9379    8.8231 C   0  0  0  0  0  0  0  0  0  0  0  0
   26.9827   14.3043    7.7937 N   0  0  0  0  0  0  0  0  0  0  0  0
   27.6109   13.0319    7.5701 C   0  0  0  0  0  0  0  0  0  0  0  0
   28.9445   13.1481    6.8733 C   0  0  0  0  0  0  0  0  0  0  0  0
   30.8595   10.8095    8.3198 C   0  0  0  0  0  0  0  0  0  0  0  0
  1  2  1  0
  2  3  2  0
  3  4  1  0
  4  5  2  0
  5  6  1  0
  5  7  1  0
  7  8  1  0
  8  9  2  0
  8 10  2  0
  8 11  1  0
 11 12  1  0
 12 13  1  0
 13 14  1  0
 14 15  1  0
 15 16  1  0
  7 17  2  0
 17  2  1  0
 16 11  1  0
A    1
 C1 
A    2
 C2 
A    3
 C3 
A    4
 C4 
A    5
 C5 
A    6
 C6 
A    7
 C7 
A    8
 S1 
A    9
 O1 
A   10
 O2 
A   11
 N1 
A   12
 C8 
A   13
 C9 
A   14
 N2 
A   15
 C10
A   16
 C11
A   17
 C12
M  END
>  <ref_pdb>  (291) 
Ax0310a

>  <ref_mols>  (291) 
Ax0446a,Ax1080a,Ax0812a,Ax0719a,Ax1140a,Ax0528a,Ax0310a

>  <original SMILES>  (291) 
Cc1ccc(C)c(S(=O)(=O)N2CCNCC2)c1

>  <rationale>  (291) 
info info set:3d;hbond:S87+E88; hydroph_interaction:P107+V124; 

>  <experiment>  (291) 
3d

>  <cluster_label>  (291) 
8

>  <cluster_rank>  (291) 
32

>  <N_interactions>  (291) 
4

>  <∆∆G>  (291) 
-4.850335

>  <comRMSD>  (291) 
0.567055

>  <ROCS_TanimotoCombo>  (291) 
0.305

>  <ROCS_ShapeTanimoto>  (291) 
0.212

>  <ROCS_ColorTanimoto>  (291) 
0.093

$$$$
EN300_130131
     RDKit          3D

 10 10  0  0  0  0  0  0  0  0999 V2000
   34.6808   14.7239    7.7575 N   0  0  0  0  0  0  0  0  0  0  0  0
   33.4907   13.6314    8.2513 S   0  0  0  0  0  6  0  0  0  0  0  0
   34.2065   12.7758    9.1194 O   0  0  0  0  0  0  0  0  0  0  0  0
   32.3298   14.3258    8.7512 O   0  0  0  0  0  0  0  0  0  0  0  0
   33.1710   12.8260    6.6970 C   0  0  0  0  0  0  0  0  0  0  0  0
   31.8332   12.0359    6.5134 C   0  0  2  0  0  0  0  0  0  0  0  0
   31.4422   11.4590    7.8671 C   0  0  0  0  0  0  0  0  0  0  0  0
   31.3770    9.9120    7.6897 C   0  0  0  0  0  0  0  0  0  0  0  0
   32.3118    9.7620    6.5467 C   0  0  0  0  0  0  0  0  0  0  0  0
   32.0616   10.8770    5.6885 O   0  0  0  0  0  0  0  0  0  0  0  0
  1  2  1  0
  2  3  2  0
  2  4  2  0
  2  5  1  0
  6  5  1  1
  6  7  1  0
  7  8  1  0
  8  9  1  0
  9 10  1  0
 10  6  1  0
A    1
 N1 
A    2
 S1 
A    3
 O1 
A    4
 O2 
A    5
 C1 
A    6
 C2 
A    7
 C3 
A    8
 C4 
A    9
 C5 
A   10
 O3 
M  END
>  <ref_pdb>  (292) 
Ax0310a

>  <ref_mols>  (292) 
Ax0446a,Ax1080a,Ax0812a,Ax0719a,Ax1140a,Ax0528a,Ax0310a

>  <original SMILES>  (292) 
NS(=O)(=O)C[C@@H]1CCCO1

>  <rationale>  (292) 
info info set:sulfonimide_joint;hbond:S87+G127+A86; 

>  <experiment>  (292) 
sulfonimide_joint

>  <cluster_label>  (292) 
5

>  <cluster_rank>  (292) 
32

>  <N_interactions>  (292) 
3

>  <∆∆G>  (292) 
-2.348942

>  <comRMSD>  (292) 
0.582413

>  <ROCS_TanimotoCombo>  (292) 
0.3

>  <ROCS_ShapeTanimoto>  (292) 
0.14

>  <ROCS_ColorTanimoto>  (292) 
0.16

$$$$
EN300_286964
     RDKit          3D

 13 14  0  0  0  0  0  0  0  0999 V2000
   34.7832   14.7546    7.6582 N   0  0  0  0  0  0  0  0  0  0  0  0
   33.6441   13.6376    8.2178 S   0  0  0  0  0  6  0  0  0  0  0  0
   34.3506   12.8331    9.1421 O   0  0  0  0  0  0  0  0  0  0  0  0
   32.4652   14.3038    8.7059 O   0  0  0  0  0  0  0  0  0  0  0  0
   33.2634   12.7524    6.7029 C   0  0  0  0  0  0  0  0  0  0  0  0
   32.2304   11.7337    7.0510 C   0  0  0  0  0  0  0  0  0  0  0  0
   30.8955   11.9550    7.0272 N   0  0  0  0  0  0  0  0  0  0  0  0
   30.3542   10.7579    7.4824 O   0  0  0  0  0  0  0  0  0  0  0  0
   31.4485    9.9262    7.7130 C   0  0  0  0  0  0  0  0  0  0  0  0
   31.1873    8.6479    8.2114 C   0  0  0  0  0  0  0  0  0  0  0  0
   29.9797    8.1342    8.3682 C   0  0  0  0  0  0  0  0  0  0  0  0
   30.4975    8.7753    9.5136 C   0  0  0  0  0  0  0  0  0  0  0  0
   32.5898   10.4824    7.4493 N   0  0  0  0  0  0  0  0  0  0  0  0
  1  2  1  0
  2  3  2  0
  2  4  2  0
  2  5  1  0
  5  6  1  0
  6  7  2  0
  7  8  1  0
  8  9  1  0
  9 10  1  0
 10 11  1  0
 11 12  1  0
  9 13  2  0
 13  6  1  0
 12 10  1  0
A    1
 N1 
A    2
 S1 
A    3
 O1 
A    4
 O2 
A    5
 C1 
A    6
 C2 
A    7
 N2 
A    8
 O3 
A    9
 C3 
A   10
 C4 
A   11
 C5 
A   12
 C6 
A   13
 N3 
M  END
>  <ref_pdb>  (293) 
Ax0310a

>  <ref_mols>  (293) 
Ax0446a,Ax1080a,Ax0812a,Ax0719a,Ax1140a,Ax0528a,Ax0310a

>  <original SMILES>  (293) 
NS(=O)(=O)Cc1noc(C2CC2)n1

>  <rationale>  (293) 
info info set:sulfonimide_joint;hbond:S87+G127+A86; hydroph_interaction:V124; 

>  <experiment>  (293) 
sulfonimide_joint

>  <cluster_label>  (293) 
5

>  <cluster_rank>  (293) 
33

>  <N_interactions>  (293) 
4

>  <∆∆G>  (293) 
-1.242005

>  <comRMSD>  (293) 
0.692499

>  <ROCS_TanimotoCombo>  (293) 
0.301

>  <ROCS_ShapeTanimoto>  (293) 
0.156

>  <ROCS_ColorTanimoto>  (293) 
0.144

$$$$
Z2373574000
     RDKit          3D

 22 24  0  0  0  0  0  0  0  0999 V2000
   35.2313   12.1921    4.1222 C   0  0  0  0  0  0  0  0  0  0  0  0
   34.6190   10.8930    4.6834 C   0  0  0  0  0  0  0  0  0  0  0  0
   35.0587    9.6544    4.3165 N   0  0  0  0  0  0  0  0  0  0  0  0
   34.2934    8.8133    5.0156 N   0  0  0  0  0  0  0  0  0  0  0  0
   33.4072    9.4299    5.7924 C   0  0  0  0  0  0  0  0  0  0  0  0
   32.5371    8.7946    6.5902 N   0  0  0  0  0  0  0  0  0  0  0  0
   31.7537    9.6207    7.2641 C   0  0  0  0  0  0  0  0  0  0  0  0
   30.8177    8.9658    8.1313 O   0  0  0  0  0  0  0  0  0  0  0  0
   31.8487   11.1396    7.1279 C   0  0  0  0  0  0  0  0  0  0  0  0
   30.8954   11.8976    7.9476 C   0  0  0  0  0  0  0  0  0  0  0  0
   30.1469   11.1848    8.5867 O   0  0  0  0  0  0  0  0  0  0  0  0
   30.8491   13.2850    7.9878 N   0  0  0  0  0  0  0  0  0  0  0  0
   29.9213   13.7307    8.9767 C   0  0  2  0  0  0  0  0  0  0  0  0
   28.7187   13.1618    8.7398 C   0  0  0  0  0  0  0  0  0  0  0  0
   27.7780   13.8165    9.4309 C   0  0  0  0  0  0  0  0  0  0  0  0
   28.2829   14.9507    9.9860 C   0  0  0  0  0  0  0  0  0  0  0  0
   29.4134   15.2027    9.1850 C   0  0  2  0  0  0  0  0  0  0  0  0
   28.9328   15.8683    7.9444 C   0  0  0  0  0  0  0  0  0  0  0  0
   28.6142   15.0154    6.9366 N   0  0  0  0  0  0  0  0  0  0  0  0
   28.8558   17.0578    7.8025 O   0  0  0  0  0  0  0  0  0  0  0  0
   32.7851   11.6945    6.2814 C   0  0  0  0  0  0  0  0  0  0  0  0
   33.5928   10.7950    5.5913 C   0  0  0  0  0  0  0  0  0  0  0  0
  1  2  1  0
  2  3  2  0
  3  4  1  0
  4  5  1  0
  5  6  2  0
  6  7  1  0
  7  8  1  0
  7  9  2  0
  9 10  1  0
 10 11  2  0
 10 12  1  0
 13 12  1  6
 13 14  1  0
 14 15  1  0
 15 16  1  0
 16 17  1  0
 17 18  1  6
 18 19  1  0
 18 20  2  0
  9 21  1  0
 21 22  2  0
 22  2  1  0
 22  5  1  0
 17 13  1  0
A    1
 C1 
A    2
 C2 
A    3
 N1 
A    4
 N2 
A    5
 C3 
A    6
 N3 
A    7
 C4 
A    8
 O1 
A    9
 C5 
A   10
 C6 
A   11
 O2 
A   12
 N4 
A   13
 C7 
A   14
 C8 
A   15
 C9 
A   16
 C10
A   17
 C11
A   18
 C12
A   19
 N5 
A   20
 O3 
A   21
 C13
A   22
 C14
M  END
>  <ref_pdb>  (294) 
Ax0310a

>  <ref_mols>  (294) 
Ax0446a,Ax1080a,Ax0812a,Ax0719a,Ax1140a,Ax0528a,Ax0310a

>  <original SMILES>  (294) 
Cc1n[nH]c2nc(O)c(C(=O)N[C@@H]3CCC[C@@H]3C(N)=O)cc12

>  <rationale>  (294) 
info info set:screening_pocket;hbond:S87+S105+Y90+E88; hydroph_interaction:Y90; 

>  <experiment>  (294) 
screening_pocket

>  <cluster_label>  (294) 
8

>  <cluster_rank>  (294) 
33

>  <N_interactions>  (294) 
6

>  <∆∆G>  (294) 
-1.851588

>  <comRMSD>  (294) 
0.969526

>  <ROCS_TanimotoCombo>  (294) 
0.631

>  <ROCS_ShapeTanimoto>  (294) 
0.28

>  <ROCS_ColorTanimoto>  (294) 
0.352

$$$$
Z31110991
     RDKit          3D

 26 29  0  0  0  0  0  0  0  0999 V2000
   27.1081   15.4129    9.3657 C   0  0  0  0  0  0  0  0  0  0  0  0
   28.1074   14.6395    8.7201 C   0  0  0  0  0  0  0  0  0  0  0  0
   27.8447   13.8297    7.5731 C   0  0  0  0  0  0  0  0  0  0  0  0
   28.9991   13.2346    7.1209 C   0  0  0  0  0  0  0  0  0  0  0  0
   30.2863   13.4554    7.7908 C   0  0  0  0  0  0  0  0  0  0  0  0
   31.3985   12.8797    7.2841 O   0  0  0  0  0  0  0  0  0  0  0  0
   31.5087   11.5200    7.2983 C   0  0  0  0  0  0  0  0  0  0  0  0
   30.6349   10.7460    7.9298 N   0  0  0  0  0  0  0  0  0  0  0  0
   30.8409    9.4288    7.8872 C   0  0  0  0  0  0  0  0  0  0  0  0
   29.9544    8.6680    8.6089 C   0  0  0  0  0  0  0  0  0  0  0  0
   31.8040    8.7904    7.2468 N   0  0  0  0  0  0  0  0  0  0  0  0
   32.6279    9.6262    6.6300 C   0  0  0  0  0  0  0  0  0  0  0  0
   33.9327    9.0405    5.7299 S   0  0  0  0  0  0  0  0  0  0  0  0
   34.4634   10.5885    5.3820 C   0  0  0  0  0  0  0  0  0  0  0  0
   33.6514   11.5274    5.9239 C   0  0  0  0  0  0  0  0  0  0  0  0
   34.0743   12.9773    5.6845 C   0  0  0  0  0  0  0  0  0  0  0  0
   34.7674   13.8638    6.6737 C   0  0  0  0  0  0  0  0  0  0  0  0
   35.0518   15.0881    6.1227 C   0  0  0  0  0  0  0  0  0  0  0  0
   34.6025   15.1462    4.7966 C   0  0  0  0  0  0  0  0  0  0  0  0
   33.8277   13.7651    4.2119 S   0  0  0  0  0  0  0  0  0  0  0  0
   32.5638   10.9873    6.6316 C   0  0  0  0  0  0  0  0  0  0  0  0
   30.3404   14.2477    8.8934 C   0  0  0  0  0  0  0  0  0  0  0  0
   31.6263   14.4585    9.5540 N   0  0  0  0  0  4  0  0  0  0  0  0
   31.9668   15.6440    9.6708 O   0  0  0  0  0  0  0  0  0  0  0  0
   32.4522   13.5675    9.3717 O   0  0  0  0  0  1  0  0  0  0  0  0
   29.2587   14.8336    9.3541 N   0  0  0  0  0  0  0  0  0  0  0  0
  1  2  1  0
  2  3  2  0
  3  4  1  0
  4  5  2  0
  5  6  1  0
  6  7  1  0
  7  8  2  0
  8  9  1  0
  9 10  1  0
  9 11  2  0
 11 12  1  0
 12 13  1  0
 13 14  1  0
 14 15  2  0
 15 16  1  0
 16 17  2  0
 17 18  1  0
 18 19  2  0
 19 20  1  0
 15 21  1  0
  5 22  1  0
 22 23  1  0
 23 24  2  0
 23 25  1  0
 22 26  2  0
 26  2  1  0
 21  7  1  0
 21 12  2  0
 20 16  1  0
M  CHG  2  23   1  25  -1
A    1
 C1 
A    2
 C2 
A    3
 C3 
A    4
 C4 
A    5
 C5 
A    6
 O1 
A    7
 C6 
A    8
 N1 
A    9
 C7 
A   10
 C8 
A   11
 N2 
A   12
 C9 
A   13
 S1 
A   14
 C10
A   15
 C11
A   16
 C12
A   17
 C13
A   18
 C14
A   19
 C15
A   20
 S2 
A   21
 C16
A   22
 C17
A   23
 N3 
A   24
 O2 
A   25
 O3 
A   26
 N4 
M  END
>  <ref_pdb>  (295) 
Ax0310a

>  <ref_mols>  (295) 
Ax0446a,Ax1080a,Ax0812a,Ax0719a,Ax1140a,Ax0528a,Ax0310a

>  <original SMILES>  (295) 
Cc1ccc(Oc2nc(C)nc3scc(-c4cccs4)c23)c([N+](=O)[O-])n1

>  <rationale>  (295) 
info info set:screening_whole;hbond:S87; hydroph_interaction:Y89+Y90+V124+H21+E85; pistack:H21; 

>  <experiment>  (295) 
screening_whole

>  <cluster_label>  (295) 
9

>  <cluster_rank>  (295) 
33

>  <N_interactions>  (295) 
7

>  <∆∆G>  (295) 
-8.516069

>  <comRMSD>  (295) 
0.955844

>  <ROCS_TanimotoCombo>  (295) 
0.455

>  <ROCS_ShapeTanimoto>  (295) 
0.261

>  <ROCS_ColorTanimoto>  (295) 
0.194

$$$$
EN300_7470794
     RDKit          3D

 22 24  0  0  0  0  0  0  0  0999 V2000
   34.7364   14.0117    9.5168 C   0  0  0  0  0  0  0  0  0  0  0  0
   33.4069   14.5283   10.0250 C   0  0  0  0  0  0  0  0  0  0  0  0
   32.1129   14.0144    9.4342 C   0  0  0  0  0  0  0  0  0  0  0  0
   30.8304   14.7624    9.6917 C   0  0  0  0  0  0  0  0  0  0  0  0
   30.8759   15.9795    9.7803 O   0  0  0  0  0  0  0  0  0  0  0  0
   29.7178   13.9935    9.8127 N   0  0  0  0  0  0  0  0  0  0  0  0
   28.6724   13.9968    8.8234 C   0  0  0  0  0  0  0  0  0  0  0  0
   29.2002   13.2064    7.5740 C   0  0  0  0  0  0  0  0  0  0  0  0
   29.5237   11.7543    7.8265 C   0  0  0  0  0  0  0  0  0  0  0  0
   28.6339   10.9550    8.4762 C   0  0  0  0  0  0  0  0  0  0  0  0
   28.9728    9.4836    8.7059 C   0  0  0  0  0  0  0  0  0  0  0  0
   30.2380    8.7976    8.2426 C   0  0  0  0  0  0  0  0  0  0  0  0
   31.0557    9.7072    7.5899 C   0  0  0  0  0  0  0  0  0  0  0  0
   30.7131   11.1897    7.4008 C   0  0  0  0  0  0  0  0  0  0  0  0
   31.5877   12.0162    6.7825 O   0  0  0  0  0  0  0  0  0  0  0  0
   32.6802   11.4196    6.2484 C   0  0  0  0  0  0  0  0  0  0  0  0
   33.5572   12.2760    5.5131 C   0  0  0  0  0  0  0  0  0  0  0  0
   34.6868   11.7354    4.9189 C   0  0  0  0  0  0  0  0  0  0  0  0
   34.9459   10.3752    5.0354 C   0  0  0  0  0  0  0  0  0  0  0  0
   34.0909    9.5453    5.7593 C   0  0  0  0  0  0  0  0  0  0  0  0
   32.9685   10.0659    6.3777 C   0  0  0  0  0  0  0  0  0  0  0  0
   32.2060    9.1923    7.0986 O   0  0  0  0  0  0  0  0  0  0  0  0
  1  2  1  0
  2  3  3  0
  3  4  1  0
  4  5  2  0
  4  6  1  0
  6  7  1  0
  7  8  1  0
  8  9  1  0
  9 10  2  0
 10 11  1  0
 11 12  2  0
 12 13  1  0
 13 14  2  0
 14 15  1  0
 15 16  1  0
 16 17  2  0
 17 18  1  0
 18 19  2  0
 19 20  1  0
 20 21  2  0
 21 22  1  0
 14  9  1  0
 21 16  1  0
 22 13  1  0
A    1
 C1 
A    2
 C2 
A    3
 C3 
A    4
 C4 
A    5
 O1 
A    6
 N1 
A    7
 C5 
A    8
 C6 
A    9
 C7 
A   10
 C8 
A   11
 C9 
A   12
 C10
A   13
 C11
A   14
 C12
A   15
 O2 
A   16
 C13
A   17
 C14
A   18
 C15
A   19
 C16
A   20
 C17
A   21
 C18
A   22
 O3 
M  END
>  <ref_pdb>  (296) 
Ax0310a

>  <ref_mols>  (296) 
Ax0446a,Ax1080a,Ax0812a,Ax0719a,Ax1140a,Ax0528a,Ax0310a

>  <original SMILES>  (296) 
CC#CC(=O)NCCc1cccc2c1Oc1ccccc1O2

>  <rationale>  (296) 
info info set:bb_whole;hbond:S87+S125; hydroph_interaction:T126+V84; 

>  <experiment>  (296) 
bb_whole

>  <cluster_label>  (296) 
3

>  <cluster_rank>  (296) 
33

>  <N_interactions>  (296) 
4

>  <∆∆G>  (296) 
-8.680917

>  <comRMSD>  (296) 
0.906466

>  <ROCS_TanimotoCombo>  (296) 
0.423

>  <ROCS_ShapeTanimoto>  (296) 
0.24

>  <ROCS_ColorTanimoto>  (296) 
0.183

$$$$
Z1995557148
     RDKit          3D

 18 20  0  0  0  0  0  0  0  0999 V2000
   32.0453   13.4382    5.8065 O   0  0  0  0  0  0  0  0  0  0  0  0
   31.1211   12.6900    6.1090 C   0  0  0  0  0  0  0  0  0  0  0  0
   29.7393   13.1748    6.2496 C   0  0  0  0  0  0  0  0  0  0  0  0
   29.2754   13.8383    7.3474 C   0  0  0  0  0  0  0  0  0  0  0  0
   28.1129   14.7177    7.4868 C   0  0  0  0  0  0  0  0  0  0  0  0
   27.9476   15.2086    8.7577 C   0  0  0  0  0  0  0  0  0  0  0  0
   28.9212   14.7595    9.6353 C   0  0  0  0  0  0  0  0  0  0  0  0
   30.0595   13.7257    8.8629 S   0  0  0  0  0  0  0  0  0  0  0  0
   31.2988   11.2724    6.3594 N   0  0  0  0  0  0  0  0  0  0  0  0
   30.7570   10.8961    7.6734 C   0  0  0  0  0  0  0  0  0  0  0  0
   30.9357    9.5401    7.9729 C   0  0  0  0  0  0  0  0  0  0  0  0
   32.2081    9.0283    7.5609 O   0  0  0  0  0  0  0  0  0  0  0  0
   32.7254    9.4620    6.5028 C   0  0  0  0  0  0  0  0  0  0  0  0
   32.6888   10.8498    6.2361 C   0  0  2  0  0  0  0  0  0  0  0  0
   33.4179   11.9311    6.7659 C   0  0  0  0  0  0  0  0  0  0  0  0
   34.4673   12.4032    5.9596 C   0  0  0  0  0  0  0  0  0  0  0  0
   34.6713   11.3939    5.0045 O   0  0  0  0  0  0  0  0  0  0  0  0
   33.3410   10.9238    4.8262 C   0  0  0  0  0  0  0  0  0  0  0  0
  1  2  2  0
  2  3  1  0
  3  4  1  0
  4  5  2  0
  5  6  1  0
  6  7  2  0
  7  8  1  0
  2  9  1  0
  9 10  1  0
 10 11  1  0
 11 12  1  0
 12 13  1  0
 14 13  1  1
 14 15  1  0
 15 16  1  0
 16 17  1  0
 17 18  1  0
  8  4  1  0
 14  9  1  0
 18 14  1  0
A    1
 O1 
A    2
 C1 
A    3
 C2 
A    4
 C3 
A    5
 C4 
A    6
 C5 
A    7
 C6 
A    8
 S1 
A    9
 N1 
A   10
 C7 
A   11
 C8 
A   12
 O2 
A   13
 C9 
A   14
 C10
A   15
 C11
A   16
 C12
A   17
 O3 
A   18
 C13
M  END
>  <ref_pdb>  (297) 
Ax0310a

>  <ref_mols>  (297) 
Ax0446a,Ax1080a,Ax0812a,Ax0719a,Ax1140a,Ax0528a,Ax0310a

>  <original SMILES>  (297) 
O=C(Cc1cccs1)N1CCOC[C@]12CCOC2

>  <rationale>  (297) 
info info set:3d;hydroph_interaction:P107+Y89+Y90; pistack:H21; 

>  <experiment>  (297) 
3d

>  <cluster_label>  (297) 
3

>  <cluster_rank>  (297) 
34

>  <N_interactions>  (297) 
4

>  <∆∆G>  (297) 
-3.789105

>  <comRMSD>  (297) 
0.770221

>  <ROCS_TanimotoCombo>  (297) 
0.357

>  <ROCS_ShapeTanimoto>  (297) 
0.219

>  <ROCS_ColorTanimoto>  (297) 
0.138

$$$$
Z739025696
     RDKit          3D

 29 32  0  0  0  0  0  0  0  0999 V2000
   30.5479    8.0426    8.7902 C   0  0  0  0  0  0  0  0  0  0  0  0
   31.2511    9.0404    7.9015 C   0  0  0  0  0  0  0  0  0  0  0  0
   30.5653   10.3495    8.0733 C   0  0  0  0  0  0  0  0  0  0  0  0
   31.2242   11.3680    7.2246 C   0  0  0  0  0  0  0  0  0  0  0  0
   30.5423   12.6962    7.3285 C   0  0  0  0  0  0  0  0  0  0  0  0
   30.5280   13.4367    6.3420 O   0  0  0  0  0  0  0  0  0  0  0  0
   29.8272   13.1077    8.3904 N   0  0  0  0  0  0  0  0  0  0  0  0
   30.3317   14.0077    9.3718 C   0  0  0  0  0  0  0  0  0  0  0  0
   31.7724   14.3018    9.2723 C   0  0  0  0  0  0  0  0  0  0  0  0
   32.7483   13.3237    8.6283 C   0  0  0  0  0  0  0  0  0  0  0  0
   34.1801   13.5873    8.4758 C   0  0  0  0  0  0  0  0  0  0  0  0
   34.6224   14.9026    9.0119 C   0  0  0  0  0  0  0  0  0  0  0  0
   33.6038   15.6906    9.5732 C   0  0  0  0  0  0  0  0  0  0  0  0
   32.3158   15.4447    9.7073 N   0  0  0  0  0  0  0  0  0  0  0  0
   28.6004   13.5237    7.9303 C   0  0  0  0  0  0  0  0  0  0  0  0
   27.9509   12.7332    6.8771 C   0  0  0  0  0  0  0  0  0  0  0  0
   26.7843   13.0668    6.3667 C   0  0  0  0  0  0  0  0  0  0  0  0
   26.1590   14.3009    6.9249 C   0  0  0  0  0  0  0  0  0  0  0  0
   24.6481   14.7373    6.2624 Cl  0  0  0  0  0  0  0  0  0  0  0  0
   26.8094   15.0025    7.9202 C   0  0  0  0  0  0  0  0  0  0  0  0
   28.0031   14.6419    8.4225 C   0  0  0  0  0  0  0  0  0  0  0  0
   32.3113   11.1345    6.4316 C   0  0  0  0  0  0  0  0  0  0  0  0
   33.1281   11.8946    5.5739 C   0  0  0  0  0  0  0  0  0  0  0  0
   33.0347   13.3423    5.2590 C   0  0  0  0  0  0  0  0  0  0  0  0
   34.1061   11.1183    5.0023 N   0  0  0  0  0  0  0  0  0  0  0  0
   33.8568    9.8957    5.5274 N   0  0  0  0  0  0  0  0  0  0  0  0
   34.7095    8.8414    5.1059 C   0  0  0  0  0  0  0  0  0  0  0  0
   32.7973    9.8429    6.4051 C   0  0  0  0  0  0  0  0  0  0  0  0
   32.3128    8.7663    7.1044 N   0  0  0  0  0  0  0  0  0  0  0  0
  1  2  1  0
  2  3  2  0
  3  4  1  0
  4  5  1  0
  5  6  2  0
  5  7  1  0
  7  8  1  0
  8  9  1  0
  9 10  2  0
 10 11  1  0
 11 12  2  0
 12 13  1  0
 13 14  2  0
  7 15  1  0
 15 16  2  0
 16 17  1  0
 17 18  2  0
 18 19  1  0
 18 20  1  0
 20 21  2  0
  4 22  2  0
 22 23  1  0
 23 24  1  0
 23 25  2  0
 25 26  1  0
 26 27  1  0
 26 28  1  0
 28 29  2  0
 29  2  1  0
 14  9  1  0
 21 15  1  0
 28 22  1  0
A    1
 C1 
A    2
 C2 
A    3
 C3 
A    4
 C4 
A    5
 C5 
A    6
 O1 
A    7
 N1 
A    8
 C6 
A    9
 C7 
A   10
 C8 
A   11
 C9 
A   12
 C10
A   13
 C11
A   14
 N2 
A   15
 C12
A   16
 C13
A   17
 C14
A   18
 C15
A   19
CL1 
A   20
 C16
A   21
 C17
A   22
 C18
A   23
 C19
A   24
 C20
A   25
 N3 
A   26
 N4 
A   27
 C21
A   28
 C22
A   29
 N5 
M  END
>  <ref_pdb>  (298) 
Ax0310a

>  <ref_mols>  (298) 
Ax0446a,Ax1080a,Ax0812a,Ax0719a,Ax1140a,Ax0528a,Ax0310a

>  <original SMILES>  (298) 
Cc1cc(C(=O)N(Cc2ccccn2)c2ccc(Cl)cc2)c2c(C)nn(C)c2n1

>  <rationale>  (298) 
info info set:screening_whole;hbond:S87; hydroph_interaction:P107+Y89+V124+H21+V84; pistack:H21; 

>  <experiment>  (298) 
screening_whole

>  <cluster_label>  (298) 
9

>  <cluster_rank>  (298) 
34

>  <N_interactions>  (298) 
8

>  <∆∆G>  (298) 
-9.529311

>  <comRMSD>  (298) 
0.921249

>  <ROCS_TanimotoCombo>  (298) 
0.454

>  <ROCS_ShapeTanimoto>  (298) 
0.294

>  <ROCS_ColorTanimoto>  (298) 
0.16

$$$$
Z431547414
     RDKit          3D

 16 17  0  0  0  0  0  0  0  0999 V2000
   31.9129   13.2535    8.7909 O   0  0  0  0  0  0  0  0  0  0  0  0
   31.2982   12.1685    8.0462 S   0  0  0  0  0  6  0  0  0  0  0  0
   30.6601   11.0172    8.6437 O   0  0  0  0  0  0  0  0  0  0  0  0
   30.2325   12.8540    6.9748 N   0  0  0  0  0  0  0  0  0  0  0  0
   29.3751   13.5209    7.3441 C   0  0  0  0  0  0  0  0  0  0  0  0
   27.9972   14.1261    7.2317 C   0  0  0  0  0  0  0  0  0  0  0  0
   27.6888   14.9616    8.2327 N   0  0  0  0  0  0  0  0  0  0  0  0
   28.7648   15.3879    8.6645 N   0  0  0  0  0  0  0  0  0  0  0  0
   29.6754   14.2176    8.6487 C   0  0  0  0  0  0  0  0  0  0  0  0
   32.5168   11.5420    6.9956 C   0  0  0  0  0  0  0  0  0  0  0  0
   33.6461   12.3834    6.4118 C   0  0  0  0  0  0  0  0  0  0  0  0
   34.7015   11.7905    5.4808 C   0  0  0  0  0  0  0  0  0  0  0  0
   34.6773   10.3125    5.0867 C   0  0  0  0  0  0  0  0  0  0  0  0
   33.5543    9.4783    5.6772 C   0  0  0  0  0  0  0  0  0  0  0  0
   32.4996   10.0626    6.6059 C   0  0  0  0  0  0  0  0  0  0  0  0
   31.5580    9.2023    7.0610 F   0  0  0  0  0  0  0  0  0  0  0  0
  1  2  2  0
  2  3  2  0
  2  4  1  0
  4  5  1  0
  5  6  2  0
  6  7  1  0
  7  8  2  0
  8  9  1  0
  2 10  1  0
 10 11  2  0
 11 12  1  0
 12 13  2  0
 13 14  1  0
 14 15  2  0
 15 16  1  0
  9  5  1  0
 15 10  1  0
A    1
 O1 
A    2
 S1 
A    3
 O2 
A    4
 N1 
A    5
 C1 
A    6
 C2 
A    7
 N2 
A    8
 N3 
A    9
 C3 
A   10
 C4 
A   11
 C5 
A   12
 C6 
A   13
 C7 
A   14
 C8 
A   15
 C9 
A   16
 F1 
M  END
>  <ref_pdb>  (299) 
Ax0310a

>  <ref_mols>  (299) 
Ax0446a,Ax1080a,Ax0812a,Ax0719a,Ax1140a,Ax0528a,Ax0310a

>  <original SMILES>  (299) 
O=S(=O)(NC1=CN=NC1)c1ccccc1F

>  <rationale>  (299) 
info info set:3d;halogenbond:S105; hbond:S87+G127+E88; 

>  <experiment>  (299) 
3d

>  <cluster_label>  (299) 
8

>  <cluster_rank>  (299) 
34

>  <N_interactions>  (299) 
5

>  <∆∆G>  (299) 
-1.856904

>  <comRMSD>  (299) 
0.668857

>  <ROCS_TanimotoCombo>  (299) 
0.297

>  <ROCS_ShapeTanimoto>  (299) 
0.201

>  <ROCS_ColorTanimoto>  (299) 
0.095

$$$$
EN300_9467750
     RDKit          3D

 15 16  0  0  0  0  0  0  0  0999 V2000
   34.4745   15.0613    8.3352 N   0  0  0  0  0  0  0  0  0  0  0  0
   33.2806   13.9201    8.4096 S   0  0  0  0  0  6  0  0  0  0  0  0
   33.7784   13.1946    9.5099 O   0  0  0  0  0  0  0  0  0  0  0  0
   31.9334   14.3945    8.5500 O   0  0  0  0  0  0  0  0  0  0  0  0
   33.5959   12.7309    7.1468 C   0  0  0  0  0  0  0  0  0  0  0  0
   34.7971   12.8511    6.2134 C   0  0  0  0  0  0  0  0  0  0  0  0
   34.8718   11.5675    5.4158 C   0  0  0  0  0  0  0  0  0  0  0  0
   33.9326   10.3629    5.5676 C   0  0  0  0  0  0  0  0  0  0  0  0
   32.8800   10.4775    6.4837 C   0  0  0  0  0  0  0  0  0  0  0  0
   32.0316    9.2686    6.6461 C   0  0  0  0  0  0  0  0  0  0  0  0
   30.7876    9.0965    7.5778 C   0  0  0  0  0  0  0  0  0  0  0  0
   30.6859   10.3365    8.0814 C   0  0  0  0  0  0  0  0  0  0  0  0
   31.4679   11.5957    7.9757 C   0  0  0  0  0  0  0  0  0  0  0  0
   30.8963   13.0305    8.7602 Cl  0  0  0  0  0  0  0  0  0  0  0  0
   32.6323   11.6225    7.2187 C   0  0  0  0  0  0  0  0  0  0  0  0
  1  2  1  0
  2  3  2  0
  2  4  2  0
  2  5  1  0
  5  6  2  0
  6  7  1  0
  7  8  2  0
  8  9  1  0
  9 10  2  0
 10 11  1  0
 11 12  2  0
 12 13  1  0
 13 14  1  0
 13 15  2  0
 15  5  1  0
 15  9  1  0
A    1
 N1 
A    2
 S1 
A    3
 O1 
A    4
 O2 
A    5
 C1 
A    6
 C2 
A    7
 C3 
A    8
 C4 
A    9
 C5 
A   10
 C6 
A   11
 C7 
A   12
 C8 
A   13
 C9 
A   14
CL1 
A   15
 C10
M  END
>  <ref_pdb>  (300) 
Ax0310a

>  <ref_mols>  (300) 
Ax0446a,Ax1080a,Ax0812a,Ax0719a,Ax1140a,Ax0528a,Ax0310a

>  <original SMILES>  (300) 
NS(=O)(=O)c1cccc2cccc(Cl)c12

>  <rationale>  (300) 
info info set:sulfonimide_whole;hbond:S87+G127+A86; 

>  <experiment>  (300) 
sulfonimide_whole

>  <cluster_label>  (300) 
5

>  <cluster_rank>  (300) 
34

>  <N_interactions>  (300) 
3

>  <∆∆G>  (300) 
-0.662795

>  <comRMSD>  (300) 
0.634301

>  <ROCS_TanimotoCombo>  (300) 
0.331

>  <ROCS_ShapeTanimoto>  (300) 
0.191

>  <ROCS_ColorTanimoto>  (300) 
0.139

$$$$
EN300_679657
     RDKit          3D

 15 15  0  0  0  0  0  0  0  0999 V2000
   34.5153    9.7737    4.9153 C   0  0  0  0  0  0  0  0  0  0  0  0
   33.6446    8.8651    5.5783 O   0  0  0  0  0  0  0  0  0  0  0  0
   32.7186    9.4333    6.3821 C   0  0  0  0  0  0  0  0  0  0  0  0
   32.5351   10.8825    6.1356 C   0  0  0  0  0  0  0  0  0  0  0  0
   31.5511   11.6492    6.9629 C   0  0  0  0  0  0  0  0  0  0  0  0
   31.5958   13.0600    6.5221 C   0  0  0  0  0  0  0  0  0  0  0  0
   33.3127   13.5171    6.7938 S   0  0  0  0  0  6  0  0  0  0  0  0
   33.6946   14.6016    5.5869 N   0  0  0  0  0  0  0  0  0  0  0  0
   34.1447   12.4200    6.4206 O   0  0  0  0  0  0  0  0  0  0  0  0
   33.4402   14.1369    8.0899 O   0  0  0  0  0  0  0  0  0  0  0  0
   30.8301   10.9980    7.9302 C   0  0  0  0  0  0  0  0  0  0  0  0
   31.0444    9.5123    8.1521 C   0  0  0  0  0  0  0  0  0  0  0  0
   30.2950    8.9905    9.1288 O   0  0  0  0  0  0  0  0  0  0  0  0
   28.9772    9.4055    9.0769 C   0  0  0  0  0  0  0  0  0  0  0  0
   31.9619    8.8208    7.3736 C   0  0  0  0  0  0  0  0  0  0  0  0
  1  2  1  0
  2  3  1  0
  3  4  2  0
  4  5  1  0
  5  6  1  0
  6  7  1  0
  7  8  1  0
  7  9  2  0
  7 10  2  0
  5 11  2  0
 11 12  1  0
 12 13  1  0
 13 14  1  0
 12 15  2  0
 15  3  1  0
A    1
 C1 
A    2
 O1 
A    3
 C2 
A    4
 C3 
A    5
 C4 
A    6
 C5 
A    7
 S1 
A    8
 N1 
A    9
 O2 
A   10
 O3 
A   11
 C6 
A   12
 C7 
A   13
 O4 
A   14
 C8 
A   15
 C9 
M  END
>  <ref_pdb>  (301) 
Ax0310a

>  <ref_mols>  (301) 
Ax0446a,Ax1080a,Ax0812a,Ax0719a,Ax1140a,Ax0528a,Ax0310a

>  <original SMILES>  (301) 
COc1cc(CS(N)(=O)=O)cc(OC)c1

>  <rationale>  (301) 
info info set:sulfonimide_whole;hbond:S105+G127+A86; hydroph_interaction:P107; 

>  <experiment>  (301) 
sulfonimide_whole

>  <cluster_label>  (301) 
5

>  <cluster_rank>  (301) 
35

>  <N_interactions>  (301) 
4

>  <∆∆G>  (301) 
-4.668802

>  <comRMSD>  (301) 
0.759916

>  <ROCS_TanimotoCombo>  (301) 
0.304

>  <ROCS_ShapeTanimoto>  (301) 
0.183

>  <ROCS_ColorTanimoto>  (301) 
0.121

$$$$
Z31203798
     RDKit          3D

 26 30  0  0  0  0  0  0  0  0999 V2000
   29.8666    7.3613    8.9438 C   0  0  0  0  0  0  0  0  0  0  0  0
   29.3053    8.4402    9.7045 C   0  0  0  0  0  0  0  0  0  0  0  0
   30.0091    9.8319    9.1073 S   0  0  0  0  0  0  0  0  0  0  0  0
   30.9142    9.0840    8.0403 C   0  0  0  0  0  0  0  0  0  0  0  0
   31.7079    9.9332    7.2732 C   0  0  0  0  0  0  0  0  0  0  0  0
   31.3624   11.2385    7.3646 N   0  0  0  0  0  0  0  0  0  0  0  0
   32.0853   12.1013    6.7001 C   0  0  0  0  0  0  0  0  0  0  0  0
   31.6958   13.4109    6.8256 O   0  0  0  0  0  0  0  0  0  0  0  0
   30.4372   13.5626    7.3950 C   0  0  0  0  0  0  0  0  0  0  0  0
   29.2841   13.0021    6.5986 C   0  0  0  0  0  0  0  0  0  0  0  0
   27.9088   13.1987    7.2444 C   0  0  0  0  0  0  0  0  0  0  0  0
   27.8745   13.8824    8.5247 C   0  0  0  0  0  0  0  0  0  0  0  0
   29.0941   14.3935    9.2275 C   0  0  0  0  0  0  0  0  0  0  0  0
   28.9588   15.0216   10.4397 C   0  0  0  0  0  0  0  0  0  0  0  0
   30.0596   15.5358   11.0792 C   0  0  0  0  0  0  0  0  0  0  0  0
   31.2867   15.3968   10.5014 C   0  0  0  0  0  0  0  0  0  0  0  0
   31.4677   14.7046    9.2465 N   0  0  0  0  0  0  0  0  0  0  0  0
   30.3512   14.2279    8.6394 C   0  0  0  0  0  0  0  0  0  0  0  0
   33.1722   11.6701    5.9389 C   0  0  0  0  0  0  0  0  0  0  0  0
   34.0199   12.4911    5.2148 C   0  0  0  0  0  0  0  0  0  0  0  0
   35.0745   11.9430    4.4960 C   0  0  0  0  0  0  0  0  0  0  0  0
   35.2833   10.5691    4.4921 C   0  0  0  0  0  0  0  0  0  0  0  0
   34.4232    9.7376    5.2225 C   0  0  0  0  0  0  0  0  0  0  0  0
   33.3869   10.2663    5.9398 C   0  0  0  0  0  0  0  0  0  0  0  0
   32.6631    9.4054    6.5927 N   0  0  0  0  0  0  0  0  0  0  0  0
   30.7845    7.8159    8.0448 C   0  0  0  0  0  0  0  0  0  0  0  0
  1  2  2  0
  2  3  1  0
  3  4  1  0
  4  5  1  0
  5  6  2  0
  6  7  1  0
  7  8  1  0
  8  9  1  0
  9 10  2  0
 10 11  1  0
 11 12  2  0
 12 13  1  0
 13 14  2  0
 14 15  1  0
 15 16  2  0
 16 17  1  0
 17 18  2  0
  7 19  2  0
 19 20  1  0
 20 21  2  0
 21 22  1  0
 22 23  2  0
 23 24  1  0
 24 25  2  0
  4 26  2  0
 26  1  1  0
 25  5  1  0
 18  9  1  0
 24 19  1  0
 18 13  1  0
A    1
 C1 
A    2
 C2 
A    3
 S1 
A    4
 C3 
A    5
 C4 
A    6
 N1 
A    7
 C5 
A    8
 O1 
A    9
 C6 
A   10
 C7 
A   11
 C8 
A   12
 C9 
A   13
 C10
A   14
 C11
A   15
 C12
A   16
 C13
A   17
 N2 
A   18
 C14
A   19
 C15
A   20
 C16
A   21
 C17
A   22
 C18
A   23
 C19
A   24
 C20
A   25
 N3 
A   26
 C21
M  END
>  <ref_pdb>  (302) 
Ax0310a

>  <ref_mols>  (302) 
Ax0446a,Ax1080a,Ax0812a,Ax0719a,Ax1140a,Ax0528a,Ax0310a

>  <original SMILES>  (302) 
c1csc(-c2nc(Oc3cccc4cccnc34)c3ccccc3n2)c1

>  <rationale>  (302) 
info info set:screening_whole;hbond:S87+G127; hydroph_interaction:P107+Y90+V124+D109; pistack:H21; 

>  <experiment>  (302) 
screening_whole

>  <cluster_label>  (302) 
3

>  <cluster_rank>  (302) 
35

>  <N_interactions>  (302) 
7

>  <∆∆G>  (302) 
-3.638431

>  <comRMSD>  (302) 
0.849472

>  <ROCS_TanimotoCombo>  (302) 
0.463

>  <ROCS_ShapeTanimoto>  (302) 
0.269

>  <ROCS_ColorTanimoto>  (302) 
0.193

$$$$
Z1460653484
     RDKit          3D

 16 17  0  0  0  0  0  0  0  0999 V2000
   36.0664   14.2367    8.5590 N   0  0  0  0  0  0  0  0  0  0  0  0
   34.9381   14.5003    7.7054 C   0  0  1  0  0  0  0  0  0  0  0  0
   35.1130   13.8293    6.3965 C   0  0  0  0  0  0  0  0  0  0  0  0
   33.9564   12.9238    6.0798 C   0  0  0  0  0  0  0  0  0  0  0  0
   33.0079   13.4227    6.9005 N   0  0  0  0  0  0  0  0  0  0  0  0
   31.8514   12.7308    6.8811 C   0  0  0  0  0  0  0  0  0  0  0  0
   30.7552   13.2682    6.7818 O   0  0  0  0  0  0  0  0  0  0  0  0
   31.8492   11.3692    6.9839 C   0  0  0  0  0  0  0  0  0  0  0  0
   32.7111   10.6325    6.1982 C   0  0  0  0  0  0  0  0  0  0  0  0
   32.7210    9.2727    6.3179 C   0  0  0  0  0  0  0  0  0  0  0  0
   31.8631    8.6792    7.2266 C   0  0  0  0  0  0  0  0  0  0  0  0
   30.9895    9.3954    8.0143 C   0  0  0  0  0  0  0  0  0  0  0  0
   30.1852    8.7593    8.8721 F   0  0  0  0  0  0  0  0  0  0  0  0
   30.9803   10.7753    7.8836 C   0  0  0  0  0  0  0  0  0  0  0  0
   30.1673   11.5294    8.5953 F   0  0  0  0  0  0  0  0  0  0  0  0
   33.6368   13.8201    8.1544 C   0  0  0  0  0  0  0  0  0  0  0  0
  2  1  1  1
  2  3  1  0
  3  4  1  0
  4  5  1  0
  5  6  1  0
  6  7  2  0
  6  8  1  0
  8  9  2  0
  9 10  1  0
 10 11  2  0
 11 12  1  0
 12 13  1  0
 12 14  2  0
 14 15  1  0
  5 16  1  0
 16  2  1  0
 14  8  1  0
A    1
 N1 
A    2
 C1 
A    3
 C2 
A    4
 C3 
A    5
 N2 
A    6
 C4 
A    7
 O1 
A    8
 C5 
A    9
 C6 
A   10
 C7 
A   11
 C8 
A   12
 C9 
A   13
 F1 
A   14
 C10
A   15
 F2 
A   16
 C11
M  END
>  <ref_pdb>  (303) 
Ax0310a

>  <ref_mols>  (303) 
Ax0446a,Ax1080a,Ax0812a,Ax0719a,Ax1140a,Ax0528a,Ax0310a

>  <original SMILES>  (303) 
N[C@H]1CCN(C(=O)c2cccc(F)c2F)C1

>  <rationale>  (303) 
info info set:3d;halogenbond:S125; hbond:S87+E85; hydroph_interaction:P107; 

>  <experiment>  (303) 
3d

>  <cluster_label>  (303) 
9

>  <cluster_rank>  (303) 
35

>  <N_interactions>  (303) 
5

>  <∆∆G>  (303) 
-4.184381

>  <comRMSD>  (303) 
0.761675

>  <ROCS_TanimotoCombo>  (303) 
0.3

>  <ROCS_ShapeTanimoto>  (303) 
0.207

>  <ROCS_ColorTanimoto>  (303) 
0.092

$$$$
Z5370419413
     RDKit          3D

 21 22  0  0  0  0  0  0  0  0999 V2000
   30.8800    8.3900    8.1556 N   0  0  0  0  0  0  0  0  0  0  0  0
   31.7325    9.2282    7.3180 C   0  0  0  0  0  0  0  0  0  0  0  0
   32.6155    8.6334    6.5267 N   0  0  0  0  0  0  0  0  0  0  0  0
   33.4304    9.3456    5.7314 C   0  0  0  0  0  0  0  0  0  0  0  0
   33.4341   10.8647    5.6517 C   0  0  0  0  0  0  0  0  0  0  0  0
   32.4683   11.3592    6.5242 C   0  0  0  0  0  0  0  0  0  0  0  0
   32.4901   12.8788    6.4351 C   0  0  0  0  0  0  0  0  0  0  0  0
   33.4342   13.3689    5.5820 F   0  0  0  0  0  0  0  0  0  0  0  0
   32.7236   13.4660    7.6373 F   0  0  0  0  0  0  0  0  0  0  0  0
   31.3018   13.3355    5.9658 F   0  0  0  0  0  0  0  0  0  0  0  0
   31.6432   10.5865    7.3264 C   0  0  0  0  0  0  0  0  0  0  0  0
   30.6104   11.1419    8.2627 C   0  0  0  0  0  0  0  0  0  0  0  0
   30.1154   10.3032    8.9774 O   0  0  0  0  0  0  0  0  0  0  0  0
   30.3668   12.4909    8.2319 N   0  0  0  0  0  0  0  0  0  0  0  0
   29.1366   13.0754    8.8445 C   0  0  0  0  0  0  0  0  0  0  0  0
   28.5325   13.6341    7.8253 C   0  0  0  0  0  0  0  0  0  0  0  0
   28.8011   14.8189    7.4646 N   0  0  0  0  0  0  0  0  0  0  0  0
   28.0695   15.0565    6.3971 N   0  0  0  0  0  0  0  0  0  0  0  0
   27.2804   14.0959    5.9875 C   0  0  0  0  0  0  0  0  0  0  0  0
   26.2411   14.1867    4.5886 S   0  0  0  0  0  0  0  0  0  0  0  0
   27.3719   12.7454    6.9356 S   0  0  0  0  0  0  0  0  0  0  0  0
  1  2  1  0
  2  3  2  0
  3  4  1  0
  4  5  2  0
  5  6  1  0
  6  7  1  0
  7  8  1  0
  7  9  1  0
  7 10  1  0
  6 11  2  0
 11 12  1  0
 12 13  2  0
 12 14  1  0
 14 15  1  0
 15 16  1  0
 16 17  2  0
 17 18  1  0
 18 19  2  0
 19 20  1  0
 19 21  1  0
 11  2  1  0
 21 16  1  0
A    1
 N1 
A    2
 C1 
A    3
 N2 
A    4
 C2 
A    5
 C3 
A    6
 C4 
A    7
 C5 
A    8
 F1 
A    9
 F2 
A   10
 F3 
A   11
 C6 
A   12
 C7 
A   13
 O1 
A   14
 N3 
A   15
 C8 
A   16
 C9 
A   17
 N4 
A   18
 N5 
A   19
 C10
A   20
 S1 
A   21
 S2 
M  END
>  <ref_pdb>  (304) 
Ax0310a

>  <ref_mols>  (304) 
Ax0446a,Ax1080a,Ax0812a,Ax0719a,Ax1140a,Ax0528a,Ax0310a

>  <original SMILES>  (304) 
Nc1nccc(C(F)(F)F)c1C(=O)NCc1nnc(S)s1

>  <rationale>  (304) 
info info set:screening_pocket;hbond:S87+S105+E88; 

>  <experiment>  (304) 
screening_pocket

>  <cluster_label>  (304) 
8

>  <cluster_rank>  (304) 
35

>  <N_interactions>  (304) 
3

>  <∆∆G>  (304) 
-1.731844

>  <comRMSD>  (304) 
0.946841

>  <ROCS_TanimotoCombo>  (304) 
0.647

>  <ROCS_ShapeTanimoto>  (304) 
0.255

>  <ROCS_ColorTanimoto>  (304) 
0.392

$$$$
EN300_26687480
     RDKit          3D

 15 16  0  0  0  0  0  0  0  0999 V2000
   28.6510   15.6018    7.9584 N   0  0  0  0  0  0  0  0  0  0  0  0
   28.6639   14.2066    7.5204 C   0  0  0  0  0  0  0  0  0  0  0  0
   29.3827   13.2745    8.4769 C   0  0  0  0  0  0  0  0  0  0  0  0
   30.4402   12.5052    7.8211 N   0  0  0  0  0  0  0  0  0  0  0  0
   30.6123   11.1564    8.1141 C   0  0  0  0  0  0  0  0  0  0  0  0
   30.0799   10.5133    8.9658 O   0  0  0  0  0  0  0  0  0  0  0  0
   31.5408   10.2729    7.3468 C   0  0  0  0  0  0  0  0  0  0  0  0
   31.8195    8.9499    7.3397 N   0  0  0  0  0  0  0  0  0  0  0  0
   32.7578    8.6621    6.4297 N   0  0  0  0  0  0  0  0  0  0  0  0
   33.1074    9.8052    5.8250 C   0  0  0  0  0  0  0  0  0  0  0  0
   32.4150   10.9222    6.3149 C   0  0  0  0  0  0  0  0  0  0  0  0
   32.6368   12.3293    5.8057 C   0  0  0  0  0  0  0  0  0  0  0  0
   33.8864   12.3508    4.9077 C   0  0  0  0  0  0  0  0  0  0  0  0
   33.9230   11.1660    3.9573 C   0  0  0  0  0  0  0  0  0  0  0  0
   34.1206    9.8630    4.7518 C   0  0  0  0  0  0  0  0  0  0  0  0
  1  2  3  0
  2  3  1  0
  3  4  1  0
  4  5  1  0
  5  6  2  0
  5  7  1  0
  7  8  1  0
  8  9  1  0
  9 10  2  0
 10 11  1  0
 11 12  1  0
 12 13  1  0
 13 14  1  0
 14 15  1  0
 11  7  2  0
 15 10  1  0
A    1
 N1 
A    2
 C1 
A    3
 C2 
A    4
 N2 
A    5
 C3 
A    6
 O1 
A    7
 C4 
A    8
 N3 
A    9
 N4 
A   10
 C5 
A   11
 C6 
A   12
 C7 
A   13
 C8 
A   14
 C9 
A   15
 C10
M  END
>  <ref_pdb>  (305) 
Ax0310a

>  <ref_mols>  (305) 
Ax0446a,Ax1080a,Ax0812a,Ax0719a,Ax1140a,Ax0528a,Ax0310a

>  <original SMILES>  (305) 
N#CCNC(=O)c1[nH]nc2c1CCCC2

>  <rationale>  (305) 
info info set:bb_densepocket2;hbond:E88; hydroph_interaction:P107; 

>  <experiment>  (305) 
bb_densepocket2

>  <cluster_label>  (305) 
8

>  <cluster_rank>  (305) 
36

>  <N_interactions>  (305) 
2

>  <∆∆G>  (305) 
-3.268015

>  <comRMSD>  (305) 
0.520494

>  <ROCS_TanimotoCombo>  (305) 
0.615

>  <ROCS_ShapeTanimoto>  (305) 
0.241

>  <ROCS_ColorTanimoto>  (305) 
0.374

$$$$
EN300_26606575
     RDKit          3D

 18 19  0  0  0  0  0  0  0  0999 V2000
   28.4385   14.2406    8.1743 C   0  0  0  0  0  0  0  0  0  0  0  0
   29.1382   12.8906    8.2999 C   0  0  0  0  0  0  0  0  0  0  0  0
   30.3256   12.7431    7.4181 C   0  0  0  0  0  0  0  0  0  0  0  0
   30.3685   13.3701    6.3681 O   0  0  0  0  0  0  0  0  0  0  0  0
   31.3353   11.9029    7.7915 N   0  0  0  0  0  0  0  0  0  0  0  0
   30.8945   10.5340    7.9111 C   0  0  0  0  0  0  0  0  0  0  0  0
   31.5997    9.7926    6.8866 C   0  0  2  0  0  0  0  0  0  0  0  0
   31.9077    8.5687    7.4092 C   0  0  0  0  0  0  0  0  0  0  0  0
   32.7517   10.6428    6.5639 C   0  0  0  0  0  0  0  0  0  0  0  0
   33.8787   10.3247    5.7782 C   0  0  0  0  0  0  0  0  0  0  0  0
   34.8547   11.3027    5.6524 C   0  0  0  0  0  0  0  0  0  0  0  0
   34.6782   12.6159    6.3693 C   0  0  0  0  0  0  0  0  0  0  0  0
   35.9105   13.8562    6.3802 S   0  0  0  0  0  6  0  0  0  0  0  0
   35.0639   15.1955    6.9138 N   0  0  0  0  0  0  0  0  0  0  0  0
   36.9015   13.5382    7.3980 O   0  0  0  0  0  0  0  0  0  0  0  0
   36.5521   14.0824    5.0372 O   0  0  0  0  0  0  0  0  0  0  0  0
   33.5301   12.8724    7.0918 C   0  0  0  0  0  0  0  0  0  0  0  0
   32.5724   11.8741    7.1644 C   0  0  0  0  0  0  0  0  0  0  0  0
  1  2  2  0
  2  3  1  0
  3  4  2  0
  3  5  1  0
  5  6  1  0
  6  7  1  0
  7  8  1  1
  7  9  1  0
  9 10  2  0
 10 11  1  0
 11 12  2  0
 12 13  1  0
 13 14  1  0
 13 15  2  0
 13 16  2  0
 12 17  1  0
 17 18  2  0
 18  5  1  0
 18  9  1  0
A    1
 C1 
A    2
 C2 
A    3
 C3 
A    4
 O1 
A    5
 N1 
A    6
 C4 
A    7
 C5 
A    8
 C6 
A    9
 C7 
A   10
 C8 
A   11
 C9 
A   12
 C10
A   13
 S1 
A   14
 N2 
A   15
 O2 
A   16
 O3 
A   17
 C11
A   18
 C12
M  END
>  <ref_pdb>  (306) 
Ax0310a

>  <ref_mols>  (306) 
Ax0446a,Ax1080a,Ax0812a,Ax0719a,Ax1140a,Ax0528a,Ax0310a

>  <original SMILES>  (306) 
C=CC(=O)N1C[C@H](C)c2ccc(S(N)(=O)=O)cc21

>  <rationale>  (306) 
info info set:sulfonimide_whole;hbond:A86; 

>  <experiment>  (306) 
sulfonimide_whole

>  <cluster_label>  (306) 
5

>  <cluster_rank>  (306) 
36

>  <N_interactions>  (306) 
1

>  <∆∆G>  (306) 
-3.501052

>  <comRMSD>  (306) 
0.981967

>  <ROCS_TanimotoCombo>  (306) 
0.334

>  <ROCS_ShapeTanimoto>  (306) 
0.201

>  <ROCS_ColorTanimoto>  (306) 
0.133

$$$$
EN300_801021
     RDKit          3D

 16 17  0  0  0  0  0  0  0  0999 V2000
   28.9274    9.9000    8.8546 C   0  0  0  0  0  0  0  0  0  0  0  0
   29.7615    8.6727    8.9911 C   0  0  0  0  0  0  0  0  0  0  0  0
   29.7826    8.0861   10.2886 C   0  0  0  0  0  0  0  0  0  0  0  0
   29.1955    7.5354    8.4817 C   0  0  0  0  0  0  0  0  0  0  0  0
   31.1362    8.9216    8.6083 C   0  0  0  0  0  0  0  0  0  0  0  0
   31.6538    9.7786    7.4934 C   0  0  0  0  0  0  0  0  0  0  0  0
   32.5964    9.0573    6.6615 N   0  0  0  0  0  0  0  0  0  0  0  0
   33.1384    9.7369    5.6446 C   0  0  0  0  0  0  0  0  0  0  0  0
   34.1451    9.0145    4.7362 C   0  0  0  0  0  0  0  0  0  0  0  0
   34.7188    9.8422    3.5708 C   0  0  0  0  0  0  0  0  0  0  0  0
   34.2888   11.3134    3.3701 C   0  0  0  0  0  0  0  0  0  0  0  0
   33.2826   11.8881    4.3779 C   0  0  0  0  0  0  0  0  0  0  0  0
   32.7530   11.1675    5.4221 C   0  0  0  0  0  0  0  0  0  0  0  0
   31.8438   11.7873    6.2779 C   0  0  0  0  0  0  0  0  0  0  0  0
   31.2816   11.1048    7.3230 C   0  0  0  0  0  0  0  0  0  0  0  0
   30.3906   11.7829    8.1316 O   0  0  0  0  0  0  0  0  0  0  0  0
  1  2  1  0
  2  3  1  0
  2  4  1  0
  2  5  1  0
  5  6  1  0
  6  7  2  0
  7  8  1  0
  8  9  2  0
  9 10  1  0
 10 11  2  0
 11 12  1  0
 12 13  2  0
 13 14  1  0
 14 15  2  0
 15 16  1  0
 15  6  1  0
 13  8  1  0
A    1
 C1 
A    2
 C2 
A    3
 C3 
A    4
 C4 
A    5
 C5 
A    6
 C6 
A    7
 N1 
A    8
 C7 
A    9
 C8 
A   10
 C9 
A   11
 C10
A   12
 C11
A   13
 C12
A   14
 C13
A   15
 C14
A   16
 O1 
M  END
>  <ref_pdb>  (307) 
Ax0310a

>  <ref_mols>  (307) 
Ax0446a,Ax1080a,Ax0812a,Ax0719a,Ax1140a,Ax0528a,Ax0310a

>  <original SMILES>  (307) 
CC(C)(C)Cc1nc2ccccc2cc1O

>  <rationale>  (307) 
info info set:bb_densepocket2;hbond:S125; hydroph_interaction:P107+V124+D109; 

>  <experiment>  (307) 
bb_densepocket2

>  <cluster_label>  (307) 
3

>  <cluster_rank>  (307) 
36

>  <N_interactions>  (307) 
4

>  <∆∆G>  (307) 
-4.296984

>  <comRMSD>  (307) 
0.662065

>  <ROCS_TanimotoCombo>  (307) 
0.645

>  <ROCS_ShapeTanimoto>  (307) 
0.239

>  <ROCS_ColorTanimoto>  (307) 
0.406

$$$$
Z86235401
     RDKit          3D

 24 26  0  0  0  0  0  0  0  0999 V2000
   32.3697   14.6725    9.4676 O   0  0  0  0  0  0  0  0  0  0  0  0
   31.5908   13.8011    9.0679 N   0  0  0  0  0  4  0  0  0  0  0  0
   31.9334   12.8249    8.4155 O   0  0  0  0  0  1  0  0  0  0  0  0
   30.4761   14.1101    9.0584 C   0  0  0  0  0  0  0  0  0  0  0  0
   29.2570   14.6983    9.7385 C   0  0  0  0  0  0  0  0  0  0  0  0
   27.9772   14.8187    8.9790 C   0  0  0  0  0  0  0  0  0  0  0  0
   27.7161   14.4024    7.5884 C   0  0  0  0  0  0  0  0  0  0  0  0
   28.8017   13.8598    6.9755 C   0  0  0  0  0  0  0  0  0  0  0  0
   30.1283   13.7286    7.6991 C   0  0  0  0  0  0  0  0  0  0  0  0
   31.0058   13.1380    6.6951 O   0  0  0  0  0  0  0  0  0  0  0  0
   31.4081   11.8368    6.8115 C   0  0  0  0  0  0  0  0  0  0  0  0
   30.6553   11.0418    7.6075 N   0  0  0  0  0  0  0  0  0  0  0  0
   31.0713    9.7596    7.7089 C   0  0  0  0  0  0  0  0  0  0  0  0
   30.3386    8.8063    8.5900 C   0  0  0  0  0  0  0  0  0  0  0  0
   29.9230    9.2019    9.7402 F   0  0  0  0  0  0  0  0  0  0  0  0
   31.1367    7.8145    8.9677 F   0  0  0  0  0  0  0  0  0  0  0  0
   29.2415    8.2082    8.1106 F   0  0  0  0  0  0  0  0  0  0  0  0
   32.2501    9.2416    6.9898 N   0  0  0  0  0  0  0  0  0  0  0  0
   32.8433    9.9771    6.3336 C   0  0  0  0  0  0  0  0  0  0  0  0
   34.0788    9.5301    5.5707 C   0  0  0  0  0  0  0  0  0  0  0  0
   34.9243   10.4773    4.6954 C   0  0  0  0  0  0  0  0  0  0  0  0
   34.5299   11.8304    4.5901 C   0  0  0  0  0  0  0  0  0  0  0  0
   33.4030   12.3143    5.2495 C   0  0  0  0  0  0  0  0  0  0  0  0
   32.5318   11.4310    6.1286 C   0  0  0  0  0  0  0  0  0  0  0  0
  1  2  2  0
  2  3  1  0
  2  4  1  0
  4  5  2  0
  5  6  1  0
  6  7  2  0
  7  8  1  0
  8  9  2  0
  9 10  1  0
 10 11  1  0
 11 12  2  0
 12 13  1  0
 13 14  1  0
 14 15  1  0
 14 16  1  0
 14 17  1  0
 13 18  2  0
 18 19  1  0
 19 20  2  0
 20 21  1  0
 21 22  2  0
 22 23  1  0
 23 24  2  0
  9  4  1  0
 24 11  1  0
 24 19  1  0
M  CHG  2   2   1   3  -1
A    1
 O1 
A    2
 N1 
A    3
 O2 
A    4
 C1 
A    5
 C2 
A    6
 C3 
A    7
 C4 
A    8
 C5 
A    9
 C6 
A   10
 O3 
A   11
 C7 
A   12
 N2 
A   13
 C8 
A   14
 C9 
A   15
 F1 
A   16
 F2 
A   17
 F3 
A   18
 N3 
A   19
 C10
A   20
 C11
A   21
 C12
A   22
 C13
A   23
 C14
A   24
 C15
M  END
>  <ref_pdb>  (308) 
Ax0310a

>  <ref_mols>  (308) 
Ax0446a,Ax1080a,Ax0812a,Ax0719a,Ax1140a,Ax0528a,Ax0310a

>  <original SMILES>  (308) 
O=[N+]([O-])c1ccccc1Oc1nc(C(F)(F)F)nc2ccccc12

>  <rationale>  (308) 
info info set:screening_whole;halogenbond:P107; hydroph_interaction:P107+Y90; 

>  <experiment>  (308) 
screening_whole

>  <cluster_label>  (308) 
9

>  <cluster_rank>  (308) 
36

>  <N_interactions>  (308) 
3

>  <∆∆G>  (308) 
-0.811122

>  <comRMSD>  (308) 
0.736406

>  <ROCS_TanimotoCombo>  (308) 
0.472

>  <ROCS_ShapeTanimoto>  (308) 
0.282

>  <ROCS_ColorTanimoto>  (308) 
0.19

$$$$
EN300_801633
     RDKit          3D

 18 19  0  0  0  0  0  0  0  0999 V2000
   28.9501    8.7562    8.0684 C   0  0  0  0  0  0  0  0  0  0  0  0
   29.7497    8.3190    9.0311 C   0  0  0  0  0  0  0  0  0  0  0  0
   29.2216    8.7029   10.1791 C   0  0  0  0  0  0  0  0  0  0  0  0
   29.7548    6.9393    9.1884 C   0  0  0  0  0  0  0  0  0  0  0  0
   31.0627    8.9203    8.8158 C   0  0  0  0  0  0  0  0  0  0  0  0
   31.6261    9.7077    7.5891 C   0  0  0  0  0  0  0  0  0  0  0  0
   32.6034    9.0079    6.7691 N   0  0  0  0  0  0  0  0  0  0  0  0
   33.1167    9.6662    5.7218 C   0  0  0  0  0  0  0  0  0  0  0  0
   34.0620    9.0515    4.9036 C   0  0  0  0  0  0  0  0  0  0  0  0
   34.6121    9.6436    3.7959 C   0  0  0  0  0  0  0  0  0  0  0  0
   34.1746   11.0364    3.4649 C   0  0  0  0  0  0  0  0  0  0  0  0
   34.8153   11.8219    2.0822 Cl  0  0  0  0  0  0  0  0  0  0  0  0
   33.2554   11.6562    4.2932 C   0  0  0  0  0  0  0  0  0  0  0  0
   32.7244   10.9827    5.4158 C   0  0  0  0  0  0  0  0  0  0  0  0
   31.7852   11.6288    6.2391 C   0  0  0  0  0  0  0  0  0  0  0  0
   31.2103   11.0156    7.3440 C   0  0  0  0  0  0  0  0  0  0  0  0
   30.2512   11.6930    8.1673 N   0  0  0  0  0  0  0  0  0  0  0  0
   29.9116   13.0295    7.8999 N   0  0  0  0  0  0  0  0  0  0  0  0
  1  2  1  0
  2  3  1  0
  2  4  1  0
  2  5  1  0
  5  6  1  0
  6  7  2  0
  7  8  1  0
  8  9  2  0
  9 10  1  0
 10 11  2  0
 11 12  1  0
 11 13  1  0
 13 14  2  0
 14 15  1  0
 15 16  2  0
 16 17  1  0
 17 18  1  0
 16  6  1  0
 14  8  1  0
A    1
 C1 
A    2
 C2 
A    3
 C3 
A    4
 C4 
A    5
 C5 
A    6
 C6 
A    7
 N1 
A    8
 C7 
A    9
 C8 
A   10
 C9 
A   11
 C10
A   12
CL1 
A   13
 C11
A   14
 C12
A   15
 C13
A   16
 C14
A   17
 N2 
A   18
 N3 
M  END
>  <ref_pdb>  (309) 
Ax0310a

>  <ref_mols>  (309) 
Ax0446a,Ax1080a,Ax0812a,Ax0719a,Ax1140a,Ax0528a,Ax0310a

>  <original SMILES>  (309) 
CC(C)(C)Cc1nc2ccc(Cl)cc2cc1NN

>  <rationale>  (309) 
info info set:bb_densepocket2;hbond:S125; hydroph_interaction:P107+V124+D109; 

>  <experiment>  (309) 
bb_densepocket2

>  <cluster_label>  (309) 
3

>  <cluster_rank>  (309) 
37

>  <N_interactions>  (309) 
6

>  <∆∆G>  (309) 
-1.515344

>  <comRMSD>  (309) 
0.41848

>  <ROCS_TanimotoCombo>  (309) 
0.645

>  <ROCS_ShapeTanimoto>  (309) 
0.253

>  <ROCS_ColorTanimoto>  (309) 
0.392

$$$$
Z295692136
     RDKit          3D

 25 28  0  0  0  0  0  0  0  0999 V2000
   30.8268    8.5142    9.3361 F   0  0  0  0  0  0  0  0  0  0  0  0
   30.4214    9.3135    8.3430 C   0  0  0  0  0  0  0  0  0  0  0  0
   29.3593    8.6606    7.8814 F   0  0  0  0  0  0  0  0  0  0  0  0
   29.9962   10.4338    8.8830 F   0  0  0  0  0  0  0  0  0  0  0  0
   31.4894    9.6795    7.3690 C   0  0  0  0  0  0  0  0  0  0  0  0
   32.3693    8.8535    6.9259 N   0  0  0  0  0  0  0  0  0  0  0  0
   33.1787    9.6338    6.0918 C   0  0  0  0  0  0  0  0  0  0  0  0
   34.4154    9.1636    5.2997 C   0  0  0  0  0  0  0  0  0  0  0  0
   35.0049   10.3442    4.5367 C   0  0  0  0  0  0  0  0  0  0  0  0
   34.4226   11.7411    4.5776 C   0  0  0  0  0  0  0  0  0  0  0  0
   33.2974   11.9964    5.3349 C   0  0  0  0  0  0  0  0  0  0  0  0
   32.7199   10.9544    6.0584 C   0  0  0  0  0  0  0  0  0  0  0  0
   31.6328   10.9364    6.8744 N   0  0  0  0  0  0  0  0  0  0  0  0
   30.8913   12.0083    7.1054 C   0  0  0  0  0  0  0  0  0  0  0  0
   31.3507   13.0471    8.0688 C   0  0  0  0  0  0  0  0  0  0  0  0
   32.5253   13.2173    8.6789 N   0  0  0  0  0  0  0  0  0  0  0  0
   32.3614   14.3301    9.4626 N   0  0  0  0  0  0  0  0  0  0  0  0
   31.1490   14.8343    9.3387 N   0  0  0  0  0  0  0  0  0  0  0  0
   30.5217   14.0322    8.4488 N   0  0  0  0  0  0  0  0  0  0  0  0
   29.2265   14.2457    8.0094 C   0  0  0  0  0  0  0  0  0  0  0  0
   28.8134   13.7558    6.7757 C   0  0  0  0  0  0  0  0  0  0  0  0
   27.5450   13.9899    6.3322 C   0  0  0  0  0  0  0  0  0  0  0  0
   26.6197   14.7732    7.1763 C   0  0  0  0  0  0  0  0  0  0  0  0
   27.1143   15.2219    8.4126 C   0  0  0  0  0  0  0  0  0  0  0  0
   28.3827   14.9555    8.8115 C   0  0  0  0  0  0  0  0  0  0  0  0
  1  2  1  0
  2  3  1  0
  2  4  1  0
  2  5  1  0
  5  6  2  0
  6  7  1  0
  7  8  2  0
  8  9  1  0
  9 10  2  0
 10 11  1  0
 11 12  2  0
 12 13  1  0
 13 14  1  0
 14 15  1  0
 15 16  2  0
 16 17  1  0
 17 18  2  0
 18 19  1  0
 19 20  1  0
 20 21  2  0
 21 22  1  0
 22 23  2  0
 23 24  1  0
 24 25  2  0
 13  5  1  0
 19 15  1  0
 25 20  1  0
 12  7  1  0
A    1
 F1 
A    2
 C1 
A    3
 F2 
A    4
 F3 
A    5
 C2 
A    6
 N1 
A    7
 C3 
A    8
 C4 
A    9
 C5 
A   10
 C6 
A   11
 C7 
A   12
 C8 
A   13
 N2 
A   14
 C9 
A   15
 C10
A   16
 N3 
A   17
 N4 
A   18
 N5 
A   19
 N6 
A   20
 C11
A   21
 C12
A   22
 C13
A   23
 C14
A   24
 C15
A   25
 C16
M  END
>  <ref_pdb>  (310) 
Ax0310a

>  <ref_mols>  (310) 
Ax0446a,Ax1080a,Ax0812a,Ax0719a,Ax1140a,Ax0528a,Ax0310a

>  <original SMILES>  (310) 
FC(F)(F)c1nc2ccccc2n1Cc1nnnn1-c1ccccc1

>  <rationale>  (310) 
info info set:screening_whole;halogenbond:P107+S125; hbond:S87+G127; hydroph_interaction:Y89+Y90+H21; 

>  <experiment>  (310) 
screening_whole

>  <cluster_label>  (310) 
9

>  <cluster_rank>  (310) 
37

>  <N_interactions>  (310) 
7

>  <∆∆G>  (310) 
-0.88392

>  <comRMSD>  (310) 
0.886171

>  <ROCS_TanimotoCombo>  (310) 
0.457

>  <ROCS_ShapeTanimoto>  (310) 
0.279

>  <ROCS_ColorTanimoto>  (310) 
0.179

$$$$
EN300_6734083
     RDKit          3D

 17 17  0  0  0  0  0  0  0  0999 V2000
   30.4141    8.8769    8.1701 C   0  0  0  0  0  0  0  0  0  0  0  0
   31.5230    8.1119    7.8719 C   0  0  0  0  0  0  0  0  0  0  0  0
   32.3672    8.7372    6.9203 O   0  0  0  0  0  0  0  0  0  0  0  0
   31.9539    9.9455    7.0810 C   0  0  0  0  0  0  0  0  0  0  0  0
   30.9431   10.0244    7.9836 C   0  0  0  0  0  0  0  0  0  0  0  0
   30.3984   11.3399    8.2350 C   0  0  0  0  0  0  0  0  0  0  0  0
   30.8856   12.4649    7.6108 C   0  0  0  0  0  0  0  0  0  0  0  0
   30.0664   13.9266    8.1028 S   0  0  0  0  0  6  0  0  0  0  0  0
   28.8475   13.4568    9.1275 N   0  0  0  0  0  0  0  0  0  0  0  0
   30.9645   14.6883    8.9464 O   0  0  0  0  0  0  0  0  0  0  0  0
   29.3360   14.4427    6.9683 O   0  0  0  0  0  0  0  0  0  0  0  0
   31.9391   12.3472    6.6790 C   0  0  0  0  0  0  0  0  0  0  0  0
   32.4710   11.0663    6.4096 C   0  0  0  0  0  0  0  0  0  0  0  0
   33.5665   10.8863    5.4236 C   0  0  0  0  0  0  0  0  0  0  0  0
   34.6288   10.3311    5.6123 O   0  0  0  0  0  0  0  0  0  0  0  0
   33.1812   11.4268    4.2490 O   0  0  0  0  0  0  0  0  0  0  0  0
   33.9990   11.0044    3.1612 C   0  0  0  0  0  0  0  0  0  0  0  0
  1  2  1  0
  2  3  1  0
  3  4  1  0
  4  5  2  0
  5  6  1  0
  6  7  2  0
  7  8  1  0
  8  9  1  0
  8 10  2  0
  8 11  2  0
  7 12  1  0
 12 13  2  0
 13 14  1  0
 14 15  2  0
 14 16  1  0
 16 17  1  0
 13  4  1  0
A    1
 C1 
A    2
 C2 
A    3
 O1 
A    4
 C3 
A    5
 C4 
A    6
 C5 
A    7
 C6 
A    8
 S1 
A    9
 N1 
A   10
 O2 
A   11
 O3 
A   12
 C7 
A   13
 C8 
A   14
 C9 
A   15
 O4 
A   16
 O5 
A   17
 C10
M  END
>  <ref_pdb>  (311) 
Ax0310a

>  <ref_mols>  (311) 
Ax0446a,Ax1080a,Ax0812a,Ax0719a,Ax1140a,Ax0528a,Ax0310a

>  <original SMILES>  (311) 
CCOc1ccc(S(N)(=O)=O)cc1C(=O)OC

>  <rationale>  (311) 
info info set:sulfonimide_whole;hbond:S87+S125+E88; hydroph_interaction:P107; 

>  <experiment>  (311) 
sulfonimide_whole

>  <cluster_label>  (311) 
8

>  <cluster_rank>  (311) 
37

>  <N_interactions>  (311) 
4

>  <∆∆G>  (311) 
-2.177076

>  <comRMSD>  (311) 
0.808073

>  <ROCS_TanimotoCombo>  (311) 
0.349

>  <ROCS_ShapeTanimoto>  (311) 
0.197

>  <ROCS_ColorTanimoto>  (311) 
0.152

$$$$
EN300_199249
     RDKit          3D

 14 14  0  0  0  0  0  0  0  0999 V2000
   33.6646    8.8859    5.9053 C   0  0  0  0  0  0  0  0  0  0  0  0
   32.5307    8.4865    6.7130 O   0  0  0  0  0  0  0  0  0  0  0  0
   32.0272    9.6450    7.0756 C   0  0  0  0  0  0  0  0  0  0  0  0
   30.8258    9.7508    7.7016 C   0  0  0  0  0  0  0  0  0  0  0  0
   30.3502   11.1279    8.0558 C   0  0  0  0  0  0  0  0  0  0  0  0
   31.1887   12.2205    7.7308 C   0  0  0  0  0  0  0  0  0  0  0  0
   32.4122   11.9772    7.0990 C   0  0  0  0  0  0  0  0  0  0  0  0
   33.3252   12.9979    6.7644 C   0  0  1  0  0  0  0  0  0  0  0  0
   33.1576   13.8094    5.6700 C   0  0  0  0  0  0  0  0  0  0  0  0
   33.5670   13.7849    8.3665 S   0  0  0  0  0  6  0  0  0  0  0  0
   34.8152   14.8268    7.9272 N   0  0  0  0  0  0  0  0  0  0  0  0
   32.3831   14.4523    8.8545 O   0  0  0  0  0  0  0  0  0  0  0  0
   34.1564   12.8676    9.2657 O   0  0  0  0  0  0  0  0  0  0  0  0
   32.8177   10.7114    6.7692 C   0  0  0  0  0  0  0  0  0  0  0  0
  1  2  1  0
  2  3  1  0
  3  4  2  0
  4  5  1  0
  5  6  2  0
  6  7  1  0
  7  8  1  0
  8  9  1  6
  8 10  1  0
 10 11  1  0
 10 12  2  0
 10 13  2  0
  7 14  2  0
 14  3  1  0
A    1
 C1 
A    2
 O1 
A    3
 C2 
A    4
 C3 
A    5
 C4 
A    6
 C5 
A    7
 C6 
A    8
 C7 
A    9
 C8 
A   10
 S1 
A   11
 N1 
A   12
 O2 
A   13
 O3 
A   14
 C9 
M  END
>  <ref_pdb>  (312) 
Ax0310a

>  <ref_mols>  (312) 
Ax0446a,Ax1080a,Ax0812a,Ax0719a,Ax1140a,Ax0528a,Ax0310a

>  <original SMILES>  (312) 
COc1cccc([C@@H](C)S(N)(=O)=O)c1

>  <rationale>  (312) 
info info set:sulfonimide_whole;hbond:S87+G127+A86; 

>  <experiment>  (312) 
sulfonimide_whole

>  <cluster_label>  (312) 
5

>  <cluster_rank>  (312) 
37

>  <N_interactions>  (312) 
3

>  <∆∆G>  (312) 
-6.235459

>  <comRMSD>  (312) 
0.63367

>  <ROCS_TanimotoCombo>  (312) 
0.327

>  <ROCS_ShapeTanimoto>  (312) 
0.181

>  <ROCS_ColorTanimoto>  (312) 
0.146

$$$$
EN300_195374
     RDKit          3D

 14 14  0  0  0  0  0  0  0  0999 V2000
   30.0119   11.7068    8.4368 N   0  0  0  0  0  0  0  0  0  0  0  0
   30.9205   10.8854    7.7736 C   0  0  0  0  0  0  0  0  0  0  0  0
   30.9010    9.3831    8.0233 C   0  0  0  0  0  0  0  0  0  0  0  0
   31.9605    8.6870    7.1910 C   0  0  0  0  0  0  0  0  0  0  0  0
   32.8327    9.3182    6.3155 C   0  0  0  0  0  0  0  0  0  0  0  0
   32.7768   10.6771    6.1626 C   0  0  0  0  0  0  0  0  0  0  0  0
   31.8446   11.4294    6.8793 C   0  0  0  0  0  0  0  0  0  0  0  0
   31.8314   12.7784    6.7047 C   0  0  0  0  0  0  0  0  0  0  0  0
   30.7682   13.3314    6.4370 O   0  0  0  0  0  0  0  0  0  0  0  0
   33.1714   13.4307    6.8675 C   0  0  0  0  0  0  0  0  0  0  0  0
   33.5617   13.8995    8.5488 S   0  0  0  0  0  6  0  0  0  0  0  0
   34.9292   14.8217    8.3210 N   0  0  0  0  0  0  0  0  0  0  0  0
   32.5289   14.7136    9.1570 O   0  0  0  0  0  0  0  0  0  0  0  0
   34.0275   12.7871    9.2628 O   0  0  0  0  0  0  0  0  0  0  0  0
  1  2  1  0
  2  3  2  0
  3  4  1  0
  4  5  2  0
  5  6  1  0
  6  7  2  0
  7  8  1  0
  8  9  2  0
  8 10  1  0
 10 11  1  0
 11 12  1  0
 11 13  2  0
 11 14  2  0
  7  2  1  0
A    1
 N1 
A    2
 C1 
A    3
 C2 
A    4
 C3 
A    5
 C4 
A    6
 C5 
A    7
 C6 
A    8
 C7 
A    9
 O1 
A   10
 C8 
A   11
 S1 
A   12
 N2 
A   13
 O2 
A   14
 O3 
M  END
>  <ref_pdb>  (313) 
Ax0310a

>  <ref_mols>  (313) 
Ax0446a,Ax1080a,Ax0812a,Ax0719a,Ax1140a,Ax0528a,Ax0310a

>  <original SMILES>  (313) 
Nc1ccccc1C(=O)CS(N)(=O)=O

>  <rationale>  (313) 
info info set:sulfonimide_whole;hbond:S87+S125+G127+E85; hydroph_interaction:P107; 

>  <experiment>  (313) 
sulfonimide_whole

>  <cluster_label>  (313) 
3

>  <cluster_rank>  (313) 
38

>  <N_interactions>  (313) 
5

>  <∆∆G>  (313) 
-5.854061

>  <comRMSD>  (313) 
0.429855

>  <ROCS_TanimotoCombo>  (313) 
0.376

>  <ROCS_ShapeTanimoto>  (313) 
0.192

>  <ROCS_ColorTanimoto>  (313) 
0.183

$$$$
Z99145633
     RDKit          3D

 28 31  0  0  0  0  0  0  0  0999 V2000
   26.8281   16.0954    9.5019 C   0  0  0  0  0  0  0  0  0  0  0  0
   27.8869   15.3422    8.9692 C   0  0  0  0  0  0  0  0  0  0  0  0
   27.8355   14.9623    7.5277 C   0  0  0  0  0  0  0  0  0  0  0  0
   28.9087   14.2190    6.9553 C   0  0  0  0  0  0  0  0  0  0  0  0
   29.9759   13.9043    7.9415 C   0  0  0  0  0  0  0  0  0  0  0  0
   31.0170   13.2219    7.5377 N   0  0  0  0  0  0  0  0  0  0  0  0
   31.6415   12.8133    8.5251 C   0  0  0  0  0  0  0  0  0  0  0  0
   32.6924   13.7833    8.8286 C   0  0  0  0  0  0  0  0  0  0  0  0
   33.9892   13.5992    8.5579 C   0  0  0  0  0  0  0  0  0  0  0  0
   34.6034   14.8492    9.0531 C   0  0  0  0  0  0  0  0  0  0  0  0
   33.4251   15.6750    9.6006 C   0  0  0  0  0  0  0  0  0  0  0  0
   32.2300   15.0187    9.4654 O   0  0  0  0  0  0  0  0  0  0  0  0
   30.5988   12.2044    6.7890 C   0  0  0  0  0  0  0  0  0  0  0  0
   29.4409   12.2411    6.1086 O   0  0  0  0  0  0  0  0  0  0  0  0
   31.4922   10.9979    6.7468 C   0  0  0  0  0  0  0  0  0  0  0  0
   31.3413    9.6539    7.4186 C   0  0  0  0  0  0  0  0  0  0  0  0
   30.3427    9.0722    8.3409 C   0  0  0  0  0  0  0  0  0  0  0  0
   32.3869    8.8761    7.0386 O   0  0  0  0  0  0  0  0  0  0  0  0
   33.1883    9.6568    6.2054 C   0  0  0  0  0  0  0  0  0  0  0  0
   34.3250    9.2291    5.6155 N   0  0  0  0  0  0  0  0  0  0  0  0
   35.0069   10.1797    5.0379 C   0  0  0  0  0  0  0  0  0  0  0  0
   34.6790   11.5229    5.0137 N   0  0  0  0  0  0  0  0  0  0  0  0
   35.7169   12.5174    5.2319 C   0  0  0  0  0  0  0  0  0  0  0  0
   33.3722   11.9025    5.2705 C   0  0  0  0  0  0  0  0  0  0  0  0
   32.8798   12.9626    4.8972 O   0  0  0  0  0  0  0  0  0  0  0  0
   32.6748   10.9239    6.0555 C   0  0  0  0  0  0  0  0  0  0  0  0
   29.9159   14.2934    9.2799 C   0  0  0  0  0  0  0  0  0  0  0  0
   28.8943   14.9950    9.7797 C   0  0  0  0  0  0  0  0  0  0  0  0
  1  2  1  0
  2  3  2  0
  3  4  1  0
  4  5  2  0
  5  6  1  0
  6  7  1  0
  7  8  1  0
  8  9  2  0
  9 10  1  0
 10 11  2  0
 11 12  1  0
  6 13  1  0
 13 14  2  0
 13 15  1  0
 15 16  2  0
 16 17  1  0
 16 18  1  0
 18 19  1  0
 19 20  1  0
 20 21  2  0
 21 22  1  0
 22 23  1  0
 22 24  1  0
 24 25  2  0
 24 26  1  0
  5 27  1  0
 27 28  2  0
 28  2  1  0
 12  8  1  0
 26 15  1  0
 26 19  2  0
A    1
 C1 
A    2
 C2 
A    3
 C3 
A    4
 C4 
A    5
 C5 
A    6
 N1 
A    7
 C6 
A    8
 C7 
A    9
 C8 
A   10
 C9 
A   11
 C10
A   12
 O1 
A   13
 C11
A   14
 O2 
A   15
 C12
A   16
 C13
A   17
 C14
A   18
 O3 
A   19
 C15
A   20
 N2 
A   21
 C16
A   22
 N3 
A   23
 C17
A   24
 C18
A   25
 O4 
A   26
 C19
A   27
 C20
A   28
 C21
M  END
>  <ref_pdb>  (314) 
Ax0310a

>  <ref_mols>  (314) 
Ax0446a,Ax1080a,Ax0812a,Ax0719a,Ax1140a,Ax0528a,Ax0310a

>  <original SMILES>  (314) 
Cc1ccc(N(Cc2ccco2)C(=O)c2c(C)oc3ncn(C)c(=O)c23)cc1

>  <rationale>  (314) 
info info set:screening_whole;hydroph_interaction:P107+Y89+Y90+H21+V84; 

>  <experiment>  (314) 
screening_whole

>  <cluster_label>  (314) 
9

>  <cluster_rank>  (314) 
38

>  <N_interactions>  (314) 
6

>  <∆∆G>  (314) 
-6.686296

>  <comRMSD>  (314) 
0.795487

>  <ROCS_TanimotoCombo>  (314) 
0.46

>  <ROCS_ShapeTanimoto>  (314) 
0.294

>  <ROCS_ColorTanimoto>  (314) 
0.167

$$$$
Z383128038
     RDKit          3D

 23 25  0  0  0  0  0  0  0  0999 V2000
   36.0155    9.4062    3.3415 C   0  0  0  0  0  0  0  0  0  0  0  0
   34.9286    9.9317    4.2972 C   0  0  0  0  0  0  0  0  0  0  0  0
   34.8652   11.3942    4.2391 C   0  0  0  0  0  0  0  0  0  0  0  0
   33.8410   12.0182    5.1262 C   0  0  0  0  0  0  0  0  0  0  0  0
   33.0093   11.0638    5.9682 C   0  0  0  0  0  0  0  0  0  0  0  0
   32.0195   11.7810    6.8226 C   0  0  0  0  0  0  0  0  0  0  0  0
   31.3031   10.7449    7.5863 C   0  0  0  0  0  0  0  0  0  0  0  0
   30.5678   11.9001    8.1953 C   0  0  0  0  0  0  0  0  0  0  0  0
   31.2713   12.7922    8.6187 O   0  0  0  0  0  0  0  0  0  0  0  0
   29.1820   11.9663    8.3011 N   0  0  0  0  0  0  0  0  0  0  0  0
   28.3035   11.9791    7.1420 C   0  0  0  0  0  0  0  0  0  0  0  0
   28.7707   13.1265    9.0675 C   0  0  0  0  0  0  0  0  0  0  0  0
   28.7450   13.8803    8.0429 C   0  0  0  0  0  0  0  0  0  0  0  0
   28.4744   15.2778    7.8753 C   0  0  0  0  0  0  0  0  0  0  0  0
   28.6151   15.4645    6.5812 N   0  0  0  0  0  0  0  0  0  0  0  0
   28.9213   14.3698    5.9828 N   0  0  0  0  0  0  0  0  0  0  0  0
   29.1272   14.2207    4.5904 C   0  0  0  0  0  0  0  0  0  0  0  0
   29.0422   13.3259    6.7430 C   0  0  0  0  0  0  0  0  0  0  0  0
   31.4141    9.4068    7.6014 C   0  0  0  0  0  0  0  0  0  0  0  0
   30.5344    8.6244    8.5260 C   0  0  0  0  0  0  0  0  0  0  0  0
   32.3521    8.8379    6.7660 N   0  0  0  0  0  0  0  0  0  0  0  0
   33.1319    9.6586    5.9709 C   0  0  0  0  0  0  0  0  0  0  0  0
   34.1141    9.1491    5.1084 C   0  0  0  0  0  0  0  0  0  0  0  0
  1  2  1  0
  2  3  2  0
  3  4  1  0
  4  5  2  0
  5  6  1  0
  6  7  2  0
  7  8  1  0
  8  9  2  0
  8 10  1  0
 10 11  1  0
 10 12  1  0
 12 13  1  0
 13 14  1  0
 14 15  2  0
 15 16  1  0
 16 17  1  0
 16 18  1  0
  7 19  1  0
 19 20  1  0
 19 21  2  0
 21 22  1  0
 22 23  2  0
 23  2  1  0
 22  5  1  0
 18 13  2  0
A    1
 C1 
A    2
 C2 
A    3
 C3 
A    4
 C4 
A    5
 C5 
A    6
 C6 
A    7
 C7 
A    8
 C8 
A    9
 O1 
A   10
 N1 
A   11
 C9 
A   12
 C10
A   13
 C11
A   14
 C12
A   15
 N2 
A   16
 N3 
A   17
 C13
A   18
 C14
A   19
 C15
A   20
 C16
A   21
 N4 
A   22
 C17
A   23
 C18
M  END
>  <ref_pdb>  (315) 
Ax0310a

>  <ref_mols>  (315) 
Ax0446a,Ax1080a,Ax0812a,Ax0719a,Ax1140a,Ax0528a,Ax0310a

>  <original SMILES>  (315) 
Cc1ccc2cc(C(=O)N(C)Cc3cnn(C)c3)c(C)nc2c1

>  <rationale>  (315) 
info info set:screening_pocket;hbond:S87+G127+E88; hydroph_interaction:V124; pistack:H21; 

>  <experiment>  (315) 
screening_pocket

>  <cluster_label>  (315) 
8

>  <cluster_rank>  (315) 
38

>  <N_interactions>  (315) 
6

>  <∆∆G>  (315) 
-4.559798

>  <comRMSD>  (315) 
0.855448

>  <ROCS_TanimotoCombo>  (315) 
0.628

>  <ROCS_ShapeTanimoto>  (315) 
0.295

>  <ROCS_ColorTanimoto>  (315) 
0.333

$$$$
Z839115174
     RDKit          3D

 13 13  0  0  0  0  0  0  0  0999 V2000
   29.2404   13.4490    7.3426 C   0  0  0  0  0  0  0  0  0  0  0  0
   30.5572   13.3980    7.8915 O   0  0  0  0  0  0  0  0  0  0  0  0
   31.1560   12.1647    7.5656 C   0  0  0  0  0  0  0  0  0  0  0  0
   30.5767   10.8426    7.7724 C   0  0  0  0  0  0  0  0  0  0  0  0
   31.2097    9.5535    7.3972 C   0  0  0  0  0  0  0  0  0  0  0  0
   32.5753    9.2810    6.7165 C   0  0  0  0  0  0  0  0  0  0  0  0
   33.1644   10.5714    6.5311 C   0  0  0  0  0  0  0  0  0  0  0  0
   32.5748   11.9794    6.9123 C   0  0  0  0  0  0  0  0  0  0  0  0
   33.4966   13.1628    6.5874 C   0  0  0  0  0  0  0  0  0  0  0  0
   34.0816   13.8703    7.8233 C   0  0  0  0  0  0  0  0  0  0  0  0
   33.0386   14.2085    8.9288 C   0  0  0  0  0  0  0  0  0  0  0  0
   34.1154   13.4222    9.2210 C   0  0  0  0  0  0  0  0  0  0  0  0
   35.0588   14.9296    7.6031 N   0  0  0  0  0  0  0  0  0  0  0  0
  1  2  1  0
  2  3  1  0
  3  4  2  0
  4  5  1  0
  5  6  2  0
  6  7  1  0
  7  8  2  0
  8  9  1  0
  9 10  1  0
 10 11  1  0
 10 12  1  0
 10 13  1  0
  8  3  1  0
A    1
 C1 
A    2
 O1 
A    3
 C2 
A    4
 C3 
A    5
 C4 
A    6
 C5 
A    7
 C6 
A    8
 C7 
A    9
 C8 
A   10
 C9 
A   11
 C10
A   12
 C11
A   13
 N1 
M  END
>  <ref_pdb>  (316) 
Ax0310a

>  <ref_mols>  (316) 
Ax0446a,Ax1080a,Ax0812a,Ax0719a,Ax1140a,Ax0528a,Ax0310a

>  <original SMILES>  (316) 
COc1ccccc1CC(C)(C)N

>  <rationale>  (316) 
info info set:3d;hbond:S87+A86; 

>  <experiment>  (316) 
3d

>  <cluster_label>  (316) 
5

>  <cluster_rank>  (316) 
38

>  <N_interactions>  (316) 
2

>  <∆∆G>  (316) 
-7.578056

>  <comRMSD>  (316) 
0.823119

>  <ROCS_TanimotoCombo>  (316) 
0.283

>  <ROCS_ShapeTanimoto>  (316) 
0.177

>  <ROCS_ColorTanimoto>  (316) 
0.105

$$$$
Z317046438
     RDKit          3D

 17 18  0  0  0  0  0  0  0  0999 V2000
   32.1741   13.4719    5.5923 C   0  0  0  0  0  0  0  0  0  0  0  0
   32.3448   13.0537    7.0843 C   0  0  0  0  0  0  0  0  0  0  0  0
   33.8322   13.3908    7.3930 C   0  0  0  0  0  0  0  0  0  0  0  0
   31.4566   13.7950    8.1005 C   0  0  0  0  0  0  0  0  0  0  0  0
   31.9835   14.3180    9.0877 O   0  0  0  0  0  0  0  0  0  0  0  0
   30.0908   13.8679    7.8920 N   0  0  0  0  0  0  0  0  0  0  0  0
   29.4479   13.3649    6.7466 C   0  0  0  0  0  0  0  0  0  0  0  0
   27.8976   13.0881    6.9085 C   0  0  0  0  0  0  0  0  0  0  0  0
   27.2876   13.9347    7.8119 N   0  0  0  0  0  0  0  0  0  0  0  0
   28.0522   14.0929    8.9482 C   0  0  0  0  0  0  0  0  0  0  0  0
   29.2592   14.6913    8.6259 C   0  0  0  0  0  0  0  0  0  0  0  0
   31.8984   11.6178    7.3282 C   0  0  0  0  0  0  0  0  0  0  0  0
   32.7328   10.7783    6.4252 C   0  0  0  0  0  0  0  0  0  0  0  0
   32.5413    9.4061    6.4750 C   0  0  0  0  0  0  0  0  0  0  0  0
   31.5090    8.6961    7.4227 C   0  0  0  0  0  0  0  0  0  0  0  0
   30.8095    9.6312    8.1788 C   0  0  0  0  0  0  0  0  0  0  0  0
   30.9632   11.1234    8.1668 C   0  0  0  0  0  0  0  0  0  0  0  0
  1  2  1  0
  2  3  1  0
  2  4  1  0
  4  5  2  0
  4  6  1  0
  6  7  1  0
  7  8  1  0
  8  9  1  0
  9 10  1  0
 10 11  1  0
  2 12  1  0
 12 13  2  0
 13 14  1  0
 14 15  2  0
 15 16  1  0
 16 17  2  0
 11  6  1  0
 17 12  1  0
A    1
 C1 
A    2
 C2 
A    3
 C3 
A    4
 C4 
A    5
 O1 
A    6
 N1 
A    7
 C5 
A    8
 C6 
A    9
 N2 
A   10
 C7 
A   11
 C8 
A   12
 C9 
A   13
 C10
A   14
 C11
A   15
 C12
A   16
 C13
A   17
 C14
M  END
>  <ref_pdb>  (317) 
Ax0310a

>  <ref_mols>  (317) 
Ax0446a,Ax1080a,Ax0812a,Ax0719a,Ax1140a,Ax0528a,Ax0310a

>  <original SMILES>  (317) 
CC(C)(C(=O)N1CCNCC1)c1ccccc1

>  <rationale>  (317) 
info info set:3d;hbond:S87+E88; 

>  <experiment>  (317) 
3d

>  <cluster_label>  (317) 
8

>  <cluster_rank>  (317) 
39

>  <N_interactions>  (317) 
2

>  <∆∆G>  (317) 
-7.753866

>  <comRMSD>  (317) 
0.563192

>  <ROCS_TanimotoCombo>  (317) 
0.299

>  <ROCS_ShapeTanimoto>  (317) 
0.201

>  <ROCS_ColorTanimoto>  (317) 
0.097

$$$$
Z739042472
     RDKit          3D

 30 33  0  0  0  0  0  0  0  0999 V2000
   30.5799    8.1547    8.7853 C   0  0  0  0  0  0  0  0  0  0  0  0
   31.2308    9.1134    7.8903 C   0  0  0  0  0  0  0  0  0  0  0  0
   30.5786   10.4590    7.9325 C   0  0  0  0  0  0  0  0  0  0  0  0
   31.2762   11.4362    7.0061 C   0  0  0  0  0  0  0  0  0  0  0  0
   30.7678   12.8698    6.8274 C   0  0  0  0  0  0  0  0  0  0  0  0
   30.8807   13.3236    5.6930 O   0  0  0  0  0  0  0  0  0  0  0  0
   30.2010   13.5625    7.8323 N   0  0  0  0  0  0  0  0  0  0  0  0
   30.6665   13.3114    9.0984 C   0  0  0  0  0  0  0  0  0  0  0  0
   32.0385   13.9010    9.1297 C   0  0  0  0  0  0  0  0  0  0  0  0
   33.0798   13.1621    8.5994 C   0  0  0  0  0  0  0  0  0  0  0  0
   34.4584   13.7397    8.6126 C   0  0  0  0  0  0  0  0  0  0  0  0
   34.6146   14.9153    9.1215 C   0  0  0  0  0  0  0  0  0  0  0  0
   33.4768   15.5577    9.6152 C   0  0  0  0  0  0  0  0  0  0  0  0
   32.1805   15.1279    9.6582 N   0  0  0  0  0  0  0  0  0  0  0  0
   28.9511   14.0257    7.7320 C   0  0  0  0  0  0  0  0  0  0  0  0
   28.3699   14.8696    8.7042 C   0  0  0  0  0  0  0  0  0  0  0  0
   27.0205   15.4682    8.6928 C   0  0  0  0  0  0  0  0  0  0  0  0
   26.5392   14.8823    7.3326 C   0  0  0  0  0  0  0  0  0  0  0  0
   25.3387   15.1936    6.8532 F   0  0  0  0  0  0  0  0  0  0  0  0
   27.1124   14.0722    6.4527 C   0  0  0  0  0  0  0  0  0  0  0  0
   28.3065   13.6493    6.6595 C   0  0  0  0  0  0  0  0  0  0  0  0
   28.8738   12.8682    5.8065 F   0  0  0  0  0  0  0  0  0  0  0  0
   32.3686   11.1043    6.2783 C   0  0  0  0  0  0  0  0  0  0  0  0
   33.2189   11.7936    5.3936 C   0  0  0  0  0  0  0  0  0  0  0  0
   33.1729   13.2179    4.9791 C   0  0  0  0  0  0  0  0  0  0  0  0
   34.1584   11.0097    4.9062 N   0  0  0  0  0  0  0  0  0  0  0  0
   33.9014    9.8250    5.4820 N   0  0  0  0  0  0  0  0  0  0  0  0
   34.7597    8.7639    5.1097 C   0  0  0  0  0  0  0  0  0  0  0  0
   32.8276    9.8199    6.3504 C   0  0  0  0  0  0  0  0  0  0  0  0
   32.3191    8.8029    7.1053 N   0  0  0  0  0  0  0  0  0  0  0  0
  1  2  1  0
  2  3  2  0
  3  4  1  0
  4  5  1  0
  5  6  2  0
  5  7  1  0
  7  8  1  0
  8  9  1  0
  9 10  2  0
 10 11  1  0
 11 12  2  0
 12 13  1  0
 13 14  2  0
  7 15  1  0
 15 16  2  0
 16 17  1  0
 17 18  2  0
 18 19  1  0
 18 20  1  0
 20 21  2  0
 21 22  1  0
  4 23  2  0
 23 24  1  0
 24 25  1  0
 24 26  2  0
 26 27  1  0
 27 28  1  0
 27 29  1  0
 29 30  2  0
 30  2  1  0
 14  9  1  0
 21 15  1  0
 29 23  1  0
A    1
 C1 
A    2
 C2 
A    3
 C3 
A    4
 C4 
A    5
 C5 
A    6
 O1 
A    7
 N1 
A    8
 C6 
A    9
 C7 
A   10
 C8 
A   11
 C9 
A   12
 C10
A   13
 C11
A   14
 N2 
A   15
 C12
A   16
 C13
A   17
 C14
A   18
 C15
A   19
 F1 
A   20
 C16
A   21
 C17
A   22
 F2 
A   23
 C18
A   24
 C19
A   25
 C20
A   26
 N3 
A   27
 N4 
A   28
 C21
A   29
 C22
A   30
 N5 
M  END
>  <ref_pdb>  (318) 
Ax0310a

>  <ref_mols>  (318) 
Ax0446a,Ax1080a,Ax0812a,Ax0719a,Ax1140a,Ax0528a,Ax0310a

>  <original SMILES>  (318) 
Cc1cc(C(=O)N(Cc2ccccn2)c2ccc(F)cc2F)c2c(C)nn(C)c2n1

>  <rationale>  (318) 
info info set:screening_whole;hbond:S87; hydroph_interaction:P107+Y89+Y90+V124+H21+V84; 

>  <experiment>  (318) 
screening_whole

>  <cluster_label>  (318) 
9

>  <cluster_rank>  (318) 
39

>  <N_interactions>  (318) 
8

>  <∆∆G>  (318) 
-4.57014

>  <comRMSD>  (318) 
0.79422

>  <ROCS_TanimotoCombo>  (318) 
0.458

>  <ROCS_ShapeTanimoto>  (318) 
0.298

>  <ROCS_ColorTanimoto>  (318) 
0.16

$$$$
EN300_277231
     RDKit          3D

 13 13  0  0  0  0  0  0  0  0999 V2000
   30.4504    8.1657    8.7032 C   0  0  0  0  0  0  0  0  0  0  0  0
   31.0940    9.2937    7.9523 C   0  0  0  0  0  0  0  0  0  0  0  0
   30.5562   10.6837    8.1218 C   0  0  0  0  0  0  0  0  0  0  0  0
   31.1684   11.8604    7.4205 C   0  0  0  0  0  0  0  0  0  0  0  0
   32.3777   11.5942    6.5202 C   0  0  0  0  0  0  0  0  0  0  0  0
   32.6716   13.0618    6.0619 C   0  0  0  0  0  0  0  0  0  0  0  0
   33.8012   13.7721    6.8014 C   0  0  0  0  0  0  0  0  0  0  0  0
   33.7123   13.9444    8.5923 S   0  0  0  0  0  6  0  0  0  0  0  0
   35.1368   14.7349    8.9700 N   0  0  0  0  0  0  0  0  0  0  0  0
   32.6201   14.7401    9.1014 O   0  0  0  0  0  0  0  0  0  0  0  0
   33.9051   12.6886    9.1645 O   0  0  0  0  0  0  0  0  0  0  0  0
   32.9151   10.1635    6.3354 C   0  0  0  0  0  0  0  0  0  0  0  0
   32.1987    9.0436    7.1034 C   0  0  0  0  0  0  0  0  0  0  0  0
  1  2  1  0
  2  3  2  0
  3  4  1  0
  4  5  2  0
  5  6  1  0
  6  7  1  0
  7  8  1  0
  8  9  1  0
  8 10  2  0
  8 11  2  0
  5 12  1  0
 12 13  2  0
 13  2  1  0
A    1
 C1 
A    2
 C2 
A    3
 C3 
A    4
 C4 
A    5
 C5 
A    6
 C6 
A    7
 C7 
A    8
 S1 
A    9
 N1 
A   10
 O1 
A   11
 O2 
A   12
 C8 
A   13
 C9 
M  END
>  <ref_pdb>  (319) 
Ax0310a

>  <ref_mols>  (319) 
Ax0446a,Ax1080a,Ax0812a,Ax0719a,Ax1140a,Ax0528a,Ax0310a

>  <original SMILES>  (319) 
Cc1ccc(CCS(N)(=O)=O)cc1

>  <rationale>  (319) 
info info set:sulfonimide_whole;hbond:S87+G127+E85; hydroph_interaction:V124; 

>  <experiment>  (319) 
sulfonimide_whole

>  <cluster_label>  (319) 
3

>  <cluster_rank>  (319) 
39

>  <N_interactions>  (319) 
4

>  <∆∆G>  (319) 
-9.05359

>  <comRMSD>  (319) 
0.801865

>  <ROCS_TanimotoCombo>  (319) 
0.351

>  <ROCS_ShapeTanimoto>  (319) 
0.168

>  <ROCS_ColorTanimoto>  (319) 
0.183

$$$$
EN300_801116
     RDKit          3D

 17 18  0  0  0  0  0  0  0  0999 V2000
   34.9399    8.2555    4.5087 C   0  0  0  0  0  0  0  0  0  0  0  0
   34.2247    9.5776    4.6271 C   0  0  0  0  0  0  0  0  0  0  0  0
   34.7972   10.4051    3.5280 C   0  0  0  0  0  0  0  0  0  0  0  0
   34.2741   11.7956    3.4180 C   0  0  0  0  0  0  0  0  0  0  0  0
   33.2181   12.2401    4.4292 C   0  0  0  0  0  0  0  0  0  0  0  0
   32.7365   11.3749    5.4314 C   0  0  0  0  0  0  0  0  0  0  0  0
   31.6371   12.0548    6.3608 C   0  0  0  0  0  0  0  0  0  0  0  0
   31.2323   10.9057    7.3594 C   0  0  0  0  0  0  0  0  0  0  0  0
   30.2551   11.2512    8.2552 O   0  0  0  0  0  0  0  0  0  0  0  0
   31.7871    9.6357    7.3415 C   0  0  0  0  0  0  0  0  0  0  0  0
   31.3904    8.5391    8.2665 C   0  0  0  0  0  0  0  0  0  0  0  0
   30.0572    8.6017    8.9853 C   0  0  0  0  0  0  0  0  0  0  0  0
   29.1354    9.7679    9.0355 C   0  0  0  0  0  0  0  0  0  0  0  0
   29.9086    8.0588   10.3290 C   0  0  0  0  0  0  0  0  0  0  0  0
   29.2673    7.5327    8.5379 C   0  0  0  0  0  0  0  0  0  0  0  0
   32.7419    9.2242    6.4843 N   0  0  0  0  0  0  0  0  0  0  0  0
   33.2191   10.0281    5.5482 C   0  0  0  0  0  0  0  0  0  0  0  0
  1  2  1  0
  2  3  2  0
  3  4  1  0
  4  5  2  0
  5  6  1  0
  6  7  2  0
  7  8  1  0
  8  9  1  0
  8 10  2  0
 10 11  1  0
 11 12  1  0
 12 13  1  0
 12 14  1  0
 12 15  1  0
 10 16  1  0
 16 17  2  0
 17  2  1  0
 17  6  1  0
A    1
 C1 
A    2
 C2 
A    3
 C3 
A    4
 C4 
A    5
 C5 
A    6
 C6 
A    7
 C7 
A    8
 C8 
A    9
 O1 
A   10
 C9 
A   11
 C10
A   12
 C11
A   13
 C12
A   14
 C13
A   15
 C14
A   16
 N1 
A   17
 C15
M  END
>  <ref_pdb>  (320) 
Ax0310a

>  <ref_mols>  (320) 
Ax0446a,Ax1080a,Ax0812a,Ax0719a,Ax1140a,Ax0528a,Ax0310a

>  <original SMILES>  (320) 
Cc1cccc2cc(O)c(CC(C)(C)C)nc12

>  <rationale>  (320) 
info info set:bb_densepocket2;hbond:S125; hydroph_interaction:P107+V124+D109; 

>  <experiment>  (320) 
bb_densepocket2

>  <cluster_label>  (320) 
3

>  <cluster_rank>  (320) 
40

>  <N_interactions>  (320) 
4

>  <∆∆G>  (320) 
-4.927495

>  <comRMSD>  (320) 
0.898787

>  <ROCS_TanimotoCombo>  (320) 
0.648

>  <ROCS_ShapeTanimoto>  (320) 
0.242

>  <ROCS_ColorTanimoto>  (320) 
0.406

$$$$
Z228922832
     RDKit          3D

 21 23  0  0  0  0  0  0  0  0999 V2000
   26.1443   13.7912    8.8812 C   0  0  0  0  0  0  0  0  0  0  0  0
   27.6073   13.7727    8.5608 C   0  0  0  0  0  0  0  0  0  0  0  0
   27.8862   13.0201    7.3173 C   0  0  0  0  0  0  0  0  0  0  0  0
   29.2714   12.7361    6.6439 C   0  0  0  0  0  0  0  0  0  0  0  0
   30.2875   13.4488    7.6229 C   0  0  0  0  0  0  0  0  0  0  0  0
   31.4355   13.2941    7.2565 O   0  0  0  0  0  0  0  0  0  0  0  0
   31.6879   11.9301    7.1454 C   0  0  0  0  0  0  0  0  0  0  0  0
   30.8723   11.0211    7.7756 N   0  0  0  0  0  0  0  0  0  0  0  0
   31.1516    9.6792    7.6418 C   0  0  0  0  0  0  0  0  0  0  0  0
   32.1441    9.0474    6.9521 N   0  0  0  0  0  0  0  0  0  0  0  0
   32.9493    9.9736    6.3196 C   0  0  0  0  0  0  0  0  0  0  0  0
   32.7404   11.4330    6.4106 C   0  0  0  0  0  0  0  0  0  0  0  0
   33.6856   12.1038    5.7033 C   0  0  0  0  0  0  0  0  0  0  0  0
   34.5116   11.1896    5.1341 N   0  0  0  0  0  0  0  0  0  0  0  0
   34.0446    9.9389    5.5119 N   0  0  0  0  0  0  0  0  0  0  0  0
   34.7399    8.7909    5.0260 C   0  0  0  0  0  0  0  0  0  0  0  0
   30.0068   14.1751    8.7839 C   0  0  0  0  0  0  0  0  0  0  0  0
   31.0184   14.7470    9.5033 N   0  0  0  0  0  4  0  0  0  0  0  0
   32.1734   14.4559    9.1707 O   0  0  0  0  0  0  0  0  0  0  0  0
   30.7272   15.8115   10.0698 O   0  0  0  0  0  1  0  0  0  0  0  0
   28.6043   14.3573    9.2950 C   0  0  0  0  0  0  0  0  0  0  0  0
  1  2  1  0
  2  3  2  0
  3  4  1  0
  4  5  2  0
  5  6  1  0
  6  7  1  0
  7  8  2  0
  8  9  1  0
  9 10  2  0
 10 11  1  0
 11 12  2  0
 12 13  1  0
 13 14  2  0
 14 15  1  0
 15 16  1  0
  5 17  1  0
 17 18  1  0
 18 19  2  0
 18 20  1  0
 17 21  2  0
 21  2  1  0
 12  7  1  0
 15 11  1  0
M  CHG  2  18   1  20  -1
A    1
 C1 
A    2
 C2 
A    3
 C3 
A    4
 C4 
A    5
 C5 
A    6
 O1 
A    7
 C6 
A    8
 N1 
A    9
 C7 
A   10
 N2 
A   11
 C8 
A   12
 C9 
A   13
 C10
A   14
 N3 
A   15
 N4 
A   16
 C11
A   17
 C12
A   18
 N5 
A   19
 O2 
A   20
 O3 
A   21
 C13
M  END
>  <ref_pdb>  (321) 
Ax0310a

>  <ref_mols>  (321) 
Ax0446a,Ax1080a,Ax0812a,Ax0719a,Ax1140a,Ax0528a,Ax0310a

>  <original SMILES>  (321) 
Cc1ccc(Oc2ncnc3c2cnn3C)c([N+](=O)[O-])c1

>  <rationale>  (321) 
info info set:screening_whole;hydroph_interaction:P107+Y89+H21; 

>  <experiment>  (321) 
screening_whole

>  <cluster_label>  (321) 
9

>  <cluster_rank>  (321) 
40

>  <N_interactions>  (321) 
3

>  <∆∆G>  (321) 
-5.438306

>  <comRMSD>  (321) 
0.615563

>  <ROCS_TanimotoCombo>  (321) 
0.467

>  <ROCS_ShapeTanimoto>  (321) 
0.246

>  <ROCS_ColorTanimoto>  (321) 
0.22

$$$$
EN300_274975
     RDKit          3D

 14 14  0  0  0  0  0  0  0  0999 V2000
   31.4497    8.3461    8.1880 C   0  0  0  0  0  0  0  0  0  0  0  0
   32.1911    8.6898    7.0507 O   0  0  0  0  0  0  0  0  0  0  0  0
   31.8247    9.9181    7.1767 C   0  0  0  0  0  0  0  0  0  0  0  0
   30.7469   10.0806    8.0153 C   0  0  0  0  0  0  0  0  0  0  0  0
   30.2599   11.3022    8.2614 C   0  0  0  0  0  0  0  0  0  0  0  0
   30.8310   12.3711    7.6937 C   0  0  0  0  0  0  0  0  0  0  0  0
   30.1098   13.8830    8.1224 S   0  0  0  0  0  6  0  0  0  0  0  0
   28.8809   13.5843    9.2114 N   0  0  0  0  0  0  0  0  0  0  0  0
   29.3891   14.3607    6.9709 O   0  0  0  0  0  0  0  0  0  0  0  0
   31.0858   14.6095    8.9052 O   0  0  0  0  0  0  0  0  0  0  0  0
   31.9323   12.2520    6.8210 C   0  0  0  0  0  0  0  0  0  0  0  0
   32.5123   13.3172    6.2367 F   0  0  0  0  0  0  0  0  0  0  0  0
   32.4397   10.9843    6.5574 C   0  0  0  0  0  0  0  0  0  0  0  0
   33.4866   10.8009    5.7363 F   0  0  0  0  0  0  0  0  0  0  0  0
  1  2  1  0
  2  3  1  0
  3  4  2  0
  4  5  1  0
  5  6  2  0
  6  7  1  0
  7  8  1  0
  7  9  2  0
  7 10  2  0
  6 11  1  0
 11 12  1  0
 11 13  2  0
 13 14  1  0
 13  3  1  0
A    1
 C1 
A    2
 O1 
A    3
 C2 
A    4
 C3 
A    5
 C4 
A    6
 C5 
A    7
 S1 
A    8
 N1 
A    9
 O2 
A   10
 O3 
A   11
 C6 
A   12
 F1 
A   13
 C7 
A   14
 F2 
M  END
>  <ref_pdb>  (322) 
Ax0310a

>  <ref_mols>  (322) 
Ax0446a,Ax1080a,Ax0812a,Ax0719a,Ax1140a,Ax0528a,Ax0310a

>  <original SMILES>  (322) 
COc1ccc(S(N)(=O)=O)c(F)c1F

>  <rationale>  (322) 
info info set:sulfonimide_whole;hbond:S87+S125+E88; 

>  <experiment>  (322) 
sulfonimide_whole

>  <cluster_label>  (322) 
8

>  <cluster_rank>  (322) 
40

>  <N_interactions>  (322) 
3

>  <∆∆G>  (322) 
-3.917673

>  <comRMSD>  (322) 
0.627222

>  <ROCS_TanimotoCombo>  (322) 
0.33

>  <ROCS_ShapeTanimoto>  (322) 
0.198

>  <ROCS_ColorTanimoto>  (322) 
0.132

$$$$
Z219699312
     RDKit          3D

 18 20  0  0  0  0  0  0  0  0999 V2000
   34.8640   13.7708    5.8517 C   0  0  0  0  0  0  0  0  0  0  0  0
   33.8987   12.6966    6.3347 C   0  0  0  0  0  0  0  0  0  0  0  0
   32.8625   13.2397    7.2439 C   0  0  0  0  0  0  0  0  0  0  0  0
   31.9397   12.3758    7.7465 C   0  0  0  0  0  0  0  0  0  0  0  0
   30.9432   13.0730    8.6273 C   0  0  0  0  0  0  0  0  0  0  0  0
   31.3585   13.6372    9.6221 O   0  0  0  0  0  0  0  0  0  0  0  0
   29.6480   13.1521    8.2511 N   0  0  0  0  0  0  0  0  0  0  0  0
   28.7587   13.8301    9.1840 C   0  0  0  0  0  0  0  0  0  0  0  0
   28.1630   15.0280    8.4294 C   0  0  0  0  0  0  0  0  0  0  0  0
   28.4727   14.6459    6.9967 C   0  0  0  0  0  0  0  0  0  0  0  0
   29.2029   13.3215    6.8746 C   0  0  0  0  0  0  0  0  0  0  0  0
   32.0402   11.0013    7.4039 C   0  0  0  0  0  0  0  0  0  0  0  0
   31.4255    9.6435    7.6353 C   0  0  0  0  0  0  0  0  0  0  0  0
   30.2415    9.5001    8.5630 C   0  0  0  0  0  0  0  0  0  0  0  0
   32.0121    8.6626    6.9988 N   0  0  0  0  0  0  0  0  0  0  0  0
   33.0336    9.2820    6.2931 O   0  0  0  0  0  0  0  0  0  0  0  0
   33.0725   10.6318    6.5258 C   0  0  0  0  0  0  0  0  0  0  0  0
   34.0095   11.4141    5.9587 N   0  0  0  0  0  0  0  0  0  0  0  0
  1  2  1  0
  2  3  2  0
  3  4  1  0
  4  5  1  0
  5  6  2  0
  5  7  1  0
  7  8  1  0
  8  9  1  0
  9 10  1  0
 10 11  1  0
  4 12  2  0
 12 13  1  0
 13 14  1  0
 13 15  2  0
 15 16  1  0
 16 17  1  0
 17 18  2  0
 18  2  1  0
 11  7  1  0
 17 12  1  0
A    1
 C1 
A    2
 C2 
A    3
 C3 
A    4
 C4 
A    5
 C5 
A    6
 O1 
A    7
 N1 
A    8
 C6 
A    9
 C7 
A   10
 C8 
A   11
 C9 
A   12
 C10
A   13
 C11
A   14
 C12
A   15
 N2 
A   16
 O2 
A   17
 C13
A   18
 N3 
M  END
>  <ref_pdb>  (323) 
Ax0310a

>  <ref_mols>  (323) 
Ax0446a,Ax1080a,Ax0812a,Ax0719a,Ax1140a,Ax0528a,Ax0310a

>  <original SMILES>  (323) 
Cc1cc(C(=O)N2CCCC2)c2c(C)noc2n1

>  <rationale>  (323) 
info info set:3d;hbond:S87+G127; hydroph_interaction:Y89+Y90; 

>  <experiment>  (323) 
3d

>  <cluster_label>  (323) 
3

>  <cluster_rank>  (323) 
41

>  <N_interactions>  (323) 
4

>  <∆∆G>  (323) 
-6.704734

>  <comRMSD>  (323) 
0.666948

>  <ROCS_TanimotoCombo>  (323) 
0.338

>  <ROCS_ShapeTanimoto>  (323) 
0.238

>  <ROCS_ColorTanimoto>  (323) 
0.1

$$$$
EN300_1697090
     RDKit          3D

 17 17  0  0  0  0  0  0  0  0999 V2000
   28.6011   13.6366    8.9904 C   0  0  0  0  0  0  0  0  0  0  0  0
   29.9567   13.1841    8.9781 O   0  0  0  0  0  0  0  0  0  0  0  0
   30.2886   12.8721    7.7089 C   0  0  0  0  0  0  0  0  0  0  0  0
   29.9519   13.5237    6.7293 O   0  0  0  0  0  0  0  0  0  0  0  0
   31.0068   11.7117    7.4903 C   0  0  0  0  0  0  0  0  0  0  0  0
   30.4989   10.4745    8.0175 C   0  0  0  0  0  0  0  0  0  0  0  0
   31.1877    9.2423    7.7653 C   0  0  0  0  0  0  0  0  0  0  0  0
   30.4852    7.8951    8.4903 Cl  0  0  0  0  0  0  0  0  0  0  0  0
   32.3846    9.2796    6.9378 C   0  0  0  0  0  0  0  0  0  0  0  0
   32.8595   10.5189    6.4675 C   0  0  0  0  0  0  0  0  0  0  0  0
   34.2915   10.5712    5.4953 Cl  0  0  0  0  0  0  0  0  0  0  0  0
   32.1941   11.7091    6.7747 C   0  0  0  0  0  0  0  0  0  0  0  0
   32.6809   12.8695    6.4126 N   0  0  0  0  0  0  0  0  0  0  0  0
   33.2444   13.5749    7.8773 S   0  0  0  0  0  6  0  0  0  0  0  0
   34.5277   14.6346    7.2397 C   0  0  0  0  0  0  0  0  0  0  0  0
   33.9098   12.6881    8.8160 O   0  0  0  0  0  0  0  0  0  0  0  0
   32.1443   14.2718    8.5049 O   0  0  0  0  0  0  0  0  0  0  0  0
  1  2  1  0
  2  3  1  0
  3  4  2  0
  3  5  1  0
  5  6  2  0
  6  7  1  0
  7  8  1  0
  7  9  2  0
  9 10  1  0
 10 11  1  0
 10 12  2  0
 12 13  1  0
 13 14  1  0
 14 15  1  0
 14 16  2  0
 14 17  2  0
 12  5  1  0
A    1
 C1 
A    2
 O1 
A    3
 C2 
A    4
 O2 
A    5
 C3 
A    6
 C4 
A    7
 C5 
A    8
CL1 
A    9
 C6 
A   10
 C7 
A   11
CL2 
A   12
 C8 
A   13
 N1 
A   14
 S1 
A   15
 C9 
A   16
 O3 
A   17
 O4 
M  END
>  <ref_pdb>  (324) 
Ax0310a

>  <ref_mols>  (324) 
Ax0446a,Ax1080a,Ax0812a,Ax0719a,Ax1140a,Ax0528a,Ax0310a

>  <original SMILES>  (324) 
COC(=O)c1cc(Cl)cc(Cl)c1NS(C)(=O)=O

>  <rationale>  (324) 
info info set:sulfonimide_whole;hbond:S87+G127; saltbridge:H21; 

>  <experiment>  (324) 
sulfonimide_whole

>  <cluster_label>  (324) 
9

>  <cluster_rank>  (324) 
41

>  <N_interactions>  (324) 
3

>  <∆∆G>  (324) 
-4.864311

>  <comRMSD>  (324) 
0.826145

>  <ROCS_TanimotoCombo>  (324) 
0.354

>  <ROCS_ShapeTanimoto>  (324) 
0.219

>  <ROCS_ColorTanimoto>  (324) 
0.135

$$$$
EN300_207255
     RDKit          3D

 14 14  0  0  0  0  0  0  0  0999 V2000
   28.9133   13.0729    8.8837 N   0  0  0  0  0  0  0  0  0  0  0  0
   30.1112   13.8021    7.9915 S   0  0  0  0  0  6  0  0  0  0  0  0
   30.8973   14.5720    8.9390 O   0  0  0  0  0  0  0  0  0  0  0  0
   29.3242   14.3904    6.9440 O   0  0  0  0  0  0  0  0  0  0  0  0
   31.1219   12.4812    7.3486 C   0  0  0  0  0  0  0  0  0  0  0  0
   32.1463   12.8828    6.2933 C   0  0  0  0  0  0  0  0  0  0  0  0
   33.0205   11.6408    5.7619 C   0  0  0  0  0  0  0  0  0  0  0  0
   32.7288   10.2722    6.3607 C   0  0  0  0  0  0  0  0  0  0  0  0
   31.7431   10.1622    7.3136 C   0  0  0  0  0  0  0  0  0  0  0  0
   31.4761    8.8673    7.8876 N   0  0  0  0  0  4  0  0  0  0  0  0
   30.6394    8.8068    8.7882 O   0  0  0  0  0  0  0  0  0  0  0  0
   32.1910    7.9675    7.5312 O   0  0  0  0  0  1  0  0  0  0  0  0
   30.9693   11.1864    7.7936 C   0  0  0  0  0  0  0  0  0  0  0  0
   30.0601   10.8376    8.7135 O   0  0  0  0  0  0  0  0  0  0  0  0
  1  2  1  0
  2  3  2  0
  2  4  2  0
  2  5  1  0
  5  6  2  0
  6  7  1  0
  7  8  2  0
  8  9  1  0
  9 10  1  0
 10 11  2  0
 10 12  1  0
  9 13  2  0
 13 14  1  0
 13  5  1  0
M  CHG  2  10   1  12  -1
A    1
 N1 
A    2
 S1 
A    3
 O1 
A    4
 O2 
A    5
 C1 
A    6
 C2 
A    7
 C3 
A    8
 C4 
A    9
 C5 
A   10
 N2 
A   11
 O3 
A   12
 O4 
A   13
 C6 
A   14
 O5 
M  END
>  <ref_pdb>  (325) 
Ax0310a

>  <ref_mols>  (325) 
Ax0446a,Ax1080a,Ax0812a,Ax0719a,Ax1140a,Ax0528a,Ax0310a

>  <original SMILES>  (325) 
NS(=O)(=O)c1cccc([N+](=O)[O-])c1O

>  <rationale>  (325) 
info info set:sulfonimide_whole;hbond:S87+S125+E88; 

>  <experiment>  (325) 
sulfonimide_whole

>  <cluster_label>  (325) 
8

>  <cluster_rank>  (325) 
41

>  <N_interactions>  (325) 
4

>  <∆∆G>  (325) 
-1.676251

>  <comRMSD>  (325) 
0.542635

>  <ROCS_TanimotoCombo>  (325) 
0.33

>  <ROCS_ShapeTanimoto>  (325) 
0.2

>  <ROCS_ColorTanimoto>  (325) 
0.13

$$$$
EN300_364309
     RDKit          3D

 18 20  0  0  0  0  0  0  0  0999 V2000
   27.6345   15.1710    9.0113 C   0  0  0  0  0  0  0  0  0  0  0  0
   28.4307   14.0679    8.4508 C   0  0  0  0  0  0  0  0  0  0  0  0
   29.7700   14.0608    9.0246 C   0  0  0  0  0  0  0  0  0  0  0  0
   30.9384   13.1122    8.6909 C   0  0  0  0  0  0  0  0  0  0  0  0
   30.2632   12.1871    7.6022 C   0  0  0  0  0  0  0  0  0  0  0  0
   31.2178   11.2081    7.1002 C   0  0  0  0  0  0  0  0  0  0  0  0
   32.2492   11.9509    6.1429 C   0  0  0  0  0  0  0  0  0  0  0  0
   33.2441   10.8683    5.6611 C   0  0  0  0  0  0  0  0  0  0  0  0
   33.3296    9.4507    5.9304 C   0  0  0  0  0  0  0  0  0  0  0  0
   32.4454    8.8694    6.7359 N   0  0  0  0  0  0  0  0  0  0  0  0
   31.4850    9.6327    7.2804 C   0  0  0  0  0  0  0  0  0  0  0  0
   30.6165    8.9082    8.1283 N   0  0  0  0  0  0  0  0  0  0  0  0
   34.3528    8.7055    5.3545 N   0  0  0  0  0  0  0  0  0  0  0  0
   34.9258    9.0612    4.0659 C   0  0  0  0  0  0  0  0  0  0  0  0
   34.5533   10.4721    3.5853 C   0  0  0  0  0  0  0  0  0  0  0  0
   34.3237   11.4217    4.7398 C   0  0  0  0  0  0  0  0  0  0  0  0
   28.9309   12.2841    7.1238 C   0  0  0  0  0  0  0  0  0  0  0  0
   28.0320   13.1930    7.5282 C   0  0  0  0  0  0  0  0  0  0  0  0
  1  2  1  0
  2  3  2  0
  3  4  1  0
  4  5  2  0
  5  6  1  0
  6  7  2  0
  7  8  1  0
  8  9  2  0
  9 10  1  0
 10 11  2  0
 11 12  1  0
  9 13  1  0
 13 14  1  0
 14 15  1  0
 15 16  1  0
  5 17  1  0
 17 18  2  0
 18  2  1  0
 11  6  1  0
 16  8  1  0
A    1
 C1 
A    2
 C2 
A    3
 C3 
A    4
 C4 
A    5
 C5 
A    6
 C6 
A    7
 C7 
A    8
 C8 
A    9
 C9 
A   10
 N1 
A   11
 C10
A   12
 N2 
A   13
 N3 
A   14
 C11
A   15
 C12
A   16
 C13
A   17
 C14
A   18
 C15
M  END
>  <ref_pdb>  (326) 
Ax0310a

>  <ref_mols>  (326) 
Ax0446a,Ax1080a,Ax0812a,Ax0719a,Ax1140a,Ax0528a,Ax0310a

>  <original SMILES>  (326) 
Cc1ccc(-c2cc3c(nc2N)NCCC3)cc1

>  <rationale>  (326) 
info info set:bb_densepocket2;hbond:S105; hydroph_interaction:P107+Y89+Y90; 

>  <experiment>  (326) 
bb_densepocket2

>  <cluster_label>  (326) 
3

>  <cluster_rank>  (326) 
42

>  <N_interactions>  (326) 
6

>  <∆∆G>  (326) 
-5.828318

>  <comRMSD>  (326) 
0.976265

>  <ROCS_TanimotoCombo>  (326) 
0.622

>  <ROCS_ShapeTanimoto>  (326) 
0.275

>  <ROCS_ColorTanimoto>  (326) 
0.347

$$$$
Z28134971
     RDKit          3D

 18 19  0  0  0  0  0  0  0  0999 V2000
   29.6799    8.5187    8.5876 C   0  0  0  0  0  0  0  0  0  0  0  0
   31.3936    8.2478    8.4399 S   0  0  0  0  0  0  0  0  0  0  0  0
   32.0518    9.3055    7.1789 C   0  0  0  0  0  0  0  0  0  0  0  0
   32.9535    8.7036    6.4073 N   0  0  0  0  0  0  0  0  0  0  0  0
   33.5315    9.4120    5.4345 C   0  0  0  0  0  0  0  0  0  0  0  0
   33.2508   10.8815    5.1234 C   0  0  0  0  0  0  0  0  0  0  0  0
   32.3038   11.3434    6.0094 C   0  0  0  0  0  0  0  0  0  0  0  0
   31.7057   10.6076    7.0101 C   0  0  0  0  0  0  0  0  0  0  0  0
   30.6954   11.2839    7.8756 C   0  0  0  0  0  0  0  0  0  0  0  0
   30.3082   10.7344    8.8621 O   0  0  0  0  0  0  0  0  0  0  0  0
   30.2855   12.5171    7.4179 N   0  0  0  0  0  0  0  0  0  0  0  0
   29.4515   13.3561    8.0957 C   0  0  0  0  0  0  0  0  0  0  0  0
   29.9982   13.8101    9.4510 C   0  0  0  0  0  0  0  0  0  0  0  0
   29.1611   14.7123   10.3253 C   0  0  0  0  0  0  0  0  0  0  0  0
   27.8289   15.0827    9.6973 C   0  0  0  0  0  0  0  0  0  0  0  0
   27.0850   15.8683   10.4626 C   0  0  0  0  0  0  0  0  0  0  0  0
   27.3888   14.6756    8.4699 C   0  0  0  0  0  0  0  0  0  0  0  0
   28.2371   13.7519    7.6130 C   0  0  0  0  0  0  0  0  0  0  0  0
  1  2  1  0
  2  3  1  0
  3  4  2  0
  4  5  1  0
  5  6  2  0
  6  7  1  0
  7  8  2  0
  8  9  1  0
  9 10  2  0
  9 11  1  0
 11 12  1  0
 12 13  2  0
 13 14  1  0
 14 15  2  0
 15 16  1  0
 15 17  1  0
 17 18  2  0
  8  3  1  0
 18 12  1  0
A    1
 C1 
A    2
 S1 
A    3
 C2 
A    4
 N1 
A    5
 C3 
A    6
 C4 
A    7
 C5 
A    8
 C6 
A    9
 C7 
A   10
 O1 
A   11
 N2 
A   12
 C8 
A   13
 C9 
A   14
 C10
A   15
 C11
A   16
 C12
A   17
 C13
A   18
 C14
M  END
>  <ref_pdb>  (327) 
Ax0310a

>  <ref_mols>  (327) 
Ax0446a,Ax1080a,Ax0812a,Ax0719a,Ax1140a,Ax0528a,Ax0310a

>  <original SMILES>  (327) 
CSc1ncccc1C(=O)Nc1ccc(C)cc1

>  <rationale>  (327) 
info info set:screening_pocket;hydroph_interaction:P107+Y89+Y90+H21; 

>  <experiment>  (327) 
screening_pocket

>  <cluster_label>  (327) 
9

>  <cluster_rank>  (327) 
42

>  <N_interactions>  (327) 
4

>  <∆∆G>  (327) 
-6.511743

>  <comRMSD>  (327) 
0.714266

>  <ROCS_TanimotoCombo>  (327) 
0.636

>  <ROCS_ShapeTanimoto>  (327) 
0.218

>  <ROCS_ColorTanimoto>  (327) 
0.418

$$$$
Z18837695
     RDKit          3D

 15 15  0  0  0  0  0  0  0  0999 V2000
   29.3081    8.1046    8.4252 C   0  0  0  0  0  0  0  0  0  0  0  0
   30.5381    9.1797    9.0629 S   0  0  0  0  0  0  0  0  0  0  0  0
   31.5086    9.7312    7.6767 C   0  0  0  0  0  0  0  0  0  0  0  0
   32.2026    8.7588    7.0096 N   0  0  0  0  0  0  0  0  0  0  0  0
   33.0351    9.2147    5.8793 C   0  0  0  0  0  0  0  0  0  0  0  0
   33.0750   10.6661    5.5090 C   0  0  0  0  0  0  0  0  0  0  0  0
   32.3339   11.5297    6.2518 C   0  0  0  0  0  0  0  0  0  0  0  0
   31.5671   11.0840    7.3166 C   0  0  0  0  0  0  0  0  0  0  0  0
   30.8719   12.2182    7.9814 C   0  0  0  0  0  0  0  0  0  0  0  0
   31.4221   13.0377    8.6920 O   0  0  0  0  0  0  0  0  0  0  0  0
   29.5712   12.2033    7.6706 O   0  0  0  0  0  0  0  0  0  0  0  0
   28.8685   13.2426    8.3440 C   0  0  0  0  0  0  0  0  0  0  0  0
   28.3026   14.2517    7.3564 C   0  0  0  0  0  0  0  0  0  0  0  0
   27.6476   13.6688    6.3052 N   0  0  0  0  0  0  0  0  0  0  0  0
   28.4342   15.4704    7.4788 O   0  0  0  0  0  0  0  0  0  0  0  0
  1  2  1  0
  2  3  1  0
  3  4  2  0
  4  5  1  0
  5  6  2  0
  6  7  1  0
  7  8  2  0
  8  9  1  0
  9 10  2  0
  9 11  1  0
 11 12  1  0
 12 13  1  0
 13 14  1  0
 13 15  2  0
  8  3  1  0
A    1
 C1 
A    2
 S1 
A    3
 C2 
A    4
 N1 
A    5
 C3 
A    6
 C4 
A    7
 C5 
A    8
 C6 
A    9
 C7 
A   10
 O1 
A   11
 O2 
A   12
 C8 
A   13
 C9 
A   14
 N2 
A   15
 O3 
M  END
>  <ref_pdb>  (328) 
Ax0310a

>  <ref_mols>  (328) 
Ax0446a,Ax1080a,Ax0812a,Ax0719a,Ax1140a,Ax0528a,Ax0310a

>  <original SMILES>  (328) 
CSc1ncccc1C(=O)OCC(N)=O

>  <rationale>  (328) 
info info set:screening_pocket;hbond:S87+G127+E88; hydroph_interaction:P107; 

>  <experiment>  (328) 
screening_pocket

>  <cluster_label>  (328) 
8

>  <cluster_rank>  (328) 
42

>  <N_interactions>  (328) 
4

>  <∆∆G>  (328) 
-5.115004

>  <comRMSD>  (328) 
0.440188

>  <ROCS_TanimotoCombo>  (328) 
0.623

>  <ROCS_ShapeTanimoto>  (328) 
0.225

>  <ROCS_ColorTanimoto>  (328) 
0.399

$$$$
Z46334819
     RDKit          3D

 18 19  0  0  0  0  0  0  0  0999 V2000
   27.2193   13.0494   11.5954 C   0  0  0  0  0  0  0  0  0  0  0  0
   27.7029   14.0555   10.6154 C   0  0  0  0  0  0  0  0  0  0  0  0
   26.8318   15.1875   10.7078 C   0  0  0  0  0  0  0  0  0  0  0  0
   27.1568   16.2960    9.8043 C   0  0  0  0  0  0  0  0  0  0  0  0
   28.3059   16.4897    8.7577 C   0  0  0  0  0  0  0  0  0  0  0  0
   29.1142   15.2329    8.7707 C   0  0  0  0  0  0  0  0  0  0  0  0
   28.8913   14.0377    9.6256 C   0  0  0  0  0  0  0  0  0  0  0  0
   29.9290   13.0989    9.2865 N   0  0  0  0  0  0  0  0  0  0  0  0
   31.1131   13.6987    8.9100 C   0  0  0  0  0  0  0  0  0  0  0  0
   31.4793   14.7812    9.3272 O   0  0  0  0  0  0  0  0  0  0  0  0
   32.0558   13.0016    7.9419 C   0  0  0  0  0  0  0  0  0  0  0  0
   31.8989   11.6866    7.7661 N   0  0  0  0  0  0  0  0  0  0  0  0
   30.6293   11.2771    7.7876 C   0  0  0  0  0  0  0  0  0  0  0  0
   30.6052    9.7902    8.1098 C   0  0  0  0  0  0  0  0  0  0  0  0
   31.5945    8.9892    7.4462 N   0  0  0  0  0  0  0  0  0  0  0  0
   32.6105    9.5935    6.7353 C   0  0  0  0  0  0  0  0  0  0  0  0
   33.5119    8.9447    6.2379 O   0  0  0  0  0  0  0  0  0  0  0  0
   32.5690   11.1055    6.6165 C   0  0  0  0  0  0  0  0  0  0  0  0
  1  2  1  0
  2  3  2  0
  3  4  1  0
  4  5  2  0
  5  6  1  0
  6  7  2  0
  7  8  1  0
  8  9  1  0
  9 10  2  0
  9 11  1  0
 11 12  1  0
 12 13  1  0
 13 14  1  0
 14 15  1  0
 15 16  1  0
 16 17  2  0
 16 18  1  0
  7  2  1  0
 18 12  1  0
A    1
 C1 
A    2
 C2 
A    3
 C3 
A    4
 C4 
A    5
 C5 
A    6
 C6 
A    7
 C7 
A    8
 N1 
A    9
 C8 
A   10
 O1 
A   11
 C9 
A   12
 N2 
A   13
 C10
A   14
 C11
A   15
 N3 
A   16
 C12
A   17
 O2 
A   18
 C13
M  END
>  <ref_pdb>  (329) 
Ax0310a

>  <ref_mols>  (329) 
Ax0446a,Ax1080a,Ax0812a,Ax0719a,Ax1140a,Ax0528a,Ax0310a

>  <original SMILES>  (329) 
Cc1ccccc1NC(=O)CN1CCNC(=O)C1

>  <rationale>  (329) 
info info set:3d;hbond:S87+S125+G127; hydroph_interaction:Y89+Y90+H21; 

>  <experiment>  (329) 
3d

>  <cluster_label>  (329) 
9

>  <cluster_rank>  (329) 
43

>  <N_interactions>  (329) 
7

>  <∆∆G>  (329) 
-0.024165

>  <comRMSD>  (329) 
0.714567

>  <ROCS_TanimotoCombo>  (329) 
0.309

>  <ROCS_ShapeTanimoto>  (329) 
0.176

>  <ROCS_ColorTanimoto>  (329) 
0.133

$$$$
Z1240221633
     RDKit          3D

 18 19  0  0  0  0  0  0  0  0999 V2000
   36.2539    8.3409    3.5896 C   0  0  0  0  0  0  0  0  0  0  0  0
   35.1022    8.1722    4.4417 C   0  0  0  0  0  0  0  0  0  0  0  0
   34.2337    9.2837    4.3791 O   0  0  0  0  0  0  0  0  0  0  0  0
   33.3606    9.6928    5.3842 C   0  0  0  0  0  0  0  0  0  0  0  0
   32.7741    8.8839    6.3106 N   0  0  0  0  0  0  0  0  0  0  0  0
   31.9097    9.4475    7.2057 C   0  0  0  0  0  0  0  0  0  0  0  0
   31.5896   10.8145    7.2421 C   0  0  0  0  0  0  0  0  0  0  0  0
   30.7030   11.3188    8.1735 C   0  0  0  0  0  0  0  0  0  0  0  0
   30.0684   10.5170    8.8061 O   0  0  0  0  0  0  0  0  0  0  0  0
   30.6715   12.7049    8.3188 N   0  0  0  0  0  0  0  0  0  0  0  0
   29.5243   13.5943    8.4643 C   0  0  0  0  0  0  0  0  0  0  0  0
   29.0779   14.2370    7.2281 C   0  0  0  0  0  0  0  0  0  0  0  0
   28.5967   14.8136    6.1467 N   0  0  0  0  0  0  0  0  0  0  0  0
   29.7808   14.4586    9.7005 C   0  0  0  0  0  0  0  0  0  0  0  0
   28.4438   13.7764    9.5161 C   0  0  0  0  0  0  0  0  0  0  0  0
   32.1783   11.6589    6.3250 C   0  0  0  0  0  0  0  0  0  0  0  0
   33.1270   11.0419    5.3299 C   0  0  0  0  0  0  0  0  0  0  0  0
   33.8939   12.0087    4.1402 Cl  0  0  0  0  0  0  0  0  0  0  0  0
  1  2  1  0
  2  3  1  0
  3  4  1  0
  4  5  2  0
  5  6  1  0
  6  7  2  0
  7  8  1  0
  8  9  2  0
  8 10  1  0
 10 11  1  0
 11 12  1  0
 12 13  3  0
 11 14  1  0
 14 15  1  0
  7 16  1  0
 16 17  2  0
 17 18  1  0
 17  4  1  0
 15 11  1  0
A    1
 C1 
A    2
 C2 
A    3
 O1 
A    4
 C3 
A    5
 N1 
A    6
 C4 
A    7
 C5 
A    8
 C6 
A    9
 O2 
A   10
 N2 
A   11
 C7 
A   12
 C8 
A   13
 N3 
A   14
 C9 
A   15
 C10
A   16
 C11
A   17
 C12
A   18
CL1 
M  END
>  <ref_pdb>  (330) 
Ax0310a

>  <ref_mols>  (330) 
Ax0446a,Ax1080a,Ax0812a,Ax0719a,Ax1140a,Ax0528a,Ax0310a

>  <original SMILES>  (330) 
CCOc1ncc(C(=O)NC2(C#N)CC2)cc1Cl

>  <rationale>  (330) 
info info set:screening_pocket;hbond:S87+E88; hydroph_interaction:P107; 

>  <experiment>  (330) 
screening_pocket

>  <cluster_label>  (330) 
8

>  <cluster_rank>  (330) 
43

>  <N_interactions>  (330) 
4

>  <∆∆G>  (330) 
-1.24567

>  <comRMSD>  (330) 
0.851175

>  <ROCS_TanimotoCombo>  (330) 
0.629

>  <ROCS_ShapeTanimoto>  (330) 
0.236

>  <ROCS_ColorTanimoto>  (330) 
0.393

$$$$
EN300_2004370
     RDKit          3D

 15 16  0  0  0  0  0  0  0  0999 V2000
   34.4430   15.0632    9.0280 N   0  0  0  0  0  0  0  0  0  0  0  0
   33.4260   13.8242    8.5347 S   0  0  0  0  0  6  0  0  0  0  0  0
   32.0877   14.2785    8.8391 O   0  0  0  0  0  0  0  0  0  0  0  0
   34.0432   12.7463    9.2034 O   0  0  0  0  0  0  0  0  0  0  0  0
   33.7013   13.6360    6.7960 C   0  0  0  0  0  0  0  0  0  0  0  0
   32.6194   12.9912    5.9110 C   0  0  0  0  0  0  0  0  0  0  0  0
   32.2102   11.6373    6.4749 C   0  0  0  0  0  0  0  0  0  0  0  0
   32.9960   10.5484    6.3214 C   0  0  0  0  0  0  0  0  0  0  0  0
   32.4824    9.4094    6.8955 N   0  0  0  0  0  0  0  0  0  0  0  0
   31.2891    9.7908    7.4571 C   0  0  0  0  0  0  0  0  0  0  0  0
   30.3176    9.0324    8.1960 C   0  0  0  0  0  0  0  0  0  0  0  0
   29.1002    9.6580    8.6832 C   0  0  0  0  0  0  0  0  0  0  0  0
   28.9190   11.0036    8.4082 C   0  0  0  0  0  0  0  0  0  0  0  0
   29.8920   11.7474    7.6884 C   0  0  0  0  0  0  0  0  0  0  0  0
   31.0731   11.1713    7.2080 C   0  0  0  0  0  0  0  0  0  0  0  0
  1  2  1  0
  2  3  2  0
  2  4  2  0
  2  5  1  0
  5  6  1  0
  6  7  1  0
  7  8  2  0
  8  9  1  0
  9 10  1  0
 10 11  2  0
 11 12  1  0
 12 13  2  0
 13 14  1  0
 14 15  2  0
 15  7  1  0
 15 10  1  0
A    1
 N1 
A    2
 S1 
A    3
 O1 
A    4
 O2 
A    5
 C1 
A    6
 C2 
A    7
 C3 
A    8
 C4 
A    9
 N2 
A   10
 C5 
A   11
 C6 
A   12
 C7 
A   13
 C8 
A   14
 C9 
A   15
 C10
M  END
>  <ref_pdb>  (331) 
Ax0310a

>  <ref_mols>  (331) 
Ax0446a,Ax1080a,Ax0812a,Ax0719a,Ax1140a,Ax0528a,Ax0310a

>  <original SMILES>  (331) 
NS(=O)(=O)CCc1c[nH]c2ccccc12

>  <rationale>  (331) 
info info set:sulfonimide_whole;hbond:S87+G127+E85; hydroph_interaction:P107; 

>  <experiment>  (331) 
sulfonimide_whole

>  <cluster_label>  (331) 
3

>  <cluster_rank>  (331) 
43

>  <N_interactions>  (331) 
4

>  <∆∆G>  (331) 
-5.923706

>  <comRMSD>  (331) 
0.482788

>  <ROCS_TanimotoCombo>  (331) 
0.386

>  <ROCS_ShapeTanimoto>  (331) 
0.207

>  <ROCS_ColorTanimoto>  (331) 
0.179

$$$$
Z3671637269
     RDKit          3D

 22 24  0  0  0  0  0  0  0  0999 V2000
   28.5208   15.0346    7.4102 C   0  0  0  0  0  0  0  0  0  0  0  0
   28.9240   13.7353    8.0389 C   0  0  0  0  0  0  0  0  0  0  0  0
   27.6793   12.9924    8.1279 C   0  0  0  0  0  0  0  0  0  0  0  0
   29.4303   13.7282    9.2619 N   0  0  0  0  0  0  0  0  0  0  0  0
   30.8366   13.9692    9.3626 C   0  0  0  0  0  0  0  0  0  0  0  0
   31.1859   14.6885   10.6045 C   0  0  0  0  0  0  0  0  0  0  0  0
   32.6758   14.9441   10.7172 C   0  0  0  0  0  0  0  0  0  0  0  0
   33.6587   14.4941    9.6442 C   0  0  0  0  0  0  0  0  0  0  0  0
   32.9971   13.8382    8.5942 C   0  0  0  0  0  0  0  0  0  0  0  0
   31.6873   13.5798    8.4332 N   0  0  0  0  0  0  0  0  0  0  0  0
   29.8364   12.7972    7.3487 C   0  0  0  0  0  0  0  0  0  0  0  0
   30.1556   12.9762    6.1827 O   0  0  0  0  0  0  0  0  0  0  0  0
   30.2229   11.8988    8.0005 N   0  0  0  0  0  0  0  0  0  0  0  0
   31.1158   10.9850    7.4819 C   0  0  0  0  0  0  0  0  0  0  0  0
   31.1899    9.5261    7.7308 N   0  0  0  0  0  0  0  0  0  0  0  0
   32.2039    8.9078    7.0363 N   0  0  0  0  0  0  0  0  0  0  0  0
   32.8412    9.8626    6.3164 C   0  0  0  0  0  0  0  0  0  0  0  0
   32.2830   11.1027    6.5185 C   0  0  0  0  0  0  0  0  0  0  0  0
   32.7520   12.2542    5.9065 C   0  0  0  0  0  0  0  0  0  0  0  0
   34.1836   12.1796    5.7247 O   0  0  0  0  0  0  0  0  0  0  0  0
   34.6328   11.0168    4.9831 C   0  0  0  0  0  0  0  0  0  0  0  0
   33.9960    9.6660    5.4017 C   0  0  0  0  0  0  0  0  0  0  0  0
  1  2  1  0
  2  3  1  0
  2  4  1  0
  4  5  1  0
  5  6  2  0
  6  7  1  0
  7  8  2  0
  8  9  1  0
  9 10  2  0
  2 11  1  0
 11 12  2  0
 11 13  1  0
 13 14  1  0
 14 15  1  0
 15 16  1  0
 16 17  2  0
 17 18  1  0
 18 19  1  0
 19 20  1  0
 20 21  1  0
 21 22  1  0
 10  5  1  0
 18 14  2  0
 22 17  1  0
A    1
 C1 
A    2
 C2 
A    3
 C3 
A    4
 N1 
A    5
 C4 
A    6
 C5 
A    7
 C6 
A    8
 C7 
A    9
 C8 
A   10
 N2 
A   11
 C9 
A   12
 O1 
A   13
 N3 
A   14
 C10
A   15
 N4 
A   16
 N5 
A   17
 C11
A   18
 C12
A   19
 C13
A   20
 O2 
A   21
 C14
A   22
 C15
M  END
>  <ref_pdb>  (332) 
Ax0310a

>  <ref_mols>  (332) 
Ax0446a,Ax1080a,Ax0812a,Ax0719a,Ax1140a,Ax0528a,Ax0310a

>  <original SMILES>  (332) 
CC(C)(Nc1ccccn1)C(=O)Nc1[nH]nc2c1COCC2

>  <rationale>  (332) 
info info set:screening_whole;hbond:S87+S125; hydroph_interaction:P107+Y89+T126+V84; 

>  <experiment>  (332) 
screening_whole

>  <cluster_label>  (332) 
3

>  <cluster_rank>  (332) 
44

>  <N_interactions>  (332) 
7

>  <∆∆G>  (332) 
-3.647898

>  <comRMSD>  (332) 
0.765231

>  <ROCS_TanimotoCombo>  (332) 
0.473

>  <ROCS_ShapeTanimoto>  (332) 
0.247

>  <ROCS_ColorTanimoto>  (332) 
0.226

$$$$
EN300_7542705
     RDKit          3D

 18 18  0  0  0  0  0  0  0  0999 V2000
   28.5583   14.5397    7.7112 C   0  0  0  0  0  0  0  0  0  0  0  0
   28.2578   13.0545    7.7317 C   0  0  0  0  0  0  0  0  0  0  0  0
   29.2850   12.3311    7.0445 O   0  0  0  0  0  0  0  0  0  0  0  0
   30.3946   12.1233    7.7945 C   0  0  0  0  0  0  0  0  0  0  0  0
   30.5795   12.6866    8.8559 O   0  0  0  0  0  0  0  0  0  0  0  0
   31.3724   11.1714    7.1444 C   0  0  0  0  0  0  0  0  0  0  0  0
   32.3242   11.7217    6.0857 C   0  0  0  0  0  0  0  0  0  0  0  0
   33.3025   10.7822    5.4311 C   0  0  0  0  0  0  0  0  0  0  0  0
   34.1911   11.4150    4.3962 C   0  0  0  0  0  0  0  0  0  0  0  0
   34.7235   12.7199    4.7923 N   0  0  0  0  0  0  0  0  0  0  0  0
   33.3455    9.4657    5.7765 C   0  0  0  0  0  0  0  0  0  0  0  0
   34.2409    8.6418    5.1709 O   0  0  0  0  0  0  0  0  0  0  0  0
   32.5332    8.8885    6.7195 N   0  0  0  0  0  0  0  0  0  0  0  0
   31.5783    9.6197    7.4028 C   0  0  0  0  0  0  0  0  0  0  0  0
   30.7346    8.9284    8.4183 C   0  0  0  0  0  0  0  0  0  0  0  0
   29.6013    8.3327    8.0426 F   0  0  0  0  0  0  0  0  0  0  0  0
   31.3606    7.9847    9.1278 F   0  0  0  0  0  0  0  0  0  0  0  0
   30.2557    9.7999    9.2857 F   0  0  0  0  0  0  0  0  0  0  0  0
  1  2  1  0
  2  3  1  0
  3  4  1  0
  4  5  2  0
  4  6  1  0
  6  7  2  0
  7  8  1  0
  8  9  1  0
  9 10  3  0
  8 11  2  0
 11 12  1  0
 11 13  1  0
 13 14  2  0
 14 15  1  0
 15 16  1  0
 15 17  1  0
 15 18  1  0
 14  6  1  0
A    1
 C1 
A    2
 C2 
A    3
 O1 
A    4
 C3 
A    5
 O2 
A    6
 C4 
A    7
 C5 
A    8
 C6 
A    9
 C7 
A   10
 N1 
A   11
 C8 
A   12
 O3 
A   13
 N2 
A   14
 C9 
A   15
 C10
A   16
 F1 
A   17
 F2 
A   18
 F3 
M  END
>  <ref_pdb>  (333) 
Ax0310a

>  <ref_mols>  (333) 
Ax0446a,Ax1080a,Ax0812a,Ax0719a,Ax1140a,Ax0528a,Ax0310a

>  <original SMILES>  (333) 
CCOC(=O)c1cc(C#N)c(O)nc1C(F)(F)F

>  <rationale>  (333) 
info info set:bb_densepocket2;halogenbond:P107; hbond:G127; hydroph_interaction:P107; saltbridge:H21; 

>  <experiment>  (333) 
bb_densepocket2

>  <cluster_label>  (333) 
9

>  <cluster_rank>  (333) 
44

>  <N_interactions>  (333) 
4

>  <∆∆G>  (333) 
-2.207719

>  <comRMSD>  (333) 
0.7964

>  <ROCS_TanimotoCombo>  (333) 
0.623

>  <ROCS_ShapeTanimoto>  (333) 
0.294

>  <ROCS_ColorTanimoto>  (333) 
0.328

$$$$
EN300_26631155
     RDKit          3D

 21 21  0  0  0  0  0  0  0  0999 V2000
   35.3814    9.1580    4.1445 C   0  0  0  0  0  0  0  0  0  0  0  0
   34.3407    8.8543    5.1082 N   0  0  0  0  0  0  0  0  0  0  0  0
   33.4315    9.9709    5.4372 C   0  0  0  0  0  0  0  0  0  0  0  0
   33.5016   11.2926    4.7141 C   0  0  0  0  0  0  0  0  0  0  0  0
   34.5205   11.5082    3.6099 C   0  0  0  0  0  0  0  0  0  0  0  0
   32.6130   12.3150    5.0605 C   0  0  0  0  0  0  0  0  0  0  0  0
   32.5945   13.6773    4.3462 B   0  0  0  0  0  0  0  0  0  0  0  0
   31.3476   14.2217    3.7468 O   0  0  0  0  0  0  0  0  0  0  0  0
   33.8300   14.4088    4.1250 O   0  0  0  0  0  0  0  0  0  0  0  0
   31.5108   12.2328    6.1848 C   0  0  0  0  0  0  0  0  0  0  0  0
   30.4667   13.1720    6.7114 C   0  0  0  0  0  0  0  0  0  0  0  0
   31.7329   10.8153    6.6715 C   0  0  0  0  0  0  0  0  0  0  0  0
   30.8988   10.4697    7.6628 C   0  0  0  0  0  0  0  0  0  0  0  0
   30.4959   11.3784    8.6866 O   0  0  0  0  0  0  0  0  0  0  0  0
   30.4941    9.2267    7.5842 O   0  0  0  0  0  0  0  0  0  0  0  0
   29.7719    8.9069    8.5872 C   0  0  0  0  0  0  0  0  0  0  0  0
   28.9471   10.0123    8.9985 C   0  0  0  0  0  0  0  0  0  0  0  0
   28.9438    7.8548    8.4517 C   0  0  0  0  0  0  0  0  0  0  0  0
   30.7243    8.3476    9.5222 C   0  0  0  0  0  0  0  0  0  0  0  0
   32.5124    9.8207    6.3895 C   0  0  0  0  0  0  0  0  0  0  0  0
   32.2861    8.6107    7.1535 C   0  0  0  0  0  0  0  0  0  0  0  0
  1  2  1  0
  2  3  1  0
  3  4  2  0
  4  5  1  0
  4  6  1  0
  6  7  1  0
  7  8  1  0
  7  9  1  0
  6 10  2  0
 10 11  1  0
 10 12  1  0
 12 13  1  0
 13 14  2  0
 13 15  1  0
 15 16  1  0
 16 17  1  0
 16 18  1  0
 16 19  1  0
 12 20  2  0
 20 21  1  0
 20  3  1  0
A    1
 C1 
A    2
 N1 
A    3
 C2 
A    4
 C3 
A    5
 C4 
A    6
 C5 
A    7
 B1 
A    8
 O1 
A    9
 O2 
A   10
 C6 
A   11
 C7 
A   12
 C8 
A   13
 C9 
A   14
 O3 
A   15
 O4 
A   16
 C10
A   17
 C11
A   18
 C12
A   19
 C13
A   20
 C14
A   21
 C15
M  END
>  <ref_pdb>  (334) 
Ax0310a

>  <ref_mols>  (334) 
Ax0446a,Ax1080a,Ax0812a,Ax0719a,Ax1140a,Ax0528a,Ax0310a

>  <original SMILES>  (334) 
CNc1c(C)c(B(O)O)c(C)c(C(=O)OC(C)(C)C)c1C

>  <rationale>  (334) 
info info set:bb_densepocket2;hbond:S105+E88; hydroph_interaction:P107+D109; 

>  <experiment>  (334) 
bb_densepocket2

>  <cluster_label>  (334) 
8

>  <cluster_rank>  (334) 
44

>  <N_interactions>  (334) 
4

>  <∆∆G>  (334) 
-1.985656

>  <comRMSD>  (334) 
0.880929

>  <ROCS_TanimotoCombo>  (334) 
0.619

>  <ROCS_ShapeTanimoto>  (334) 
0.259

>  <ROCS_ColorTanimoto>  (334) 
0.36

$$$$
EN300_5102925
     RDKit          3D

 14 15  0  0  0  0  0  0  0  0999 V2000
   28.6959   14.4534    8.7794 C   0  0  0  0  0  0  0  0  0  0  0  0
   30.2258   13.7714    8.1570 S   0  0  0  0  0  6  0  0  0  0  0  0
   30.1641   13.6352    6.7236 O   0  0  0  0  0  0  0  0  0  0  0  0
   31.3070   14.4415    8.8598 O   0  0  0  0  0  0  0  0  0  0  0  0
   30.2653   12.2616    8.7321 N   0  0  0  0  0  0  0  0  0  0  0  0
   30.8799   11.0914    8.1857 C   0  0  0  0  0  0  0  0  0  0  0  0
   30.5353    9.7036    8.4492 N   0  0  0  0  0  0  0  0  0  0  0  0
   31.4360    9.0741    7.6769 N   0  0  0  0  0  0  0  0  0  0  0  0
   32.3143    9.8863    6.9452 C   0  0  0  0  0  0  0  0  0  0  0  0
   33.4352    9.4964    5.9800 C   0  0  0  0  0  0  0  0  0  0  0  0
   34.2516   10.6508    5.3382 C   0  0  0  0  0  0  0  0  0  0  0  0
   33.9314   11.9777    5.6627 C   0  0  0  0  0  0  0  0  0  0  0  0
   32.7734   12.1990    6.6399 C   0  0  0  0  0  0  0  0  0  0  0  0
   32.0290   11.2089    7.2286 C   0  0  0  0  0  0  0  0  0  0  0  0
  1  2  1  0
  2  3  2  0
  2  4  2  0
  2  5  1  0
  5  6  1  0
  6  7  2  0
  7  8  1  0
  8  9  1  0
  9 10  2  0
 10 11  1  0
 11 12  2  0
 12 13  1  0
 13 14  2  0
 14  6  1  0
 14  9  1  0
A    1
 C1 
A    2
 S1 
A    3
 O1 
A    4
 O2 
A    5
 N1 
A    6
 C2 
A    7
 N2 
A    8
 N3 
A    9
 C3 
A   10
 C4 
A   11
 C5 
A   12
 C6 
A   13
 C7 
A   14
 C8 
M  END
>  <ref_pdb>  (335) 
Ax0310a

>  <ref_mols>  (335) 
Ax0446a,Ax1080a,Ax0812a,Ax0719a,Ax1140a,Ax0528a,Ax0310a

>  <original SMILES>  (335) 
CS(=O)(=O)Nc1n[nH]c2ccccc12

>  <rationale>  (335) 
info info set:sulfonimide_whole;hbond:S87+S105+S125; 

>  <experiment>  (335) 
sulfonimide_whole

>  <cluster_label>  (335) 
3

>  <cluster_rank>  (335) 
45

>  <N_interactions>  (335) 
4

>  <∆∆G>  (335) 
-5.770098

>  <comRMSD>  (335) 
0.750407

>  <ROCS_TanimotoCombo>  (335) 
0.361

>  <ROCS_ShapeTanimoto>  (335) 
0.189

>  <ROCS_ColorTanimoto>  (335) 
0.172

$$$$
Z1343609137
     RDKit          3D

 15 16  0  0  0  0  0  0  0  0999 V2000
   29.8228   13.6510    7.4713 O   0  0  0  0  0  0  0  0  0  0  0  0
   30.7780   13.4329    8.1822 C   0  0  0  0  0  0  0  0  0  0  0  0
   30.8588   13.9488    9.4236 O   0  0  0  0  0  0  0  0  0  0  0  0
   31.9734   12.6243    7.8493 C   0  0  0  0  0  0  0  0  0  0  0  0
   31.7233   11.2499    7.6857 C   0  0  0  0  0  0  0  0  0  0  0  0
   30.4968   10.3902    8.5212 S   0  0  0  0  0  0  0  0  0  0  0  0
   30.9763    8.9575    7.7663 C   0  0  0  0  0  0  0  0  0  0  0  0
   31.9697    9.0669    6.9205 N   0  0  0  0  0  0  0  0  0  0  0  0
   32.3801   10.3744    6.8723 C   0  0  0  0  0  0  0  0  0  0  0  0
   33.4028   10.7984    6.0552 C   0  0  0  0  0  0  0  0  0  0  0  0
   34.2631    9.8921    5.4701 C   0  0  0  0  0  0  0  0  0  0  0  0
   35.3604   10.4380    4.5970 C   0  0  0  0  0  0  0  0  0  0  0  0
   35.4569   11.9423    4.4077 C   0  0  0  0  0  0  0  0  0  0  0  0
   34.5272   12.7587    5.0414 C   0  0  0  0  0  0  0  0  0  0  0  0
   33.5318   12.1744    5.8420 C   0  0  0  0  0  0  0  0  0  0  0  0
  1  2  2  0
  2  3  1  0
  2  4  1  0
  4  5  1  0
  5  6  1  0
  6  7  1  0
  7  8  2  0
  8  9  1  0
  9 10  1  0
 10 11  2  0
 11 12  1  0
 12 13  2  0
 13 14  1  0
 14 15  2  0
  9  5  2  0
 15 10  1  0
A    1
 O1 
A    2
 C1 
A    3
 O2 
A    4
 C2 
A    5
 C3 
A    6
 S1 
A    7
 C4 
A    8
 N1 
A    9
 C5 
A   10
 C6 
A   11
 C7 
A   12
 C8 
A   13
 C9 
A   14
 C10
A   15
 C11
M  END
>  <ref_pdb>  (336) 
Ax0310a

>  <ref_mols>  (336) 
Ax0446a,Ax1080a,Ax0812a,Ax0719a,Ax1140a,Ax0528a,Ax0310a

>  <original SMILES>  (336) 
O=C(O)Cc1scnc1-c1ccccc1

>  <rationale>  (336) 
info info set:3d;hbond:S87; saltbridge:H21; 

>  <experiment>  (336) 
3d

>  <cluster_label>  (336) 
9

>  <cluster_rank>  (336) 
45

>  <N_interactions>  (336) 
2

>  <∆∆G>  (336) 
-4.051382

>  <comRMSD>  (336) 
0.865059

>  <ROCS_TanimotoCombo>  (336) 
0.327

>  <ROCS_ShapeTanimoto>  (336) 
0.191

>  <ROCS_ColorTanimoto>  (336) 
0.136

$$$$
EN300_201598
     RDKit          3D

 16 16  0  0  0  0  0  0  0  0999 V2000
   31.4321    8.2121    8.0738 C   0  0  0  0  0  0  0  0  0  0  0  0
   32.2261    8.6013    6.9650 O   0  0  0  0  0  0  0  0  0  0  0  0
   31.8730    9.8362    7.0754 C   0  0  0  0  0  0  0  0  0  0  0  0
   30.7809    9.9138    8.0499 C   0  0  0  0  0  0  0  0  0  0  0  0
   30.2962   11.2809    8.2736 C   0  0  0  0  0  0  0  0  0  0  0  0
   30.7935   12.5778    7.6491 C   0  0  0  0  0  0  0  0  0  0  0  0
   30.0121   14.0061    8.1649 S   0  0  0  0  0  6  0  0  0  0  0  0
   28.7798   13.5279    9.1964 N   0  0  0  0  0  0  0  0  0  0  0  0
   29.2573   14.5408    7.0584 O   0  0  0  0  0  0  0  0  0  0  0  0
   30.9608   14.7275    8.9896 O   0  0  0  0  0  0  0  0  0  0  0  0
   31.9305   12.2184    6.6605 C   0  0  0  0  0  0  0  0  0  0  0  0
   32.4080   10.9267    6.4088 C   0  0  0  0  0  0  0  0  0  0  0  0
   33.7110   10.7166    5.2045 S   0  0  0  0  0  6  0  0  0  0  0  0
   33.1958   11.0600    3.9063 O   0  0  0  0  0  0  0  0  0  0  0  0
   34.3702    9.4446    5.4393 O   0  0  0  0  0  0  0  0  0  0  0  0
   35.1084   12.1702    5.5111 Cl  0  0  0  0  0  0  0  0  0  0  0  0
  1  2  1  0
  2  3  1  0
  3  4  2  0
  4  5  1  0
  5  6  2  0
  6  7  1  0
  7  8  1  0
  7  9  2  0
  7 10  2  0
  6 11  1  0
 11 12  2  0
 12 13  1  0
 13 14  2  0
 13 15  2  0
 13 16  1  0
 12  3  1  0
A    1
 C1 
A    2
 O1 
A    3
 C2 
A    4
 C3 
A    5
 C4 
A    6
 C5 
A    7
 S1 
A    8
 N1 
A    9
 O2 
A   10
 O3 
A   11
 C6 
A   12
 C7 
A   13
 S2 
A   14
 O4 
A   15
 O5 
A   16
CL1 
M  END
>  <ref_pdb>  (337) 
Ax0310a

>  <ref_mols>  (337) 
Ax0446a,Ax1080a,Ax0812a,Ax0719a,Ax1140a,Ax0528a,Ax0310a

>  <original SMILES>  (337) 
COc1ccc(S(N)(=O)=O)cc1S(=O)(=O)Cl

>  <rationale>  (337) 
info info set:sulfonimide_whole;hbond:S87+S125+E88; 

>  <experiment>  (337) 
sulfonimide_whole

>  <cluster_label>  (337) 
8

>  <cluster_rank>  (337) 
45

>  <N_interactions>  (337) 
3

>  <∆∆G>  (337) 
-4.675478

>  <comRMSD>  (337) 
0.682551

>  <ROCS_TanimotoCombo>  (337) 
0.329

>  <ROCS_ShapeTanimoto>  (337) 
0.197

>  <ROCS_ColorTanimoto>  (337) 
0.132

$$$$
EN300_801333
     RDKit          3D

 17 18  0  0  0  0  0  0  0  0999 V2000
   29.1536    7.6766    8.4398 C   0  0  0  0  0  0  0  0  0  0  0  0
   29.5208    8.9778    8.7763 C   0  0  0  0  0  0  0  0  0  0  0  0
   28.7702   10.2371    8.4812 C   0  0  0  0  0  0  0  0  0  0  0  0
   29.1568    8.6488   10.1045 C   0  0  0  0  0  0  0  0  0  0  0  0
   30.9704    9.2083    8.6301 C   0  0  0  0  0  0  0  0  0  0  0  0
   31.5959    9.8942    7.5260 C   0  0  0  0  0  0  0  0  0  0  0  0
   32.4686    9.2367    6.7410 N   0  0  0  0  0  0  0  0  0  0  0  0
   33.0403    9.8791    5.7170 C   0  0  0  0  0  0  0  0  0  0  0  0
   33.9438    9.1861    4.9124 C   0  0  0  0  0  0  0  0  0  0  0  0
   34.5725    9.7409    3.8218 C   0  0  0  0  0  0  0  0  0  0  0  0
   34.2464   11.1726    3.5172 C   0  0  0  0  0  0  0  0  0  0  0  0
   33.3587   11.8582    4.3284 C   0  0  0  0  0  0  0  0  0  0  0  0
   33.0285   13.5058    3.9284 Cl  0  0  0  0  0  0  0  0  0  0  0  0
   32.7501   11.2253    5.4353 C   0  0  0  0  0  0  0  0  0  0  0  0
   31.8492   11.8818    6.2879 C   0  0  0  0  0  0  0  0  0  0  0  0
   31.2707   11.2197    7.3402 C   0  0  0  0  0  0  0  0  0  0  0  0
   30.4105   11.9732    8.1124 O   0  0  0  0  0  0  0  0  0  0  0  0
  1  2  1  0
  2  3  1  0
  2  4  1  0
  2  5  1  0
  5  6  1  0
  6  7  2  0
  7  8  1  0
  8  9  2  0
  9 10  1  0
 10 11  2  0
 11 12  1  0
 12 13  1  0
 12 14  2  0
 14 15  1  0
 15 16  2  0
 16 17  1  0
 16  6  1  0
 14  8  1  0
A    1
 C1 
A    2
 C2 
A    3
 C3 
A    4
 C4 
A    5
 C5 
A    6
 C6 
A    7
 N1 
A    8
 C7 
A    9
 C8 
A   10
 C9 
A   11
 C10
A   12
 C11
A   13
CL1 
A   14
 C12
A   15
 C13
A   16
 C14
A   17
 O1 
M  END
>  <ref_pdb>  (338) 
Ax0310a

>  <ref_mols>  (338) 
Ax0446a,Ax1080a,Ax0812a,Ax0719a,Ax1140a,Ax0528a,Ax0310a

>  <original SMILES>  (338) 
CC(C)(C)Cc1nc2cccc(Cl)c2cc1O

>  <rationale>  (338) 
info info set:bb_densepocket2;hbond:S125; hydroph_interaction:P107+V124+D109; 

>  <experiment>  (338) 
bb_densepocket2

>  <cluster_label>  (338) 
3

>  <cluster_rank>  (338) 
46

>  <N_interactions>  (338) 
4

>  <∆∆G>  (338) 
-3.421354

>  <comRMSD>  (338) 
0.795426

>  <ROCS_TanimotoCombo>  (338) 
0.647

>  <ROCS_ShapeTanimoto>  (338) 
0.241

>  <ROCS_ColorTanimoto>  (338) 
0.406

$$$$
EN300_26665287
     RDKit          3D

 19 19  0  0  0  0  0  0  0  0999 V2000
   27.5639   13.0083    6.7056 C   0  0  0  0  0  0  0  0  0  0  0  0
   27.5196   13.4516    8.1668 C   0  0  0  0  0  0  0  0  0  0  0  0
   26.2057   13.1039    8.8622 C   0  0  0  0  0  0  0  0  0  0  0  0
   27.4732   14.9490    8.2118 C   0  0  0  0  0  0  0  0  0  0  0  0
   28.7104   12.9362    8.7893 O   0  0  0  0  0  0  0  0  0  0  0  0
   29.8485   12.7633    8.0850 C   0  0  0  0  0  0  0  0  0  0  0  0
   30.4480   13.6201    7.4815 O   0  0  0  0  0  0  0  0  0  0  0  0
   30.2129   11.4626    8.1710 N   0  0  0  0  0  0  0  0  0  0  0  0
   31.2084   10.8285    7.4185 C   0  0  0  0  0  0  0  0  0  0  0  0
   32.0284   11.5897    6.4484 C   0  0  0  0  0  0  0  0  0  0  0  0
   33.0670   10.8701    5.6789 C   0  0  0  0  0  0  0  0  0  0  0  0
   33.1978    9.4573    5.9399 C   0  0  0  0  0  0  0  0  0  0  0  0
   34.1434    8.7746    5.2420 O   0  0  0  0  0  0  0  0  0  0  0  0
   32.4511    8.7573    6.8303 N   0  0  0  0  0  0  0  0  0  0  0  0
   31.4509    9.4536    7.5716 C   0  0  0  0  0  0  0  0  0  0  0  0
   30.6192    8.7066    8.5756 C   0  0  0  0  0  0  0  0  0  0  0  0
   31.2957    7.8637    9.3558 F   0  0  0  0  0  0  0  0  0  0  0  0
   29.5368    8.0233    8.2047 F   0  0  0  0  0  0  0  0  0  0  0  0
   30.0833    9.5499    9.4396 F   0  0  0  0  0  0  0  0  0  0  0  0
  1  2  1  0
  2  3  1  0
  2  4  1  0
  2  5  1  0
  5  6  1  0
  6  7  2  0
  6  8  1  0
  8  9  1  0
  9 10  2  0
 10 11  1  0
 11 12  2  0
 12 13  1  0
 12 14  1  0
 14 15  2  0
 15 16  1  0
 16 17  1  0
 16 18  1  0
 16 19  1  0
 15  9  1  0
A    1
 C1 
A    2
 C2 
A    3
 C3 
A    4
 C4 
A    5
 O1 
A    6
 C5 
A    7
 O2 
A    8
 N1 
A    9
 C6 
A   10
 C7 
A   11
 C8 
A   12
 C9 
A   13
 O3 
A   14
 N2 
A   15
 C10
A   16
 C11
A   17
 F1 
A   18
 F2 
A   19
 F3 
M  END
>  <ref_pdb>  (339) 
Ax0310a

>  <ref_mols>  (339) 
Ax0446a,Ax1080a,Ax0812a,Ax0719a,Ax1140a,Ax0528a,Ax0310a

>  <original SMILES>  (339) 
CC(C)(C)OC(=O)Nc1ccc(O)nc1C(F)(F)F

>  <rationale>  (339) 
info info set:bb_densepocket2;hbond:S87; hydroph_interaction:P107+Y89+Y90+H21; 

>  <experiment>  (339) 
bb_densepocket2

>  <cluster_label>  (339) 
9

>  <cluster_rank>  (339) 
46

>  <N_interactions>  (339) 
6

>  <∆∆G>  (339) 
-2.176146

>  <comRMSD>  (339) 
0.328538

>  <ROCS_TanimotoCombo>  (339) 
0.61

>  <ROCS_ShapeTanimoto>  (339) 
0.272

>  <ROCS_ColorTanimoto>  (339) 
0.338

$$$$
Z2893434592
     RDKit          3D

 17 17  0  0  0  0  0  0  0  0999 V2000
   29.9217    8.6479    8.5477 C   0  0  0  0  0  0  0  0  0  0  0  0
   31.3077    8.6614    8.2765 N   0  0  0  0  0  0  0  0  0  0  0  0
   31.8664    9.5290    7.3061 C   0  0  0  0  0  0  0  0  0  0  0  0
   32.7967    8.9973    6.4971 N   0  0  0  0  0  0  0  0  0  0  0  0
   33.4071    9.7471    5.5700 C   0  0  0  0  0  0  0  0  0  0  0  0
   34.4335    9.0727    4.7172 C   0  0  0  0  0  0  0  0  0  0  0  0
   33.1233   11.0835    5.3951 C   0  0  0  0  0  0  0  0  0  0  0  0
   32.1618   11.6665    6.2054 C   0  0  0  0  0  0  0  0  0  0  0  0
   31.5216   10.8953    7.1633 C   0  0  0  0  0  0  0  0  0  0  0  0
   30.5036   11.5223    8.0100 C   0  0  0  0  0  0  0  0  0  0  0  0
   30.0718   10.8104    8.8625 O   0  0  0  0  0  0  0  0  0  0  0  0
   30.1107   12.8517    7.7382 N   0  0  0  0  0  0  0  0  0  0  0  0
   29.2343   13.7446    8.5890 C   0  0  0  0  0  0  0  0  0  0  0  0
   30.0071   14.3564    9.7725 C   0  0  0  0  0  0  0  0  0  0  0  0
   28.1443   12.9073    9.1178 C   0  0  0  0  0  0  0  0  0  0  0  0
   28.3231   14.7409    7.8501 C   0  0  0  0  0  0  0  0  0  0  0  0
   28.8946   15.2849    6.7049 O   0  0  0  0  0  0  0  0  0  0  0  0
  1  2  1  0
  2  3  1  0
  3  4  2  0
  4  5  1  0
  5  6  1  0
  5  7  2  0
  7  8  1  0
  8  9  2  0
  9 10  1  0
 10 11  2  0
 10 12  1  0
 12 13  1  0
 13 14  1  0
 13 15  1  0
 13 16  1  0
 16 17  1  0
  9  3  1  0
A    1
 C1 
A    2
 N1 
A    3
 C2 
A    4
 N2 
A    5
 C3 
A    6
 C4 
A    7
 C5 
A    8
 C6 
A    9
 C7 
A   10
 C8 
A   11
 O1 
A   12
 N3 
A   13
 C9 
A   14
 C10
A   15
 C11
A   16
 C12
A   17
 O2 
M  END
>  <ref_pdb>  (340) 
Ax0310a

>  <ref_mols>  (340) 
Ax0446a,Ax1080a,Ax0812a,Ax0719a,Ax1140a,Ax0528a,Ax0310a

>  <original SMILES>  (340) 
CNc1nc(C)ccc1C(=O)NC(C)(C)CO

>  <rationale>  (340) 
info info set:screening_pocket;hbond:E88+T126; hydroph_interaction:P107; 

>  <experiment>  (340) 
screening_pocket

>  <cluster_label>  (340) 
8

>  <cluster_rank>  (340) 
46

>  <N_interactions>  (340) 
3

>  <∆∆G>  (340) 
-6.941723

>  <comRMSD>  (340) 
0.687151

>  <ROCS_TanimotoCombo>  (340) 
0.631

>  <ROCS_ShapeTanimoto>  (340) 
0.255

>  <ROCS_ColorTanimoto>  (340) 
0.375

$$$$
EN300_271818
     RDKit          3D

 15 15  0  0  0  0  0  0  0  0999 V2000
   30.2538    9.1171    8.1226 C   0  0  0  0  0  0  0  0  0  0  0  0
   31.1497    7.9334    8.1809 C   0  0  0  0  0  0  0  0  0  0  0  0
   32.1771    8.2278    7.2191 O   0  0  0  0  0  0  0  0  0  0  0  0
   31.9127    9.5040    7.2241 C   0  0  0  0  0  0  0  0  0  0  0  0
   30.7559    9.7287    8.1772 C   0  0  0  0  0  0  0  0  0  0  0  0
   30.3141   11.1414    8.3091 C   0  0  0  0  0  0  0  0  0  0  0  0
   30.9556   12.2407    7.5934 C   0  0  0  0  0  0  0  0  0  0  0  0
   30.1960   13.7674    8.0122 S   0  0  0  0  0  6  0  0  0  0  0  0
   28.9401   13.4695    9.0747 N   0  0  0  0  0  0  0  0  0  0  0  0
   29.4761   14.2398    6.8598 O   0  0  0  0  0  0  0  0  0  0  0  0
   31.1530   14.5228    8.7986 O   0  0  0  0  0  0  0  0  0  0  0  0
   32.0271   11.9852    6.7161 C   0  0  0  0  0  0  0  0  0  0  0  0
   32.6212   13.2422    6.0053 C   0  0  0  0  0  0  0  0  0  0  0  0
   32.5361   10.6836    6.4876 C   0  0  0  0  0  0  0  0  0  0  0  0
   33.6742   10.4376    5.5419 C   0  0  0  0  0  0  0  0  0  0  0  0
  1  2  1  0
  2  3  1  0
  3  4  1  0
  4  5  2  0
  5  6  1  0
  6  7  2  0
  7  8  1  0
  8  9  1  0
  8 10  2  0
  8 11  2  0
  7 12  1  0
 12 13  1  0
 12 14  2  0
 14 15  1  0
 14  4  1  0
A    1
 C1 
A    2
 C2 
A    3
 O1 
A    4
 C3 
A    5
 C4 
A    6
 C5 
A    7
 C6 
A    8
 S1 
A    9
 N1 
A   10
 O2 
A   11
 O3 
A   12
 C7 
A   13
 C8 
A   14
 C9 
A   15
 C10
M  END
>  <ref_pdb>  (341) 
Ax0310a

>  <ref_mols>  (341) 
Ax0446a,Ax1080a,Ax0812a,Ax0719a,Ax1140a,Ax0528a,Ax0310a

>  <original SMILES>  (341) 
CCOc1ccc(S(N)(=O)=O)c(C)c1C

>  <rationale>  (341) 
info info set:sulfonimide_whole;hbond:S87+S125+E88; 

>  <experiment>  (341) 
sulfonimide_whole

>  <cluster_label>  (341) 
8

>  <cluster_rank>  (341) 
47

>  <N_interactions>  (341) 
3

>  <∆∆G>  (341) 
-3.138549

>  <comRMSD>  (341) 
0.930281

>  <ROCS_TanimotoCombo>  (341) 
0.33

>  <ROCS_ShapeTanimoto>  (341) 
0.198

>  <ROCS_ColorTanimoto>  (341) 
0.132

$$$$
Z3392458808
     RDKit          3D

 18 19  0  0  0  0  0  0  0  0999 V2000
   29.8715    8.3737    8.2595 C   0  0  0  0  0  0  0  0  0  0  0  0
   30.4753    9.4882    8.9964 C   0  0  0  0  0  0  0  0  0  0  0  0
   31.4459    9.6951    7.8390 C   0  0  0  0  0  0  0  0  0  0  0  0
   31.8871    8.6458    7.1495 N   0  0  0  0  0  0  0  0  0  0  0  0
   32.7002    9.1580    6.1561 O   0  0  0  0  0  0  0  0  0  0  0  0
   32.7622   10.5001    6.2811 C   0  0  0  0  0  0  0  0  0  0  0  0
   33.6181   11.2552    5.2764 C   0  0  0  0  0  0  0  0  0  0  0  0
   32.0049   10.9061    7.3382 C   0  0  0  0  0  0  0  0  0  0  0  0
   31.8713   12.3970    7.7947 C   0  0  0  0  0  0  0  0  0  0  0  0
   30.7783   12.6931    8.6926 N   0  0  0  0  0  0  0  0  0  0  0  0
   29.7656   13.5375    8.3918 C   0  0  0  0  0  0  0  0  0  0  0  0
   29.0695   14.4146    9.3457 C   0  0  0  0  0  0  0  0  0  0  0  0
   29.3882   14.4808   10.6418 F   0  0  0  0  0  0  0  0  0  0  0  0
   28.0906   15.1556    8.8673 C   0  0  0  0  0  0  0  0  0  0  0  0
   27.7004   15.1634    7.5917 N   0  0  0  0  0  0  0  0  0  0  0  0
   28.3190   14.3867    6.6673 C   0  0  0  0  0  0  0  0  0  0  0  0
   29.3636   13.5754    7.1011 C   0  0  0  0  0  0  0  0  0  0  0  0
   30.1692   12.6197    6.0163 Cl  0  0  0  0  0  0  0  0  0  0  0  0
  1  2  1  0
  2  3  1  0
  3  4  2  0
  4  5  1  0
  5  6  1  0
  6  7  1  0
  6  8  2  0
  8  9  1  0
  9 10  1  0
 10 11  1  0
 11 12  2  0
 12 13  1  0
 12 14  1  0
 14 15  2  0
 15 16  1  0
 16 17  2  0
 17 18  1  0
  8  3  1  0
 17 11  1  0
A    1
 C1 
A    2
 C2 
A    3
 C3 
A    4
 N1 
A    5
 O1 
A    6
 C4 
A    7
 C5 
A    8
 C6 
A    9
 C7 
A   10
 N2 
A   11
 C8 
A   12
 C9 
A   13
 F1 
A   14
 C10
A   15
 N3 
A   16
 C11
A   17
 C12
A   18
CL1 
M  END
>  <ref_pdb>  (342) 
Ax0310a

>  <ref_mols>  (342) 
Ax0446a,Ax1080a,Ax0812a,Ax0719a,Ax1140a,Ax0528a,Ax0310a

>  <original SMILES>  (342) 
CCc1noc(C)c1CNc1c(F)cncc1Cl

>  <rationale>  (342) 
info info set:screening_pocket;halogenbond:S125; hbond:S87+S125; hydroph_interaction:V124; pistack:H21; 

>  <experiment>  (342) 
screening_pocket

>  <cluster_label>  (342) 
9

>  <cluster_rank>  (342) 
47

>  <N_interactions>  (342) 
5

>  <∆∆G>  (342) 
-1.212892

>  <comRMSD>  (342) 
0.711972

>  <ROCS_TanimotoCombo>  (342) 
0.65

>  <ROCS_ShapeTanimoto>  (342) 
0.231

>  <ROCS_ColorTanimoto>  (342) 
0.418

$$$$
Z100525310
     RDKit          3D

 18 20  0  0  0  0  0  0  0  0999 V2000
   30.9957    8.6355    7.7816 C   0  0  0  0  0  0  0  0  0  0  0  0
   31.6328    9.8599    7.4724 N   0  0  0  0  0  0  0  0  0  0  0  0
   31.2199   10.9659    8.0926 C   0  0  0  0  0  0  0  0  0  0  0  0
   32.0203   12.1366    7.7015 C   0  0  0  0  0  0  0  0  0  0  0  0
   31.6641   13.4332    8.3837 C   0  0  0  0  0  0  0  0  0  0  0  0
   32.4866   13.9799    9.1161 O   0  0  0  0  0  0  0  0  0  0  0  0
   30.3965   13.9260    8.1553 N   0  0  0  0  0  0  0  0  0  0  0  0
   29.5989   13.3928    7.2062 C   0  0  0  0  0  0  0  0  0  0  0  0
   28.7120   14.4864    6.6040 C   0  0  0  0  0  0  0  0  0  0  0  0
   28.4824   15.5088    7.5740 O   0  0  0  0  0  0  0  0  0  0  0  0
   28.3155   14.8914    8.7582 C   0  0  0  0  0  0  0  0  0  0  0  0
   29.6938   14.5449    9.2732 C   0  0  0  0  0  0  0  0  0  0  0  0
   33.0236   11.6192    6.6783 C   0  0  0  0  0  0  0  0  0  0  0  0
   34.1328   12.3054    5.8826 C   0  0  0  0  0  0  0  0  0  0  0  0
   34.9178   11.3710    4.9599 C   0  0  0  0  0  0  0  0  0  0  0  0
   34.5234    9.8891    4.9282 C   0  0  0  0  0  0  0  0  0  0  0  0
   33.4850    9.3904    5.7101 C   0  0  0  0  0  0  0  0  0  0  0  0
   32.7613   10.2139    6.5524 C   0  0  0  0  0  0  0  0  0  0  0  0
  1  2  1  0
  2  3  1  0
  3  4  2  0
  4  5  1  0
  5  6  2  0
  5  7  1  0
  7  8  1  0
  8  9  1  0
  9 10  1  0
 10 11  1  0
 11 12  1  0
  4 13  1  0
 13 14  2  0
 14 15  1  0
 15 16  2  0
 16 17  1  0
 17 18  2  0
 18  2  1  0
 12  7  1  0
 18 13  1  0
A    1
 C1 
A    2
 N1 
A    3
 C2 
A    4
 C3 
A    5
 C4 
A    6
 O1 
A    7
 N2 
A    8
 C5 
A    9
 C6 
A   10
 O2 
A   11
 C7 
A   12
 C8 
A   13
 C9 
A   14
 C10
A   15
 C11
A   16
 C12
A   17
 C13
A   18
 C14
M  END
>  <ref_pdb>  (343) 
Ax0310a

>  <ref_mols>  (343) 
Ax0446a,Ax1080a,Ax0812a,Ax0719a,Ax1140a,Ax0528a,Ax0310a

>  <original SMILES>  (343) 
Cn1cc(C(=O)N2CCOCC2)c2ccccc21

>  <rationale>  (343) 
info info set:3d;hbond:S87+G127; 

>  <experiment>  (343) 
3d

>  <cluster_label>  (343) 
3

>  <cluster_rank>  (343) 
47

>  <N_interactions>  (343) 
2

>  <∆∆G>  (343) 
-8.387255

>  <comRMSD>  (343) 
0.58376

>  <ROCS_TanimotoCombo>  (343) 
0.346

>  <ROCS_ShapeTanimoto>  (343) 
0.22

>  <ROCS_ColorTanimoto>  (343) 
0.126

$$$$
EN300_192036
     RDKit          3D

 14 14  0  0  0  0  0  0  0  0999 V2000
   34.6935   14.9866    8.5506 N   0  0  0  0  0  0  0  0  0  0  0  0
   33.4929   13.8483    8.5195 S   0  0  0  0  0  6  0  0  0  0  0  0
   32.3034   14.4761    9.0846 O   0  0  0  0  0  0  0  0  0  0  0  0
   34.1314   12.7793    9.1802 O   0  0  0  0  0  0  0  0  0  0  0  0
   33.2821   13.4719    6.7865 C   0  0  0  0  0  0  0  0  0  0  0  0
   31.9638   12.8057    6.5571 C   0  0  0  0  0  0  0  0  0  0  0  0
   30.9362   13.5131    5.8215 O   0  0  0  0  0  0  0  0  0  0  0  0
   31.6447   11.3906    7.0704 C   0  0  0  0  0  0  0  0  0  0  0  0
   32.6941   10.7175    6.1918 C   0  0  0  0  0  0  0  0  0  0  0  0
   32.8555    9.2826    6.2684 C   0  0  0  0  0  0  0  0  0  0  0  0
   31.8710    8.6538    7.2958 C   0  0  0  0  0  0  0  0  0  0  0  0
   30.9232    9.3920    8.0622 C   0  0  0  0  0  0  0  0  0  0  0  0
   30.8111   10.7769    7.9432 C   0  0  0  0  0  0  0  0  0  0  0  0
   29.9203   11.5089    8.6525 O   0  0  0  0  0  0  0  0  0  0  0  0
  1  2  1  0
  2  3  2  0
  2  4  2  0
  2  5  1  0
  5  6  1  0
  6  7  2  0
  6  8  1  0
  8  9  2  0
  9 10  1  0
 10 11  2  0
 11 12  1  0
 12 13  2  0
 13 14  1  0
 13  8  1  0
A    1
 N1 
A    2
 S1 
A    3
 O1 
A    4
 O2 
A    5
 C1 
A    6
 C2 
A    7
 O3 
A    8
 C3 
A    9
 C4 
A   10
 C5 
A   11
 C6 
A   12
 C7 
A   13
 C8 
A   14
 O4 
M  END
>  <ref_pdb>  (344) 
Ax0310a

>  <ref_mols>  (344) 
Ax0446a,Ax1080a,Ax0812a,Ax0719a,Ax1140a,Ax0528a,Ax0310a

>  <original SMILES>  (344) 
NS(=O)(=O)CC(=O)c1ccccc1O

>  <rationale>  (344) 
info info set:sulfonimide_whole;hbond:S87+S125+G127+E85; hydroph_interaction:P107; 

>  <experiment>  (344) 
sulfonimide_whole

>  <cluster_label>  (344) 
3

>  <cluster_rank>  (344) 
48

>  <N_interactions>  (344) 
5

>  <∆∆G>  (344) 
-5.362484

>  <comRMSD>  (344) 
0.47883

>  <ROCS_TanimotoCombo>  (344) 
0.377

>  <ROCS_ShapeTanimoto>  (344) 
0.193

>  <ROCS_ColorTanimoto>  (344) 
0.184

$$$$
EN300_28221874
     RDKit          3D

 19 19  0  0  0  0  0  0  0  0999 V2000
   28.7864   12.7401    8.3719 C   0  0  0  0  0  0  0  0  0  0  0  0
   30.2131   12.6915    8.5856 N   0  0  0  0  0  0  0  0  0  0  0  0
   30.7465   13.8902    9.0433 C   0  0  0  0  0  0  0  0  0  0  0  0
   32.1363   14.1195    9.1851 O   0  0  0  0  0  0  0  0  0  0  0  0
   29.8265   14.8195    9.3562 O   0  0  0  0  0  0  0  0  0  0  0  0
   28.8333   15.3613    8.4645 C   0  0  0  0  0  0  0  0  0  0  0  0
   28.7683   14.6711    7.2309 C   0  0  0  0  0  0  0  0  0  0  0  0
   28.9780   16.8168    8.3212 C   0  0  0  0  0  0  0  0  0  0  0  0
   27.5293   15.2567    9.0907 C   0  0  0  0  0  0  0  0  0  0  0  0
   30.9641   11.6638    7.9382 C   0  0  0  0  0  0  0  0  0  0  0  0
   30.6807   10.3082    8.1543 C   0  0  0  0  0  0  0  0  0  0  0  0
   31.4147    9.3077    7.5179 C   0  0  0  0  0  0  0  0  0  0  0  0
   32.5449    9.7084    6.5765 C   0  0  0  0  0  0  0  0  0  0  0  0
   32.7901   11.0617    6.4039 C   0  0  0  0  0  0  0  0  0  0  0  0
   34.0924   11.6228    5.3455 S   0  0  0  0  0  6  0  0  0  0  0  0
   33.2740   11.9279    3.9156 N   0  0  0  0  0  0  0  0  0  0  0  0
   34.9922   10.5261    5.0748 O   0  0  0  0  0  0  0  0  0  0  0  0
   34.5470   12.9134    5.8099 O   0  0  0  0  0  0  0  0  0  0  0  0
   32.0078   12.0012    7.0738 C   0  0  0  0  0  0  0  0  0  0  0  0
  1  2  1  0
  2  3  1  0
  3  4  2  0
  3  5  1  0
  5  6  1  0
  6  7  1  0
  6  8  1  0
  6  9  1  0
  2 10  1  0
 10 11  2  0
 11 12  1  0
 12 13  2  0
 13 14  1  0
 14 15  1  0
 15 16  1  0
 15 17  2  0
 15 18  2  0
 14 19  2  0
 19 10  1  0
A    1
 C1 
A    2
 N1 
A    3
 C2 
A    4
 O1 
A    5
 O2 
A    6
 C3 
A    7
 C4 
A    8
 C5 
A    9
 C6 
A   10
 C7 
A   11
 C8 
A   12
 C9 
A   13
 C10
A   14
 C11
A   15
 S1 
A   16
 N2 
A   17
 O3 
A   18
 O4 
A   19
 C12
M  END
>  <ref_pdb>  (345) 
Ax0310a

>  <ref_mols>  (345) 
Ax0446a,Ax1080a,Ax0812a,Ax0719a,Ax1140a,Ax0528a,Ax0310a

>  <original SMILES>  (345) 
CN(C(=O)OC(C)(C)C)c1cccc(S(N)(=O)=O)c1

>  <rationale>  (345) 
info info set:sulfonimide_whole;hbond:S87; hydroph_interaction:H21; 

>  <experiment>  (345) 
sulfonimide_whole

>  <cluster_label>  (345) 
9

>  <cluster_rank>  (345) 
48

>  <N_interactions>  (345) 
2

>  <∆∆G>  (345) 
-6.402534

>  <comRMSD>  (345) 
0.671415

>  <ROCS_TanimotoCombo>  (345) 
0.345

>  <ROCS_ShapeTanimoto>  (345) 
0.221

>  <ROCS_ColorTanimoto>  (345) 
0.124

$$$$
Z31209572
     RDKit          3D

 23 26  0  0  0  0  0  0  0  0999 V2000
   30.1988    8.8143    8.5840 C   0  0  0  0  0  0  0  0  0  0  0  0
   31.0425    9.6085    7.8580 C   0  0  0  0  0  0  0  0  0  0  0  0
   30.8707   10.9302    7.9454 N   0  0  0  0  0  0  0  0  0  0  0  0
   31.7076   11.7356    7.3008 C   0  0  0  0  0  0  0  0  0  0  0  0
   31.5597   13.0827    7.3973 O   0  0  0  0  0  0  0  0  0  0  0  0
   30.2946   13.5320    7.5444 C   0  0  0  0  0  0  0  0  0  0  0  0
   29.2330   13.1667    6.5757 C   0  0  0  0  0  0  0  0  0  0  0  0
   27.8858   13.6671    6.6978 C   0  0  0  0  0  0  0  0  0  0  0  0
   27.5550   14.5844    7.8408 C   0  0  0  0  0  0  0  0  0  0  0  0
   28.5214   14.9134    8.7580 C   0  0  0  0  0  0  0  0  0  0  0  0
   29.9571   14.3676    8.6026 C   0  0  0  0  0  0  0  0  0  0  0  0
   30.9625   14.7570    9.5750 N   0  0  0  0  0  4  0  0  0  0  0  0
   32.1269   14.4758    9.2628 O   0  0  0  0  0  0  0  0  0  0  0  0
   30.6792   15.7169   10.2956 O   0  0  0  0  0  1  0  0  0  0  0  0
   32.7291   11.2389    6.5466 C   0  0  0  0  0  0  0  0  0  0  0  0
   33.8012   11.7862    5.7693 C   0  0  0  0  0  0  0  0  0  0  0  0
   34.6177   10.9118    5.1567 C   0  0  0  0  0  0  0  0  0  0  0  0
   34.1257    9.2989    5.4672 S   0  0  0  0  0  0  0  0  0  0  0  0
   32.8134    9.8490    6.4803 C   0  0  0  0  0  0  0  0  0  0  0  0
   31.9874    8.9851    7.1302 N   0  0  0  0  0  0  0  0  0  0  0  0
   35.6822   11.6418    4.4147 C   0  0  0  0  0  0  0  0  0  0  0  0
   35.4183   13.1288    4.9154 C   0  0  0  0  0  0  0  0  0  0  0  0
   34.1611   13.1002    5.5427 C   0  0  0  0  0  0  0  0  0  0  0  0
  1  2  1  0
  2  3  2  0
  3  4  1  0
  4  5  1  0
  5  6  1  0
  6  7  2  0
  7  8  1  0
  8  9  2  0
  9 10  1  0
 10 11  2  0
 11 12  1  0
 12 13  2  0
 12 14  1  0
  4 15  2  0
 15 16  1  0
 16 17  2  0
 17 18  1  0
 18 19  1  0
 19 20  2  0
 17 21  1  0
 21 22  1  0
 22 23  1  0
 20  2  1  0
 11  6  1  0
 19 15  1  0
 23 16  1  0
M  CHG  2  12   1  14  -1
A    1
 C1 
A    2
 C2 
A    3
 N1 
A    4
 C3 
A    5
 O1 
A    6
 C4 
A    7
 C5 
A    8
 C6 
A    9
 C7 
A   10
 C8 
A   11
 C9 
A   12
 N2 
A   13
 O2 
A   14
 O3 
A   15
 C10
A   16
 C11
A   17
 C12
A   18
 S1 
A   19
 C13
A   20
 N3 
A   21
 C14
A   22
 C15
A   23
 C16
M  END
>  <ref_pdb>  (346) 
Ax0310a

>  <ref_mols>  (346) 
Ax0446a,Ax1080a,Ax0812a,Ax0719a,Ax1140a,Ax0528a,Ax0310a

>  <original SMILES>  (346) 
Cc1nc(Oc2ccccc2[N+](=O)[O-])c2c3c(sc2n1)CCC3

>  <rationale>  (346) 
info info set:screening_whole;hydroph_interaction:P107+Y89+Y90+V124; 

>  <experiment>  (346) 
screening_whole

>  <cluster_label>  (346) 
3

>  <cluster_rank>  (346) 
49

>  <N_interactions>  (346) 
4

>  <∆∆G>  (346) 
-7.905214

>  <comRMSD>  (346) 
0.551887

>  <ROCS_TanimotoCombo>  (346) 
0.47

>  <ROCS_ShapeTanimoto>  (346) 
0.268

>  <ROCS_ColorTanimoto>  (346) 
0.202

$$$$
Z1651808861
     RDKit          3D

 23 26  0  0  0  0  0  0  0  0999 V2000
   30.7361   12.9525    6.2059 O   0  0  0  0  0  0  0  0  0  0  0  0
   30.2619   12.8591    7.3324 C   0  0  0  0  0  0  0  0  0  0  0  0
   30.5993   11.9745    8.2784 N   0  0  0  0  0  0  0  0  0  0  0  0
   31.2598   10.8596    7.7831 C   0  0  0  0  0  0  0  0  0  0  0  0
   30.7619    9.5365    8.2537 C   0  0  0  0  0  0  0  0  0  0  0  0
   31.3987    8.4583    7.7330 C   0  0  0  0  0  0  0  0  0  0  0  0
   32.4731    8.5866    6.7965 N   0  0  0  0  0  0  0  0  0  0  0  0
   32.8999    9.8310    6.4100 C   0  0  0  0  0  0  0  0  0  0  0  0
   33.8658   10.1776    5.5881 N   0  0  0  0  0  0  0  0  0  0  0  0
   33.8226   11.5383    5.6070 C   0  0  0  0  0  0  0  0  0  0  0  0
   32.8946   12.0742    6.3805 N   0  0  0  0  0  0  0  0  0  0  0  0
   32.3036   10.9754    6.8961 N   0  0  0  0  0  0  0  0  0  0  0  0
   29.2580   13.6885    7.7907 C   0  0  0  0  0  0  0  0  0  0  0  0
   28.0360   13.5232    7.0413 C   0  0  0  0  0  0  0  0  0  0  0  0
   26.8937   14.3709    7.4682 C   0  0  0  0  0  0  0  0  0  0  0  0
   27.0582   15.2877    8.6119 C   0  0  0  0  0  0  0  0  0  0  0  0
   28.3537   15.3478    9.2757 C   0  0  0  0  0  0  0  0  0  0  0  0
   29.4690   14.5281    8.8302 C   0  0  0  0  0  0  0  0  0  0  0  0
   30.6806   14.6750    9.4946 N   0  0  0  0  0  0  0  0  0  0  0  0
   30.9571   15.2035   10.7071 C   0  0  0  0  0  0  0  0  0  0  0  0
   32.4437   15.0886   10.7765 C   0  0  0  0  0  0  0  0  0  0  0  0
   32.8908   14.5105    9.6528 N   0  0  0  0  0  0  0  0  0  0  0  0
   31.8317   14.2593    8.9012 N   0  0  0  0  0  0  0  0  0  0  0  0
  1  2  2  0
  2  3  1  0
  3  4  1  0
  4  5  2  0
  5  6  1  0
  6  7  2  0
  7  8  1  0
  8  9  2  0
  9 10  1  0
 10 11  2  0
 11 12  1  0
  2 13  1  0
 13 14  2  0
 14 15  1  0
 15 16  2  0
 16 17  1  0
 17 18  2  0
 18 19  1  0
 19 20  1  0
 20 21  2  0
 21 22  1  0
 22 23  2  0
 12  4  1  0
 18 13  1  0
 23 19  1  0
 12  8  1  0
A    1
 O1 
A    2
 C1 
A    3
 N1 
A    4
 C2 
A    5
 C3 
A    6
 C4 
A    7
 N2 
A    8
 C5 
A    9
 N3 
A   10
 C6 
A   11
 N4 
A   12
 N5 
A   13
 C7 
A   14
 C8 
A   15
 C9 
A   16
 C10
A   17
 C11
A   18
 C12
A   19
 N6 
A   20
 C13
A   21
 C14
A   22
 N7 
A   23
 N8 
M  END
>  <ref_pdb>  (347) 
Ax0310a

>  <ref_mols>  (347) 
Ax0446a,Ax1080a,Ax0812a,Ax0719a,Ax1140a,Ax0528a,Ax0310a

>  <original SMILES>  (347) 
O=C(Nc1ccnc2ncnn12)c1ccccc1-n1ccnn1

>  <rationale>  (347) 
info info set:screening_whole;hbond:S87+S105+S125+G127; hydroph_interaction:Y89+Y90+H21; 

>  <experiment>  (347) 
screening_whole

>  <cluster_label>  (347) 
9

>  <cluster_rank>  (347) 
49

>  <N_interactions>  (347) 
8

>  <∆∆G>  (347) 
-1.010731

>  <comRMSD>  (347) 
0.552174

>  <ROCS_TanimotoCombo>  (347) 
0.455

>  <ROCS_ShapeTanimoto>  (347) 
0.263

>  <ROCS_ColorTanimoto>  (347) 
0.192

$$$$
EN300_801735
     RDKit          3D

 18 19  0  0  0  0  0  0  0  0999 V2000
   29.2211    8.6637   10.2490 C   0  0  0  0  0  0  0  0  0  0  0  0
   29.7380    8.3296    9.0882 C   0  0  0  0  0  0  0  0  0  0  0  0
   29.0197    8.7413    8.0109 C   0  0  0  0  0  0  0  0  0  0  0  0
   29.7521    6.9461    9.1758 C   0  0  0  0  0  0  0  0  0  0  0  0
   31.0783    8.8553    8.8203 C   0  0  0  0  0  0  0  0  0  0  0  0
   31.6054    9.6913    7.6005 C   0  0  0  0  0  0  0  0  0  0  0  0
   32.5270    9.0560    6.8130 N   0  0  0  0  0  0  0  0  0  0  0  0
   33.0680    9.7067    5.7579 C   0  0  0  0  0  0  0  0  0  0  0  0
   34.0168    9.0491    4.9655 C   0  0  0  0  0  0  0  0  0  0  0  0
   34.5842    9.7824    3.7758 C   0  0  0  0  0  0  0  0  0  0  0  0
   35.4804    9.1682    2.9873 F   0  0  0  0  0  0  0  0  0  0  0  0
   34.1330   11.1903    3.4980 C   0  0  0  0  0  0  0  0  0  0  0  0
   33.2078   11.7535    4.3538 C   0  0  0  0  0  0  0  0  0  0  0  0
   32.6860   11.0305    5.4545 C   0  0  0  0  0  0  0  0  0  0  0  0
   31.7425   11.6429    6.2875 C   0  0  0  0  0  0  0  0  0  0  0  0
   31.1747   11.0003    7.3787 C   0  0  0  0  0  0  0  0  0  0  0  0
   30.2218   11.6830    8.1887 N   0  0  0  0  0  0  0  0  0  0  0  0
   29.8696   12.9997    7.8550 N   0  0  0  0  0  0  0  0  0  0  0  0
  1  2  1  0
  2  3  1  0
  2  4  1  0
  2  5  1  0
  5  6  1  0
  6  7  2  0
  7  8  1  0
  8  9  2  0
  9 10  1  0
 10 11  1  0
 10 12  2  0
 12 13  1  0
 13 14  2  0
 14 15  1  0
 15 16  2  0
 16 17  1  0
 17 18  1  0
 16  6  1  0
 14  8  1  0
A    1
 C1 
A    2
 C2 
A    3
 C3 
A    4
 C4 
A    5
 C5 
A    6
 C6 
A    7
 N1 
A    8
 C7 
A    9
 C8 
A   10
 C9 
A   11
 F1 
A   12
 C10
A   13
 C11
A   14
 C12
A   15
 C13
A   16
 C14
A   17
 N2 
A   18
 N3 
M  END
>  <ref_pdb>  (348) 
Ax0310a

>  <ref_mols>  (348) 
Ax0446a,Ax1080a,Ax0812a,Ax0719a,Ax1140a,Ax0528a,Ax0310a

>  <original SMILES>  (348) 
CC(C)(C)Cc1nc2cc(F)ccc2cc1NN

>  <rationale>  (348) 
info info set:bb_densepocket2;hbond:S125; hydroph_interaction:P107+V124+D109; 

>  <experiment>  (348) 
bb_densepocket2

>  <cluster_label>  (348) 
3

>  <cluster_rank>  (348) 
50

>  <N_interactions>  (348) 
6

>  <∆∆G>  (348) 
-0.717816

>  <comRMSD>  (348) 
0.454457

>  <ROCS_TanimotoCombo>  (348) 
0.646

>  <ROCS_ShapeTanimoto>  (348) 
0.254

>  <ROCS_ColorTanimoto>  (348) 
0.392

$$$$
Z1258540488
     RDKit          3D

 12 13  0  0  0  0  0  0  0  0999 V2000
   28.8634   15.2164    7.8895 O   0  0  0  0  0  0  0  0  0  0  0  0
   29.7530   14.5506    8.3964 C   0  0  0  0  0  0  0  0  0  0  0  0
   30.6064   15.1303    9.2709 O   0  0  0  0  0  0  0  0  0  0  0  0
   30.0476   13.1297    8.1904 C   0  0  0  0  0  0  0  0  0  0  0  0
   31.3563   12.8035    7.9098 C   0  0  0  0  0  0  0  0  0  0  0  0
   31.0691   11.6412    7.1747 C   0  0  0  0  0  0  0  0  0  0  0  0
   31.8414   11.2104    6.1397 C   0  0  0  0  0  0  0  0  0  0  0  0
   32.9704   10.5729    6.4981 C   0  0  0  0  0  0  0  0  0  0  0  0
   32.3565    9.2991    6.8506 O   0  0  0  0  0  0  0  0  0  0  0  0
   31.4711    9.2469    7.7324 C   0  0  0  0  0  0  0  0  0  0  0  0
   30.7227   10.4078    8.0203 C   0  0  0  0  0  0  0  0  0  0  0  0
   29.7371   12.3670    6.8182 C   0  0  0  0  0  0  0  0  0  0  0  0
  1  2  2  0
  2  3  1  0
  2  4  1  0
  4  5  1  0
  5  6  1  0
  6  7  1  0
  7  8  1  0
  8  9  1  0
  9 10  1  0
 10 11  1  0
  6 12  1  0
 12  4  1  0
 11  6  1  0
A    1
 O1 
A    2
 C1 
A    3
 O2 
A    4
 C2 
A    5
 C3 
A    6
 C4 
A    7
 C5 
A    8
 C6 
A    9
 O3 
A   10
 C7 
A   11
 C8 
A   12
 C9 
M  END
>  <ref_pdb>  (349) 
Ax0310a

>  <ref_mols>  (349) 
Ax0446a,Ax1080a,Ax0812a,Ax0719a,Ax1140a,Ax0528a,Ax0310a

>  <original SMILES>  (349) 
O=C(O)C1CC2(CCOCC2)C1

>  <rationale>  (349) 
info info set:3d;hbond:S87+E88; hydroph_interaction:P107; saltbridge:H21; 

>  <experiment>  (349) 
3d

>  <cluster_label>  (349) 
9

>  <cluster_rank>  (349) 
50

>  <N_interactions>  (349) 
5

>  <∆∆G>  (349) 
-0.204721

>  <comRMSD>  (349) 
0.480474

>  <ROCS_TanimotoCombo>  (349) 
0.301

>  <ROCS_ShapeTanimoto>  (349) 
0.181

>  <ROCS_ColorTanimoto>  (349) 
0.121

$$$$
EN300_7548324
     RDKit          3D

 19 21  0  0  0  0  0  0  0  0999 V2000
   27.6400   14.0002    7.4223 C   0  0  0  0  0  0  0  0  0  0  0  0
   28.4234   14.6231    8.5394 C   0  0  0  0  0  0  0  0  0  0  0  0
   27.8226   14.5333    9.9562 C   0  0  0  0  0  0  0  0  0  0  0  0
   28.8617   15.9294    8.4851 C   0  0  0  0  0  0  0  0  0  0  0  0
   29.6567   13.8899    8.5971 O   0  0  0  0  0  0  0  0  0  0  0  0
   29.9228   12.9643    7.6589 C   0  0  0  0  0  0  0  0  0  0  0  0
   30.0734   13.1853    6.4681 O   0  0  0  0  0  0  0  0  0  0  0  0
   30.0114   11.7359    8.2425 N   0  0  0  0  0  0  0  0  0  0  0  0
   31.0773   10.8553    7.8725 C   0  0  1  0  0  0  0  0  0  0  0  0
   31.5245   10.7373    6.4443 C   0  0  0  0  0  0  0  0  0  0  0  0
   32.7146   10.2322    6.7091 C   0  0  1  0  0  0  0  0  0  0  0  0
   33.5220   10.2332    5.3923 C   0  0  0  0  0  0  0  0  0  0  0  0
   34.8647   10.6819    5.5472 O   0  0  0  0  0  0  0  0  0  0  0  0
   32.4470   11.5776    7.4537 C   0  0  0  0  0  0  0  0  0  0  0  0
   32.3514    8.9071    7.3242 O   0  0  0  0  0  0  0  0  0  0  0  0
   31.2054    9.2873    8.1579 C   0  0  2  0  0  0  0  0  0  0  0  0
   29.9670    8.4582    8.0691 C   0  0  0  0  0  0  0  0  0  0  0  0
   29.5594    8.7500    9.3254 O   0  0  0  0  0  0  0  0  0  0  0  0
   30.8715    8.5136    9.4756 C   0  0  0  0  0  0  0  0  0  0  0  0
  1  2  1  0
  2  3  1  0
  2  4  1  0
  2  5  1  0
  5  6  1  0
  6  7  2  0
  6  8  1  0
  9  8  1  6
  9 10  1  0
 10 11  1  0
 11 12  1  6
 12 13  1  0
 11 14  1  0
 11 15  1  0
 15 16  1  0
 16 17  1  6
 17 18  1  0
 18 19  1  0
 14  9  1  0
 19 16  1  0
 16  9  1  0
A    1
 C1 
A    2
 C2 
A    3
 C3 
A    4
 C4 
A    5
 O1 
A    6
 C5 
A    7
 O2 
A    8
 N1 
A    9
 C6 
A   10
 C7 
A   11
 C8 
A   12
 C9 
A   13
 O3 
A   14
 C10
A   15
 O4 
A   16
 C11
A   17
 C12
A   18
 O5 
A   19
 C13
M  END
>  <ref_pdb>  (350) 
Ax0310a

>  <ref_mols>  (350) 
Ax0446a,Ax1080a,Ax0812a,Ax0719a,Ax1140a,Ax0528a,Ax0310a

>  <original SMILES>  (350) 
CC(C)(C)OC(=O)N[C@]12C[C@](CO)(C1)O[C@@]21COC1

>  <rationale>  (350) 
info info set:bb_whole;hbond:S87+S125; hydroph_interaction:P107+Y89+Y90; 

>  <experiment>  (350) 
bb_whole

>  <cluster_label>  (350) 
3

>  <cluster_rank>  (350) 
51

>  <N_interactions>  (350) 
6

>  <∆∆G>  (350) 
-0.558732

>  <comRMSD>  (350) 
0.628797

>  <ROCS_TanimotoCombo>  (350) 
0.439

>  <ROCS_ShapeTanimoto>  (350) 
0.242

>  <ROCS_ColorTanimoto>  (350) 
0.197

$$$$
Z90707303
     RDKit          3D

 24 26  0  0  0  0  0  0  0  0999 V2000
   29.7959    8.5738    8.5935 C   0  0  0  0  0  0  0  0  0  0  0  0
   31.2027    8.1887    8.2701 C   0  0  0  0  0  0  0  0  0  0  0  0
   31.7767    9.2342    7.3411 C   0  0  0  0  0  0  0  0  0  0  0  0
   32.7792    8.7593    6.4818 N   0  0  0  0  0  0  0  0  0  0  0  0
   33.3993    9.5020    5.5877 C   0  0  0  0  0  0  0  0  0  0  0  0
   34.4784    8.8990    4.6462 C   0  0  0  0  0  0  0  0  0  0  0  0
   35.0523    9.8026    3.7370 C   0  0  0  0  0  0  0  0  0  0  0  0
   34.7361   11.2984    3.5839 C   0  0  0  0  0  0  0  0  0  0  0  0
   33.7543   11.7399    4.4843 C   0  0  0  0  0  0  0  0  0  0  0  0
   33.0954   10.8401    5.4696 C   0  0  0  0  0  0  0  0  0  0  0  0
   32.0468   11.4824    6.3522 C   0  0  0  0  0  0  0  0  0  0  0  0
   31.6884   12.9755    6.2600 C   0  0  0  0  0  0  0  0  0  0  0  0
   31.3720   10.5558    7.3174 C   0  0  0  0  0  0  0  0  0  0  0  0
   30.2775   10.9825    8.2570 C   0  0  0  0  0  0  0  0  0  0  0  0
   30.3238   10.3267    9.2337 O   0  0  0  0  0  0  0  0  0  0  0  0
   29.3668   11.9570    7.8322 N   0  0  0  0  0  0  0  0  0  0  0  0
   28.6950   13.0462    8.4956 C   0  0  0  0  0  0  0  0  0  0  0  0
   27.8748   13.1081    9.7981 C   0  0  0  0  0  0  0  0  0  0  0  0
   27.3539   14.4782   10.1599 C   0  0  0  0  0  0  0  0  0  0  0  0
   27.5808   15.5347    9.3619 C   0  0  0  0  0  0  0  0  0  0  0  0
   28.3003   15.4103    8.2159 C   0  0  0  0  0  0  0  0  0  0  0  0
   28.8274   14.2070    7.8009 C   0  0  0  0  0  0  0  0  0  0  0  0
   29.5011   14.0617    6.6592 O   0  0  0  0  0  0  0  0  0  0  0  0
   28.5792   13.7106    5.6535 C   0  0  0  0  0  0  0  0  0  0  0  0
  1  2  1  0
  2  3  1  0
  3  4  2  0
  4  5  1  0
  5  6  2  0
  6  7  1  0
  7  8  2  0
  8  9  1  0
  9 10  2  0
 10 11  1  0
 11 12  1  0
 11 13  2  0
 13 14  1  0
 14 15  2  0
 14 16  1  0
 16 17  1  0
 17 18  2  0
 18 19  1  0
 19 20  2  0
 20 21  1  0
 21 22  2  0
 22 23  1  0
 23 24  1  0
 13  3  1  0
 22 17  1  0
 10  5  1  0
A    1
 C1 
A    2
 C2 
A    3
 C3 
A    4
 N1 
A    5
 C4 
A    6
 C5 
A    7
 C6 
A    8
 C7 
A    9
 C8 
A   10
 C9 
A   11
 C10
A   12
 C11
A   13
 C12
A   14
 C13
A   15
 O1 
A   16
 N2 
A   17
 C14
A   18
 C15
A   19
 C16
A   20
 C17
A   21
 C18
A   22
 C19
A   23
 O2 
A   24
 C20
M  END
>  <ref_pdb>  (351) 
Ax0310a

>  <ref_mols>  (351) 
Ax0446a,Ax1080a,Ax0812a,Ax0719a,Ax1140a,Ax0528a,Ax0310a

>  <original SMILES>  (351) 
CCc1nc2ccccc2c(C)c1C(=O)Nc1ccccc1OC

>  <rationale>  (351) 
info info set:screening_pocket;hbond:S87; hydroph_interaction:P107+Y89+Y90+V124+H21; 

>  <experiment>  (351) 
screening_pocket

>  <cluster_label>  (351) 
9

>  <cluster_rank>  (351) 
51

>  <N_interactions>  (351) 
7

>  <∆∆G>  (351) 
-5.57905

>  <comRMSD>  (351) 
0.906964

>  <ROCS_TanimotoCombo>  (351) 
0.629

>  <ROCS_ShapeTanimoto>  (351) 
0.291

>  <ROCS_ColorTanimoto>  (351) 
0.338

$$$$
Z138662256
     RDKit          3D

 17 18  0  0  0  0  0  0  0  0999 V2000
   32.5762   13.4653    8.6839 C   0  0  0  0  0  0  0  0  0  0  0  0
   31.2419   14.1268    8.7569 C   0  0  0  0  0  0  0  0  0  0  0  0
   31.0825   15.2495    9.4724 N   0  0  0  0  0  0  0  0  0  0  0  0
   29.7634   15.5922    9.2962 O   0  0  0  0  0  0  0  0  0  0  0  0
   29.1345   14.6945    8.5107 C   0  0  0  0  0  0  0  0  0  0  0  0
   27.6942   14.8893    8.2133 C   0  0  0  0  0  0  0  0  0  0  0  0
   30.0168   13.7465    8.1425 C   0  0  0  0  0  0  0  0  0  0  0  0
   29.7609   12.6747    7.3599 C   0  0  0  0  0  0  0  0  0  0  0  0
   30.1471   11.5735    8.0384 N   0  0  0  0  0  0  0  0  0  0  0  0
   31.0918   10.8465    7.4991 C   0  0  0  0  0  0  0  0  0  0  0  0
   30.9724    9.5235    7.8588 C   0  0  0  0  0  0  0  0  0  0  0  0
   31.9123    8.6897    7.3201 C   0  0  0  0  0  0  0  0  0  0  0  0
   32.9089    9.1670    6.4784 C   0  0  0  0  0  0  0  0  0  0  0  0
   33.0359   10.4781    6.1322 C   0  0  0  0  0  0  0  0  0  0  0  0
   34.0488   10.9345    5.2966 C   0  0  0  0  0  0  0  0  0  0  0  0
   34.9105    9.9964    4.9022 N   0  0  0  0  0  0  0  0  0  0  0  0
   32.0932   11.3432    6.6586 C   0  0  0  0  0  0  0  0  0  0  0  0
  1  2  1  0
  2  3  2  0
  3  4  1  0
  4  5  1  0
  5  6  1  0
  5  7  2  0
  7  8  1  0
  8  9  1  0
  9 10  1  0
 10 11  2  0
 11 12  1  0
 12 13  2  0
 13 14  1  0
 14 15  1  0
 15 16  3  0
 14 17  2  0
  7  2  1  0
 17 10  1  0
A    1
 C1 
A    2
 C2 
A    3
 N1 
A    4
 O1 
A    5
 C3 
A    6
 C4 
A    7
 C5 
A    8
 C6 
A    9
 N2 
A   10
 C7 
A   11
 C8 
A   12
 C9 
A   13
 C10
A   14
 C11
A   15
 C12
A   16
 N3 
A   17
 C13
M  END
>  <ref_pdb>  (352) 
Ax0310a

>  <ref_mols>  (352) 
Ax0446a,Ax1080a,Ax0812a,Ax0719a,Ax1140a,Ax0528a,Ax0310a

>  <original SMILES>  (352) 
Cc1noc(C)c1CNc1cccc(C#N)c1

>  <rationale>  (352) 
info info set:3d;hbond:S87+S105+S125; hydroph_interaction:Y89+V84; 

>  <experiment>  (352) 
3d

>  <cluster_label>  (352) 
3

>  <cluster_rank>  (352) 
52

>  <N_interactions>  (352) 
5

>  <∆∆G>  (352) 
-8.206192

>  <comRMSD>  (352) 
0.716227

>  <ROCS_TanimotoCombo>  (352) 
0.329

>  <ROCS_ShapeTanimoto>  (352) 
0.215

>  <ROCS_ColorTanimoto>  (352) 
0.114

$$$$
EN300_1461986
     RDKit          3D

 12 12  0  0  0  0  0  0  0  0999 V2000
   28.4749   13.0497    7.6644 C   0  0  0  0  0  0  0  0  0  0  0  0
   29.3922   12.1146    7.0887 O   0  0  0  0  0  0  0  0  0  0  0  0
   30.4713   11.8968    7.8499 C   0  0  0  0  0  0  0  0  0  0  0  0
   30.7362   12.5340    8.8301 O   0  0  0  0  0  0  0  0  0  0  0  0
   31.3608   10.7754    7.3120 C   0  0  0  0  0  0  0  0  0  0  0  0
   32.3260   11.5136    6.4171 C   0  0  0  0  0  0  0  0  0  0  0  0
   33.2749   10.8393    5.7471 N   0  0  0  0  0  0  0  0  0  0  0  0
   33.2997    9.5089    5.9303 C   0  0  0  0  0  0  0  0  0  0  0  0
   34.2789    8.8418    5.2302 N   0  0  0  0  0  0  0  0  0  0  0  0
   32.4652    8.7796    6.7290 N   0  0  0  0  0  0  0  0  0  0  0  0
   31.5114    9.4296    7.4038 C   0  0  0  0  0  0  0  0  0  0  0  0
   30.7600    8.5867    8.1481 O   0  0  0  0  0  0  0  0  0  0  0  0
  1  2  1  0
  2  3  1  0
  3  4  2  0
  3  5  1  0
  5  6  2  0
  6  7  1  0
  7  8  2  0
  8  9  1  0
  8 10  1  0
 10 11  2  0
 11 12  1  0
 11  5  1  0
A    1
 C1 
A    2
 O1 
A    3
 C2 
A    4
 O2 
A    5
 C3 
A    6
 C4 
A    7
 N1 
A    8
 C5 
A    9
 N2 
A   10
 N3 
A   11
 C6 
A   12
 O3 
M  END
>  <ref_pdb>  (353) 
Ax0310a

>  <ref_mols>  (353) 
Ax0446a,Ax1080a,Ax0812a,Ax0719a,Ax1140a,Ax0528a,Ax0310a

>  <original SMILES>  (353) 
COC(=O)c1cnc(N)nc1O

>  <rationale>  (353) 
info info set:bb_densepocket2;hbond:S105+G127; saltbridge:H21; 

>  <experiment>  (353) 
bb_densepocket2

>  <cluster_label>  (353) 
9

>  <cluster_rank>  (353) 
52

>  <N_interactions>  (353) 
4

>  <∆∆G>  (353) 
-3.425875

>  <comRMSD>  (353) 
0.599756

>  <ROCS_TanimotoCombo>  (353) 
0.618

>  <ROCS_ShapeTanimoto>  (353) 
0.238

>  <ROCS_ColorTanimoto>  (353) 
0.38

$$$$
EN300_45227041
     RDKit          3D

 16 17  0  0  0  0  0  0  0  0999 V2000
   29.5583   14.8496    8.5219 C   0  0  0  0  0  0  0  0  0  0  0  0
   28.3495   14.0015    8.7619 C   0  0  0  0  0  0  0  0  0  0  0  0
   27.7152   14.3922   10.0691 C   0  0  0  0  0  0  0  0  0  0  0  0
   27.4188   14.1759    7.5692 C   0  0  0  0  0  0  0  0  0  0  0  0
   28.6695   12.6313    8.7557 O   0  0  0  0  0  0  0  0  0  0  0  0
   29.4060   12.1805    7.7677 C   0  0  0  0  0  0  0  0  0  0  0  0
   29.0754   12.1816    6.6041 O   0  0  0  0  0  0  0  0  0  0  0  0
   30.5669   11.7442    8.2943 N   0  0  0  0  0  0  0  0  0  0  0  0
   31.6190   11.2569    7.4688 C   0  0  2  0  0  0  0  0  0  0  0  0
   31.4021   11.9062    6.1323 C   0  0  0  0  0  0  0  0  0  0  0  0
   32.6809   11.5719    5.2665 C   0  0  0  0  0  0  0  0  0  0  0  0
   33.5012   10.8764    6.2830 C   0  0  2  0  0  0  0  0  0  0  0  0
   32.8287    9.4883    6.3606 C   0  0  0  0  0  0  0  0  0  0  0  0
   31.6443    9.6950    7.2745 C   0  0  1  0  0  0  0  0  0  0  0  0
   31.6096    8.8851    8.4430 O   0  0  0  0  0  0  0  0  0  0  0  0
   32.9900   11.8922    7.3229 C   0  0  0  0  0  0  0  0  0  0  0  0
  1  2  1  0
  2  3  1  0
  2  4  1  0
  2  5  1  0
  5  6  1  0
  6  7  2  0
  6  8  1  0
  9  8  1  1
  9 10  1  0
 10 11  1  0
 12 11  1  6
 12 13  1  0
 13 14  1  0
 14 15  1  1
 12 16  1  0
 14  9  1  0
 16  9  1  0
A    1
 C1 
A    2
 C2 
A    3
 C3 
A    4
 C4 
A    5
 O1 
A    6
 C5 
A    7
 O2 
A    8
 N1 
A    9
 C6 
A   10
 C7 
A   11
 C8 
A   12
 C9 
A   13
 C10
A   14
 C11
A   15
 O3 
A   16
 C12
M  END
>  <ref_pdb>  (354) 
Ax0310a

>  <ref_mols>  (354) 
Ax0446a,Ax1080a,Ax0812a,Ax0719a,Ax1140a,Ax0528a,Ax0310a

>  <original SMILES>  (354) 
CC(C)(C)OC(=O)N[C@]12CC[C@H](C[C@H]1O)C2

>  <rationale>  (354) 
info info set:bb_densepocket;hbond:S125+G127; hydroph_interaction:P107+Y89+Y90; 

>  <experiment>  (354) 
bb_densepocket

>  <cluster_label>  (354) 
3

>  <cluster_rank>  (354) 
53

>  <N_interactions>  (354) 
5

>  <∆∆G>  (354) 
-0.929992

>  <comRMSD>  (354) 
0.877461

>  <ROCS_TanimotoCombo>  (354) 
0.749

>  <ROCS_ShapeTanimoto>  (354) 
0.24

>  <ROCS_ColorTanimoto>  (354) 
0.508

$$$$
EN300_6520518
     RDKit          3D

 27 30  0  0  0  0  0  0  0  0999 V2000
   30.3503    8.0645    8.4607 C   0  0  0  0  0  0  0  0  0  0  0  0
   31.3093    8.9779    7.7453 C   0  0  0  0  0  0  0  0  0  0  0  0
   31.1014   10.3496    8.2093 C   0  0  0  0  0  0  0  0  0  0  0  0
   32.0061   11.3734    7.6193 C   0  0  0  0  0  0  0  0  0  0  0  0
   31.9824   12.7973    7.9783 C   0  0  0  0  0  0  0  0  0  0  0  0
   32.3966   13.3043    9.0038 O   0  0  0  0  0  0  0  0  0  0  0  0
   31.4637   13.2872    7.0661 O   0  0  0  0  0  0  0  0  0  0  0  0
   30.3596   13.3475    7.7332 N   0  0  0  0  0  0  0  0  0  0  0  0
   30.3322   14.3699    8.6839 C   0  0  0  0  0  0  0  0  0  0  0  0
   31.1548   14.8924    9.4383 O   0  0  0  0  0  0  0  0  0  0  0  0
   29.0309   14.7101    8.5550 C   0  0  0  0  0  0  0  0  0  0  0  0
   28.9099   15.8486    9.3579 C   0  0  0  0  0  0  0  0  0  0  0  0
   27.6446   16.2203    9.2767 C   0  0  0  0  0  0  0  0  0  0  0  0
   26.7890   15.3557    8.3950 C   0  0  0  0  0  0  0  0  0  0  0  0
   27.1175   14.1738    7.6067 C   0  0  0  0  0  0  0  0  0  0  0  0
   28.3455   13.9388    7.7846 C   0  0  0  0  0  0  0  0  0  0  0  0
   29.1169   12.9870    7.2832 C   0  0  0  0  0  0  0  0  0  0  0  0
   28.6892   12.1005    6.6230 O   0  0  0  0  0  0  0  0  0  0  0  0
   32.9162   11.0272    6.7077 C   0  0  0  0  0  0  0  0  0  0  0  0
   33.8706   11.7550    5.9912 C   0  0  0  0  0  0  0  0  0  0  0  0
   34.0897   13.2635    6.1051 C   0  0  0  0  0  0  0  0  0  0  0  0
   35.2016   13.7459    7.0617 C   0  0  0  0  0  0  0  0  0  0  0  0
   34.2071   13.9684    4.7602 C   0  0  0  0  0  0  0  0  0  0  0  0
   34.5582   10.9287    5.1903 N   0  0  0  0  0  0  0  0  0  0  0  0
   34.0164    9.6501    5.4129 O   0  0  0  0  0  0  0  0  0  0  0  0
   33.0096    9.7054    6.3414 C   0  0  0  0  0  0  0  0  0  0  0  0
   32.2561    8.6476    6.8121 N   0  0  0  0  0  0  0  0  0  0  0  0
  1  2  1  0
  2  3  2  0
  3  4  1  0
  4  5  1  0
  5  6  2  0
  5  7  1  0
  7  8  1  0
  8  9  1  0
  9 10  2  0
  9 11  1  0
 11 12  2  0
 12 13  1  0
 13 14  2  0
 14 15  1  0
 15 16  2  0
 16 17  1  0
 17 18  2  0
  4 19  2  0
 19 20  1  0
 20 21  1  0
 21 22  1  0
 21 23  1  0
 20 24  2  0
 24 25  1  0
 25 26  1  0
 26 27  2  0
 27  2  1  0
 17  8  1  0
 26 19  1  0
 16 11  1  0
A    1
 C1 
A    2
 C2 
A    3
 C3 
A    4
 C4 
A    5
 C5 
A    6
 O1 
A    7
 O2 
A    8
 N1 
A    9
 C6 
A   10
 O3 
A   11
 C7 
A   12
 C8 
A   13
 C9 
A   14
 C10
A   15
 C11
A   16
 C12
A   17
 C13
A   18
 O4 
A   19
 C14
A   20
 C15
A   21
 C16
A   22
 C17
A   23
 C18
A   24
 N2 
A   25
 O5 
A   26
 C19
A   27
 N3 
M  END
>  <ref_pdb>  (355) 
Ax0310a

>  <ref_mols>  (355) 
Ax0446a,Ax1080a,Ax0812a,Ax0719a,Ax1140a,Ax0528a,Ax0310a

>  <original SMILES>  (355) 
Cc1cc(C(=O)ON2C(=O)c3ccccc3C2=O)c2c(C(C)C)noc2n1

>  <rationale>  (355) 
info info set:bb_whole;hbond:S87+G127; hydroph_interaction:Y89+Y90+V124+H21; 

>  <experiment>  (355) 
bb_whole

>  <cluster_label>  (355) 
9

>  <cluster_rank>  (355) 
53

>  <N_interactions>  (355) 
7

>  <∆∆G>  (355) 
-0.095223

>  <comRMSD>  (355) 
0.982669

>  <ROCS_TanimotoCombo>  (355) 
0.417

>  <ROCS_ShapeTanimoto>  (355) 
0.277

>  <ROCS_ColorTanimoto>  (355) 
0.14

$$$$
EN300_7463896
     RDKit          3D

 13 13  0  0  0  0  0  0  0  0999 V2000
   28.6923   13.1026    7.9576 C   0  0  0  0  0  0  0  0  0  0  0  0
   29.9954   12.7206    7.4914 O   0  0  0  0  0  0  0  0  0  0  0  0
   30.3989   11.5012    7.9301 C   0  0  0  0  0  0  0  0  0  0  0  0
   29.9650   10.8997    8.8455 O   0  0  0  0  0  0  0  0  0  0  0  0
   31.4654   10.8625    7.1466 C   0  0  0  0  0  0  0  0  0  0  0  0
   32.3399   11.6951    6.2539 C   0  0  0  0  0  0  0  0  0  0  0  0
   33.5308   11.2520    5.3162 C   0  0  0  0  0  0  0  0  0  0  0  0
   34.5081   12.2381    4.3103 Cl  0  0  0  0  0  0  0  0  0  0  0  0
   33.5443    9.6943    5.5756 C   0  0  0  0  0  0  0  0  0  0  0  0
   34.5684    8.8815    4.8327 C   0  0  0  0  0  0  0  0  0  0  0  0
   32.7360    8.8611    6.4212 N   0  0  0  0  0  0  0  0  0  0  0  0
   31.6741    9.3791    7.2397 C   0  0  0  0  0  0  0  0  0  0  0  0
   30.8978    8.5449    8.0496 N   0  0  0  0  0  0  0  0  0  0  0  0
  1  2  1  0
  2  3  1  0
  3  4  2  0
  3  5  1  0
  5  6  2  0
  6  7  1  0
  7  8  1  0
  7  9  2  0
  9 10  1  0
  9 11  1  0
 11 12  2  0
 12 13  1  0
 12  5  1  0
A    1
 C1 
A    2
 O1 
A    3
 C2 
A    4
 O2 
A    5
 C3 
A    6
 C4 
A    7
 C5 
A    8
CL1 
A    9
 C6 
A   10
 C7 
A   11
 N1 
A   12
 C8 
A   13
 N2 
M  END
>  <ref_pdb>  (356) 
Ax0310a

>  <ref_mols>  (356) 
Ax0446a,Ax1080a,Ax0812a,Ax0719a,Ax1140a,Ax0528a,Ax0310a

>  <original SMILES>  (356) 
COC(=O)c1cc(Cl)c(C)nc1N

>  <rationale>  (356) 
info info set:bb_densepocket2;hbond:S105; hydroph_interaction:P107; saltbridge:H21; 

>  <experiment>  (356) 
bb_densepocket2

>  <cluster_label>  (356) 
9

>  <cluster_rank>  (356) 
54

>  <N_interactions>  (356) 
3

>  <∆∆G>  (356) 
-3.95744

>  <comRMSD>  (356) 
0.586593

>  <ROCS_TanimotoCombo>  (356) 
0.62

>  <ROCS_ShapeTanimoto>  (356) 
0.247

>  <ROCS_ColorTanimoto>  (356) 
0.373

$$$$
EN300_801805
     RDKit          3D

 18 19  0  0  0  0  0  0  0  0999 V2000
   29.2935    8.6968   10.1718 C   0  0  0  0  0  0  0  0  0  0  0  0
   29.8061    8.2998    9.0061 C   0  0  0  0  0  0  0  0  0  0  0  0
   28.9889    8.7499    8.0542 C   0  0  0  0  0  0  0  0  0  0  0  0
   29.7356    6.9314    9.1707 C   0  0  0  0  0  0  0  0  0  0  0  0
   31.1810    8.7810    8.7101 C   0  0  0  0  0  0  0  0  0  0  0  0
   31.6909    9.5887    7.5408 C   0  0  0  0  0  0  0  0  0  0  0  0
   32.6600    9.0206    6.6939 N   0  0  0  0  0  0  0  0  0  0  0  0
   33.1804    9.7623    5.6313 C   0  0  0  0  0  0  0  0  0  0  0  0
   34.2598    9.3826    4.5654 C   0  0  0  0  0  0  0  0  0  0  0  0
   35.1970    7.9640    4.3293 Cl  0  0  0  0  0  0  0  0  0  0  0  0
   34.6968   10.2016    3.5277 C   0  0  0  0  0  0  0  0  0  0  0  0
   34.0368   11.5487    3.5136 C   0  0  0  0  0  0  0  0  0  0  0  0
   33.1040   11.9057    4.4446 C   0  0  0  0  0  0  0  0  0  0  0  0
   32.6822   11.0636    5.4664 C   0  0  0  0  0  0  0  0  0  0  0  0
   31.7252   11.5808    6.3263 C   0  0  0  0  0  0  0  0  0  0  0  0
   31.2014   10.8812    7.3796 C   0  0  0  0  0  0  0  0  0  0  0  0
   30.2264   11.5085    8.2098 N   0  0  0  0  0  0  0  0  0  0  0  0
   29.8300   12.8205    7.9006 N   0  0  0  0  0  0  0  0  0  0  0  0
  1  2  1  0
  2  3  1  0
  2  4  1  0
  2  5  1  0
  5  6  1  0
  6  7  2  0
  7  8  1  0
  8  9  2  0
  9 10  1  0
  9 11  1  0
 11 12  2  0
 12 13  1  0
 13 14  2  0
 14 15  1  0
 15 16  2  0
 16 17  1  0
 17 18  1  0
 16  6  1  0
 14  8  1  0
A    1
 C1 
A    2
 C2 
A    3
 C3 
A    4
 C4 
A    5
 C5 
A    6
 C6 
A    7
 N1 
A    8
 C7 
A    9
 C8 
A   10
CL1 
A   11
 C9 
A   12
 C10
A   13
 C11
A   14
 C12
A   15
 C13
A   16
 C14
A   17
 N2 
A   18
 N3 
M  END
>  <ref_pdb>  (357) 
Ax0310a

>  <ref_mols>  (357) 
Ax0446a,Ax1080a,Ax0812a,Ax0719a,Ax1140a,Ax0528a,Ax0310a

>  <original SMILES>  (357) 
CC(C)(C)Cc1nc2c(Cl)cccc2cc1NN

>  <rationale>  (357) 
info info set:bb_densepocket2;hbond:S125; hydroph_interaction:P107+V124+D109; 

>  <experiment>  (357) 
bb_densepocket2

>  <cluster_label>  (357) 
3

>  <cluster_rank>  (357) 
54

>  <N_interactions>  (357) 
6

>  <∆∆G>  (357) 
-0.352825

>  <comRMSD>  (357) 
0.67931

>  <ROCS_TanimotoCombo>  (357) 
0.647

>  <ROCS_ShapeTanimoto>  (357) 
0.255

>  <ROCS_ColorTanimoto>  (357) 
0.392

$$$$
EN300_120349
     RDKit          3D

 15 16  0  0  0  0  0  0  0  0999 V2000
   34.9224   14.7161    8.7729 N   0  0  0  0  0  0  0  0  0  0  0  0
   33.4125   13.9873    8.6719 S   0  0  0  0  0  6  0  0  0  0  0  0
   33.6161   12.6952    9.1605 O   0  0  0  0  0  0  0  0  0  0  0  0
   32.3469   14.8038    9.2136 O   0  0  0  0  0  0  0  0  0  0  0  0
   33.1167   13.5880    6.9775 C   0  0  0  0  0  0  0  0  0  0  0  0
   33.4435   12.3993    6.4291 C   0  0  0  0  0  0  0  0  0  0  0  0
   34.5208   12.3048    5.5425 C   0  0  0  0  0  0  0  0  0  0  0  0
   34.8581   10.9657    4.9981 C   0  0  0  0  0  0  0  0  0  0  0  0
   34.0342    9.8137    5.4387 C   0  0  0  0  0  0  0  0  0  0  0  0
   32.9914   10.0329    6.3230 C   0  0  0  0  0  0  0  0  0  0  0  0
   32.1296    8.9437    6.8319 C   0  0  0  0  0  0  0  0  0  0  0  0
   31.0315    9.1830    7.7512 C   0  0  0  0  0  0  0  0  0  0  0  0
   30.8668   10.4975    8.1039 C   0  0  0  0  0  0  0  0  0  0  0  0
   31.6349   11.5198    7.6779 N   0  0  0  0  0  0  0  0  0  0  0  0
   32.6729   11.3085    6.8176 C   0  0  0  0  0  0  0  0  0  0  0  0
  1  2  1  0
  2  3  2  0
  2  4  2  0
  2  5  1  0
  5  6  1  0
  6  7  2  0
  7  8  1  0
  8  9  2  0
  9 10  1  0
 10 11  2  0
 11 12  1  0
 12 13  2  0
 13 14  1  0
 14 15  2  0
 15  6  1  0
 15 10  1  0
A    1
 N1 
A    2
 S1 
A    3
 O1 
A    4
 O2 
A    5
 C1 
A    6
 C2 
A    7
 C3 
A    8
 C4 
A    9
 C5 
A   10
 C6 
A   11
 C7 
A   12
 C8 
A   13
 C9 
A   14
 N2 
A   15
 C10
M  END
>  <ref_pdb>  (358) 
Ax0310a

>  <ref_mols>  (358) 
Ax0446a,Ax1080a,Ax0812a,Ax0719a,Ax1140a,Ax0528a,Ax0310a

>  <original SMILES>  (358) 
NS(=O)(=O)Cc1cccc2cccnc12

>  <rationale>  (358) 
info info set:sulfonimide_whole;hbond:S87+G127+E85; 

>  <experiment>  (358) 
sulfonimide_whole

>  <cluster_label>  (358) 
3

>  <cluster_rank>  (358) 
55

>  <N_interactions>  (358) 
3

>  <∆∆G>  (358) 
-5.970835

>  <comRMSD>  (358) 
0.515573

>  <ROCS_TanimotoCombo>  (358) 
0.379

>  <ROCS_ShapeTanimoto>  (358) 
0.206

>  <ROCS_ColorTanimoto>  (358) 
0.172

$$$$
Z1585153719
     RDKit          3D

 18 19  0  0  0  0  0  0  0  0999 V2000
   29.2924    8.9687    8.7761 C   0  0  0  0  0  0  0  0  0  0  0  0
   30.6863    8.5339    8.4829 C   0  0  0  0  0  0  0  0  0  0  0  0
   31.4940    9.4571    7.5870 C   0  0  0  0  0  0  0  0  0  0  0  0
   32.4074    8.7598    6.7210 N   0  0  0  0  0  0  0  0  0  0  0  0
   32.9777    9.8001    6.0447 N   0  0  0  0  0  0  0  0  0  0  0  0
   33.9014    9.5788    5.1278 C   0  0  0  0  0  0  0  0  0  0  0  0
   32.4890   11.0104    6.4297 C   0  0  0  0  0  0  0  0  0  0  0  0
   31.5342   10.8444    7.4199 C   0  0  0  0  0  0  0  0  0  0  0  0
   30.8034   11.7961    8.0730 N   0  0  0  0  0  0  0  0  0  0  0  0
   30.0106   12.6627    7.3967 C   0  0  0  0  0  0  0  0  0  0  0  0
   30.2106   13.2359    6.3362 O   0  0  0  0  0  0  0  0  0  0  0  0
   28.8412   12.8558    8.0839 C   0  0  0  0  0  0  0  0  0  0  0  0
   27.7742   13.7844    7.5059 C   0  0  0  0  0  0  0  0  0  0  0  0
   28.3621   15.0219    7.0211 O   0  0  0  0  0  0  0  0  0  0  0  0
   26.8060   14.0346    8.6446 C   0  0  0  0  0  0  0  0  0  0  0  0
   25.9287   12.8900    8.4857 C   0  0  0  0  0  0  0  0  0  0  0  0
   25.7888   12.4269    7.1802 C   0  0  0  0  0  0  0  0  0  0  0  0
   26.9310   13.1162    6.4327 C   0  0  0  0  0  0  0  0  0  0  0  0
  1  2  1  0
  2  3  1  0
  3  4  2  0
  4  5  1  0
  5  6  1  0
  5  7  1  0
  7  8  2  0
  8  9  1  0
  9 10  1  0
 10 11  2  0
 10 12  1  0
 12 13  1  0
 13 14  1  0
 13 15  1  0
 15 16  1  0
 16 17  1  0
 17 18  1  0
  8  3  1  0
 18 13  1  0
A    1
 C1 
A    2
 C2 
A    3
 C3 
A    4
 N1 
A    5
 N2 
A    6
 C4 
A    7
 C5 
A    8
 C6 
A    9
 N3 
A   10
 C7 
A   11
 O1 
A   12
 C8 
A   13
 C9 
A   14
 O2 
A   15
 C10
A   16
 C11
A   17
 C12
A   18
 C13
M  END
>  <ref_pdb>  (359) 
Ax0310a

>  <ref_mols>  (359) 
Ax0446a,Ax1080a,Ax0812a,Ax0719a,Ax1140a,Ax0528a,Ax0310a

>  <original SMILES>  (359) 
CCc1nn(C)cc1NC(=O)CC1(O)CCCC1

>  <rationale>  (359) 
info info set:screening_pocket;hbond:S87+S125+G127+Y90; hydroph_interaction:V124+H21; 

>  <experiment>  (359) 
screening_pocket

>  <cluster_label>  (359) 
9

>  <cluster_rank>  (359) 
55

>  <N_interactions>  (359) 
6

>  <∆∆G>  (359) 
-10.377442

>  <comRMSD>  (359) 
0.614671

>  <ROCS_TanimotoCombo>  (359) 
0.623

>  <ROCS_ShapeTanimoto>  (359) 
0.232

>  <ROCS_ColorTanimoto>  (359) 
0.391

$$$$
EN300_801078
     RDKit          3D

 17 18  0  0  0  0  0  0  0  0999 V2000
   28.7472   10.2883    8.4366 C   0  0  0  0  0  0  0  0  0  0  0  0
   29.4583    9.0206    8.8008 C   0  0  0  0  0  0  0  0  0  0  0  0
   29.1222    8.6856   10.0882 C   0  0  0  0  0  0  0  0  0  0  0  0
   29.1102    7.7206    8.4120 C   0  0  0  0  0  0  0  0  0  0  0  0
   30.9078    9.1447    8.7459 C   0  0  0  0  0  0  0  0  0  0  0  0
   31.5635    9.8612    7.5958 C   0  0  0  0  0  0  0  0  0  0  0  0
   32.4226    9.1339    6.8369 N   0  0  0  0  0  0  0  0  0  0  0  0
   32.9951    9.7698    5.8060 C   0  0  0  0  0  0  0  0  0  0  0  0
   33.8770    9.1669    4.9582 C   0  0  0  0  0  0  0  0  0  0  0  0
   34.4956    9.7180    3.8623 C   0  0  0  0  0  0  0  0  0  0  0  0
   34.3154   11.1619    3.3671 C   0  0  0  0  0  0  0  0  0  0  0  0
   34.8885   11.7277    2.3063 F   0  0  0  0  0  0  0  0  0  0  0  0
   33.4226   11.7405    4.2809 C   0  0  0  0  0  0  0  0  0  0  0  0
   32.7442   11.0938    5.5019 C   0  0  0  0  0  0  0  0  0  0  0  0
   31.8759   11.8178    6.3095 C   0  0  0  0  0  0  0  0  0  0  0  0
   31.2749   11.2000    7.3756 C   0  0  0  0  0  0  0  0  0  0  0  0
   30.4168   11.9312    8.1695 O   0  0  0  0  0  0  0  0  0  0  0  0
  1  2  1  0
  2  3  1  0
  2  4  1  0
  2  5  1  0
  5  6  1  0
  6  7  2  0
  7  8  1  0
  8  9  2  0
  9 10  1  0
 10 11  2  0
 11 12  1  0
 11 13  1  0
 13 14  2  0
 14 15  1  0
 15 16  2  0
 16 17  1  0
 16  6  1  0
 14  8  1  0
A    1
 C1 
A    2
 C2 
A    3
 C3 
A    4
 C4 
A    5
 C5 
A    6
 C6 
A    7
 N1 
A    8
 C7 
A    9
 C8 
A   10
 C9 
A   11
 C10
A   12
 F1 
A   13
 C11
A   14
 C12
A   15
 C13
A   16
 C14
A   17
 O1 
M  END
>  <ref_pdb>  (360) 
Ax0310a

>  <ref_mols>  (360) 
Ax0446a,Ax1080a,Ax0812a,Ax0719a,Ax1140a,Ax0528a,Ax0310a

>  <original SMILES>  (360) 
CC(C)(C)Cc1nc2ccc(F)cc2cc1O

>  <rationale>  (360) 
info info set:bb_densepocket2;hbond:S125; hydroph_interaction:P107+V124+D109; 

>  <experiment>  (360) 
bb_densepocket2

>  <cluster_label>  (360) 
3

>  <cluster_rank>  (360) 
56

>  <N_interactions>  (360) 
4

>  <∆∆G>  (360) 
-2.885133

>  <comRMSD>  (360) 
0.792075

>  <ROCS_TanimotoCombo>  (360) 
0.646

>  <ROCS_ShapeTanimoto>  (360) 
0.24

>  <ROCS_ColorTanimoto>  (360) 
0.406

$$$$
Z354273506
     RDKit          3D

 29 32  0  0  0  0  0  0  0  0999 V2000
   35.7924   14.0842    7.8270 C   0  0  0  0  0  0  0  0  0  0  0  0
   34.5593   13.9226    7.1564 O   0  0  0  0  0  0  0  0  0  0  0  0
   33.6594   13.3803    7.9758 C   0  0  0  0  0  0  0  0  0  0  0  0
   33.9315   12.8735    9.2799 O   0  0  0  0  0  0  0  0  0  0  0  0
   32.2914   13.3945    7.3600 C   0  0  0  0  0  0  0  0  0  0  0  0
   31.5494   13.7926    8.6183 C   0  0  0  0  0  0  0  0  0  0  0  0
   30.0847   13.9819    8.4180 C   0  0  0  0  0  0  0  0  0  0  0  0
   29.1479   14.4060    9.4928 C   0  0  0  0  0  0  0  0  0  0  0  0
   27.8231   14.5845    9.2011 C   0  0  0  0  0  0  0  0  0  0  0  0
   27.3313   14.3458    7.8155 C   0  0  0  0  0  0  0  0  0  0  0  0
   28.1824   13.9376    6.8266 C   0  0  0  0  0  0  0  0  0  0  0  0
   29.5263   13.7609    7.1097 C   0  0  0  0  0  0  0  0  0  0  0  0
   30.3229   13.3613    6.0144 C   0  0  0  0  0  0  0  0  0  0  0  0
   31.7222   13.1827    6.1324 C   0  0  0  0  0  0  0  0  0  0  0  0
   32.4856   12.8361    5.0626 O   0  0  0  0  0  0  0  0  0  0  0  0
   33.0946   11.6021    5.1077 C   0  0  0  0  0  0  0  0  0  0  0  0
   34.2078   11.2081    4.3482 C   0  0  0  0  0  0  0  0  0  0  0  0
   34.6812    9.9361    4.4810 C   0  0  0  0  0  0  0  0  0  0  0  0
   35.8625    9.5654    3.6350 C   0  0  0  0  0  0  0  0  0  0  0  0
   34.1746    9.0315    5.2678 N   0  0  0  0  0  0  0  0  0  0  0  0
   33.0899    9.3844    6.0312 C   0  0  0  0  0  0  0  0  0  0  0  0
   32.3931    8.6769    6.9035 N   0  0  0  0  0  0  0  0  0  0  0  0
   31.4538    9.5517    7.3607 C   0  0  0  0  0  0  0  0  0  0  0  0
   30.4433    9.2290    8.3840 C   0  0  0  0  0  0  0  0  0  0  0  0
   29.3592    8.5771    7.9600 F   0  0  0  0  0  0  0  0  0  0  0  0
   30.0356   10.3886    8.8835 F   0  0  0  0  0  0  0  0  0  0  0  0
   30.8714    8.4798    9.4079 F   0  0  0  0  0  0  0  0  0  0  0  0
   31.5208   10.7685    6.8040 N   0  0  0  0  0  0  0  0  0  0  0  0
   32.5515   10.6615    5.9640 N   0  0  0  0  0  0  0  0  0  0  0  0
  1  2  1  0
  2  3  1  0
  3  4  2  0
  3  5  1  0
  5  6  2  0
  6  7  1  0
  7  8  2  0
  8  9  1  0
  9 10  2  0
 10 11  1  0
 11 12  2  0
 12 13  1  0
 13 14  2  0
 14 15  1  0
 15 16  1  0
 16 17  2  0
 17 18  1  0
 18 19  1  0
 18 20  2  0
 20 21  1  0
 21 22  2  0
 22 23  1  0
 23 24  1  0
 24 25  1  0
 24 26  1  0
 24 27  1  0
 23 28  2  0
 28 29  1  0
 14  5  1  0
 29 16  1  0
 12  7  1  0
 29 21  1  0
A    1
 C1 
A    2
 O1 
A    3
 C2 
A    4
 O2 
A    5
 C3 
A    6
 C4 
A    7
 C5 
A    8
 C6 
A    9
 C7 
A   10
 C8 
A   11
 C9 
A   12
 C10
A   13
 C11
A   14
 C12
A   15
 O3 
A   16
 C13
A   17
 C14
A   18
 C15
A   19
 C16
A   20
 N1 
A   21
 C17
A   22
 N2 
A   23
 C18
A   24
 C19
A   25
 F1 
A   26
 F2 
A   27
 F3 
A   28
 N3 
A   29
 N4 
M  END
>  <ref_pdb>  (361) 
Ax0310a

>  <ref_mols>  (361) 
Ax0446a,Ax1080a,Ax0812a,Ax0719a,Ax1140a,Ax0528a,Ax0310a

>  <original SMILES>  (361) 
COC(=O)c1cc2ccccc2cc1Oc1cc(C)nc2nc(C(F)(F)F)nn12

>  <rationale>  (361) 
info info set:screening_whole;halogenbond:P107+S125; hbond:S105+G127; hydroph_interaction:P107+Y89+Y90; 

>  <experiment>  (361) 
screening_whole

>  <cluster_label>  (361) 
9

>  <cluster_rank>  (361) 
56

>  <N_interactions>  (361) 
7

>  <∆∆G>  (361) 
-0.135035

>  <comRMSD>  (361) 
0.945636

>  <ROCS_TanimotoCombo>  (361) 
0.458

>  <ROCS_ShapeTanimoto>  (361) 
0.299

>  <ROCS_ColorTanimoto>  (361) 
0.159

$$$$
EN300_801623
     RDKit          3D

 17 18  0  0  0  0  0  0  0  0999 V2000
   30.4481    7.6672    8.4395 C   0  0  0  0  0  0  0  0  0  0  0  0
   30.1362    9.0501    8.1384 C   0  0  0  0  0  0  0  0  0  0  0  0
   30.3867    9.0590    9.5093 C   0  0  0  0  0  0  0  0  0  0  0  0
   28.7782    9.5910    8.3973 C   0  0  0  0  0  0  0  0  0  0  0  0
   31.1989    9.8678    7.4016 C   0  0  0  0  0  0  0  0  0  0  0  0
   32.0837    9.1582    6.6442 N   0  0  0  0  0  0  0  0  0  0  0  0
   33.1362    9.7728    5.8730 C   0  0  0  0  0  0  0  0  0  0  0  0
   34.1646    8.9576    4.9583 C   0  0  0  0  0  0  0  0  0  0  0  0
   35.1376    9.9848    4.3051 C   0  0  0  0  0  0  0  0  0  0  0  0
   35.1334   11.4362    4.4711 C   0  0  0  0  0  0  0  0  0  0  0  0
   36.3278   12.3211    3.6227 Cl  0  0  0  0  0  0  0  0  0  0  0  0
   34.2080   12.0504    5.2700 C   0  0  0  0  0  0  0  0  0  0  0  0
   33.2510   11.3021    5.9436 C   0  0  0  0  0  0  0  0  0  0  0  0
   32.2556   11.9438    6.7864 C   0  0  0  0  0  0  0  0  0  0  0  0
   31.2527   11.2586    7.4927 C   0  0  0  0  0  0  0  0  0  0  0  0
   30.3041   11.9749    8.2777 N   0  0  0  0  0  0  0  0  0  0  0  0
   30.0835   13.3427    8.0667 N   0  0  0  0  0  0  0  0  0  0  0  0
  1  2  1  0
  2  3  1  0
  2  4  1  0
  2  5  1  0
  5  6  2  0
  6  7  1  0
  7  8  2  0
  8  9  1  0
  9 10  2  0
 10 11  1  0
 10 12  1  0
 12 13  2  0
 13 14  1  0
 14 15  2  0
 15 16  1  0
 16 17  1  0
 15  5  1  0
 13  7  1  0
A    1
 C1 
A    2
 C2 
A    3
 C3 
A    4
 C4 
A    5
 C5 
A    6
 N1 
A    7
 C6 
A    8
 C7 
A    9
 C8 
A   10
 C9 
A   11
CL1 
A   12
 C10
A   13
 C11
A   14
 C12
A   15
 C13
A   16
 N2 
A   17
 N3 
M  END
>  <ref_pdb>  (362) 
Ax0310a

>  <ref_mols>  (362) 
Ax0446a,Ax1080a,Ax0812a,Ax0719a,Ax1140a,Ax0528a,Ax0310a

>  <original SMILES>  (362) 
CC(C)(C)c1nc2ccc(Cl)cc2cc1NN

>  <rationale>  (362) 
info info set:bb_densepocket2;hbond:S87+S125; hydroph_interaction:V124+D109; 

>  <experiment>  (362) 
bb_densepocket2

>  <cluster_label>  (362) 
3

>  <cluster_rank>  (362) 
57

>  <N_interactions>  (362) 
5

>  <∆∆G>  (362) 
-5.764217

>  <comRMSD>  (362) 
0.692814

>  <ROCS_TanimotoCombo>  (362) 
0.621

>  <ROCS_ShapeTanimoto>  (362) 
0.285

>  <ROCS_ColorTanimoto>  (362) 
0.336

$$$$
Z32888161
     RDKit          3D

 16 16  0  0  0  0  0  0  0  0999 V2000
   30.8803   15.4975    9.9382 C   0  0  0  0  0  0  0  0  0  0  0  0
   29.5060   15.1169    9.8078 O   0  0  0  0  0  0  0  0  0  0  0  0
   29.0017   14.7073    8.5975 C   0  0  0  0  0  0  0  0  0  0  0  0
   28.6882   15.5365    7.7163 O   0  0  0  0  0  0  0  0  0  0  0  0
   28.8408   13.2761    8.3070 C   0  0  0  0  0  0  0  0  0  0  0  0
   30.0854   12.7640    7.7647 N   0  0  0  0  0  0  0  0  0  0  0  0
   30.5216   11.4628    7.9493 C   0  0  0  0  0  0  0  0  0  0  0  0
   30.1551   10.7024    8.8059 O   0  0  0  0  0  0  0  0  0  0  0  0
   31.5511   10.9541    6.9906 C   0  0  0  0  0  0  0  0  0  0  0  0
   31.8733    9.5207    7.2445 C   0  0  0  0  0  0  0  0  0  0  0  0
   32.7878    8.8872    6.4800 N   0  0  0  0  0  0  0  0  0  0  0  0
   33.3646    9.6162    5.4930 C   0  0  0  0  0  0  0  0  0  0  0  0
   34.5214    8.7803    4.5328 Cl  0  0  0  0  0  0  0  0  0  0  0  0
   33.0867   10.9433    5.2200 C   0  0  0  0  0  0  0  0  0  0  0  0
   33.8636   11.7673    3.9290 Cl  0  0  0  0  0  0  0  0  0  0  0  0
   32.1659   11.6551    5.9773 C   0  0  0  0  0  0  0  0  0  0  0  0
  1  2  1  0
  2  3  1  0
  3  4  2  0
  3  5  1  0
  5  6  1  0
  6  7  1  0
  7  8  2  0
  7  9  1  0
  9 10  2  0
 10 11  1  0
 11 12  2  0
 12 13  1  0
 12 14  1  0
 14 15  1  0
 14 16  2  0
 16  9  1  0
A    1
 C1 
A    2
 O1 
A    3
 C2 
A    4
 O2 
A    5
 C3 
A    6
 N1 
A    7
 C4 
A    8
 O3 
A    9
 C5 
A   10
 C6 
A   11
 N2 
A   12
 C7 
A   13
CL1 
A   14
 C8 
A   15
CL2 
A   16
 C9 
M  END
>  <ref_pdb>  (363) 
Ax0310a

>  <ref_mols>  (363) 
Ax0446a,Ax1080a,Ax0812a,Ax0719a,Ax1140a,Ax0528a,Ax0310a

>  <original SMILES>  (363) 
COC(=O)CNC(=O)c1cnc(Cl)c(Cl)c1

>  <rationale>  (363) 
info info set:screening_pocket;hbond:S87; hydroph_interaction:P107; saltbridge:H21; 

>  <experiment>  (363) 
screening_pocket

>  <cluster_label>  (363) 
9

>  <cluster_rank>  (363) 
57

>  <N_interactions>  (363) 
4

>  <∆∆G>  (363) 
-3.841494

>  <comRMSD>  (363) 
0.71434

>  <ROCS_TanimotoCombo>  (363) 
0.633

>  <ROCS_ShapeTanimoto>  (363) 
0.212

>  <ROCS_ColorTanimoto>  (363) 
0.421

$$$$
Z1955819860
     RDKit          3D

 16 17  0  0  0  0  0  0  0  0999 V2000
   33.8582   13.6888    6.3578 O   0  0  0  0  0  0  0  0  0  0  0  0
   33.4538   12.9609    7.2480 C   0  0  0  0  0  0  0  0  0  0  0  0
   33.7880   13.1498    8.5331 O   0  0  0  0  0  0  0  0  0  0  0  0
   32.5859   11.7688    7.0515 C   0  0  2  0  0  0  0  0  0  0  0  0
   32.7101   10.9015    6.0108 C   0  0  0  0  0  0  0  0  0  0  0  0
   32.4024    9.6016    6.4015 C   0  0  0  0  0  0  0  0  0  0  0  0
   31.4195    9.5187    7.4356 C   0  0  0  0  0  0  0  0  0  0  0  0
   30.7413   10.6203    8.0049 C   0  0  0  0  0  0  0  0  0  0  0  0
   31.1862   11.8943    7.6533 C   0  0  2  0  0  0  0  0  0  0  0  0
   30.3032   12.8140    6.9243 C   0  0  0  0  0  0  0  0  0  0  0  0
   30.2241   12.7929    5.7149 O   0  0  0  0  0  0  0  0  0  0  0  0
   29.5900   13.7290    7.6588 N   0  0  0  0  0  0  0  0  0  0  0  0
   29.4100   13.5108    9.0500 C   0  0  0  0  0  0  0  0  0  0  0  0
   28.9299   14.7132    9.4691 C   0  0  0  0  0  0  0  0  0  0  0  0
   28.2485   15.4258    8.3731 C   0  0  0  0  0  0  0  0  0  0  0  0
   28.5555   14.6546    7.2270 C   0  0  0  0  0  0  0  0  0  0  0  0
  1  2  2  0
  2  3  1  0
  4  2  1  6
  4  5  1  0
  5  6  1  0
  6  7  1  0
  7  8  1  0
  8  9  1  0
  9 10  1  6
 10 11  2  0
 10 12  1  0
 12 13  1  0
 13 14  1  0
 14 15  1  0
 15 16  1  0
  9  4  1  0
 16 12  1  0
A    1
 O1 
A    2
 C1 
A    3
 O2 
A    4
 C2 
A    5
 C3 
A    6
 C4 
A    7
 C5 
A    8
 C6 
A    9
 C7 
A   10
 C8 
A   11
 O3 
A   12
 N1 
A   13
 C9 
A   14
 C10
A   15
 C11
A   16
 C12
M  END
>  <ref_pdb>  (364) 
Ax0310a

>  <ref_mols>  (364) 
Ax0446a,Ax1080a,Ax0812a,Ax0719a,Ax1140a,Ax0528a,Ax0310a

>  <original SMILES>  (364) 
O=C(O)[C@@H]1CCCC[C@@H]1C(=O)N1CCCC1

>  <rationale>  (364) 
info info set:3d;hbond:G127; hydroph_interaction:P107+Y89+Y90; 

>  <experiment>  (364) 
3d

>  <cluster_label>  (364) 
3

>  <cluster_rank>  (364) 
58

>  <N_interactions>  (364) 
4

>  <∆∆G>  (364) 
-3.967727

>  <comRMSD>  (364) 
0.640658

>  <ROCS_TanimotoCombo>  (364) 
0.34

>  <ROCS_ShapeTanimoto>  (364) 
0.214

>  <ROCS_ColorTanimoto>  (364) 
0.126

$$$$
EN300_20836266
     RDKit          3D

 13 13  0  0  0  0  0  0  0  0999 V2000
   28.4211   13.0966    7.8409 C   0  0  0  0  0  0  0  0  0  0  0  0
   29.2468   12.0407    7.3444 O   0  0  0  0  0  0  0  0  0  0  0  0
   30.4325   11.9919    7.9629 C   0  0  0  0  0  0  0  0  0  0  0  0
   30.7267   12.6644    8.9054 O   0  0  0  0  0  0  0  0  0  0  0  0
   31.3694   11.0103    7.2790 C   0  0  0  0  0  0  0  0  0  0  0  0
   32.2223   11.9138    6.3898 C   0  0  0  0  0  0  0  0  0  0  0  0
   33.2969   11.2171    5.5259 C   0  0  0  0  0  0  0  0  0  0  0  0
   34.3107   12.1297    4.4844 Cl  0  0  0  0  0  0  0  0  0  0  0  0
   33.3565    9.7368    5.6793 C   0  0  0  0  0  0  0  0  0  0  0  0
   34.5163    8.8744    4.7457 Cl  0  0  0  0  0  0  0  0  0  0  0  0
   32.5281    8.9043    6.5452 N   0  0  0  0  0  0  0  0  0  0  0  0
   31.5882    9.4715    7.3096 C   0  0  0  0  0  0  0  0  0  0  0  0
   30.8329    8.6085    8.1118 N   0  0  0  0  0  0  0  0  0  0  0  0
  1  2  1  0
  2  3  1  0
  3  4  2  0
  3  5  1  0
  5  6  2  0
  6  7  1  0
  7  8  1  0
  7  9  2  0
  9 10  1  0
  9 11  1  0
 11 12  2  0
 12 13  1  0
 12  5  1  0
A    1
 C1 
A    2
 O1 
A    3
 C2 
A    4
 O2 
A    5
 C3 
A    6
 C4 
A    7
 C5 
A    8
CL1 
A    9
 C6 
A   10
CL2 
A   11
 N1 
A   12
 C7 
A   13
 N2 
M  END
>  <ref_pdb>  (365) 
Ax0310a

>  <ref_mols>  (365) 
Ax0446a,Ax1080a,Ax0812a,Ax0719a,Ax1140a,Ax0528a,Ax0310a

>  <original SMILES>  (365) 
COC(=O)c1cc(Cl)c(Cl)nc1N

>  <rationale>  (365) 
info info set:bb_densepocket2;hbond:S105+G127; saltbridge:H21; 

>  <experiment>  (365) 
bb_densepocket2

>  <cluster_label>  (365) 
9

>  <cluster_rank>  (365) 
58

>  <N_interactions>  (365) 
3

>  <∆∆G>  (365) 
-2.942873

>  <comRMSD>  (365) 
0.659481

>  <ROCS_TanimotoCombo>  (365) 
0.617

>  <ROCS_ShapeTanimoto>  (365) 
0.245

>  <ROCS_ColorTanimoto>  (365) 
0.373

$$$$
Z57254347
     RDKit          3D

 16 17  0  0  0  0  0  0  0  0999 V2000
   28.7590   15.6143    8.1970 C   0  0  0  0  0  0  0  0  0  0  0  0
   29.4226   14.3392    7.7587 C   0  0  0  0  0  0  0  0  0  0  0  0
   28.6001   13.6691    6.8091 O   0  0  0  0  0  0  0  0  0  0  0  0
   29.2528   12.5426    6.4864 N   0  0  0  0  0  0  0  0  0  0  0  0
   30.3942   12.5222    7.1840 C   0  0  0  0  0  0  0  0  0  0  0  0
   31.2423   11.3284    6.9908 C   0  0  0  0  0  0  0  0  0  0  0  0
   30.8121   10.1866    7.8667 C   0  0  0  0  0  0  0  0  0  0  0  0
   31.6323    9.0470    7.6171 C   0  0  0  0  0  0  0  0  0  0  0  0
   32.6697    8.9314    6.7400 C   0  0  0  0  0  0  0  0  0  0  0  0
   33.0365   10.0113    5.9733 C   0  0  0  0  0  0  0  0  0  0  0  0
   32.4083   11.2458    6.0097 C   0  0  0  0  0  0  0  0  0  0  0  0
   32.9844   12.5102    4.9755 Cl  0  0  0  0  0  0  0  0  0  0  0  0
   30.5975   13.6354    8.0067 C   0  0  0  0  0  0  0  0  0  0  0  0
   31.7381   13.9338    8.8679 C   0  0  0  0  0  0  0  0  0  0  0  0
   31.7702   14.7974    9.7272 O   0  0  0  0  0  0  0  0  0  0  0  0
   32.8756   13.1903    8.6580 O   0  0  0  0  0  0  0  0  0  0  0  0
  1  2  1  0
  2  3  1  0
  3  4  1  0
  4  5  2  0
  5  6  1  0
  6  7  2  0
  7  8  1  0
  8  9  2  0
  9 10  1  0
 10 11  2  0
 11 12  1  0
  5 13  1  0
 13 14  1  0
 14 15  2  0
 14 16  1  0
 13  2  2  0
 11  6  1  0
A    1
 C1 
A    2
 C2 
A    3
 O1 
A    4
 N1 
A    5
 C3 
A    6
 C4 
A    7
 C5 
A    8
 C6 
A    9
 C7 
A   10
 C8 
A   11
 C9 
A   12
CL1 
A   13
 C10
A   14
 C11
A   15
 O2 
A   16
 O3 
M  END
>  <ref_pdb>  (366) 
Ax0310a

>  <ref_mols>  (366) 
Ax0446a,Ax1080a,Ax0812a,Ax0719a,Ax1140a,Ax0528a,Ax0310a

>  <original SMILES>  (366) 
Cc1onc(-c2ccccc2Cl)c1C(=O)O

>  <rationale>  (366) 
info info set:3d;hbond:S87+G127; hydroph_interaction:P107+Y89+Y90; 

>  <experiment>  (366) 
3d

>  <cluster_label>  (366) 
3

>  <cluster_rank>  (366) 
59

>  <N_interactions>  (366) 
6

>  <∆∆G>  (366) 
-4.998402

>  <comRMSD>  (366) 
0.65789

>  <ROCS_TanimotoCombo>  (366) 
0.321

>  <ROCS_ShapeTanimoto>  (366) 
0.202

>  <ROCS_ColorTanimoto>  (366) 
0.118

$$$$
EN300_172663
     RDKit          3D

 12 12  0  0  0  0  0  0  0  0999 V2000
   35.2613    9.4473    4.3277 C   0  0  0  0  0  0  0  0  0  0  0  0
   34.1484    8.7538    4.9200 N   0  0  0  0  0  0  0  0  0  0  0  0
   33.2653    9.4835    5.7020 C   0  0  0  0  0  0  0  0  0  0  0  0
   33.1784   11.0064    5.4905 C   0  0  0  0  0  0  0  0  0  0  0  0
   32.1436   11.6152    6.3868 C   0  0  0  0  0  0  0  0  0  0  0  0
   31.3817   10.6594    7.3276 C   0  0  0  0  0  0  0  0  0  0  0  0
   30.4715   11.7684    7.9485 C   0  0  0  0  0  0  0  0  0  0  0  0
   30.7886   12.5414    8.8100 O   0  0  0  0  0  0  0  0  0  0  0  0
   29.2642   11.7732    7.3511 O   0  0  0  0  0  0  0  0  0  0  0  0
   28.4295   12.8775    7.7555 C   0  0  0  0  0  0  0  0  0  0  0  0
   31.5304    9.3490    7.4644 N   0  0  0  0  0  0  0  0  0  0  0  0
   32.4950    8.7940    6.6211 N   0  0  0  0  0  0  0  0  0  0  0  0
  1  2  1  0
  2  3  1  0
  3  4  2  0
  4  5  1  0
  5  6  2  0
  6  7  1  0
  7  8  2  0
  7  9  1  0
  9 10  1  0
  6 11  1  0
 11 12  2  0
 12  3  1  0
A    1
 C1 
A    2
 N1 
A    3
 C2 
A    4
 C3 
A    5
 C4 
A    6
 C5 
A    7
 C6 
A    8
 O1 
A    9
 O2 
A   10
 C7 
A   11
 N2 
A   12
 N3 
M  END
>  <ref_pdb>  (367) 
Ax0310a

>  <ref_mols>  (367) 
Ax0446a,Ax1080a,Ax0812a,Ax0719a,Ax1140a,Ax0528a,Ax0310a

>  <original SMILES>  (367) 
CNc1ccc(C(=O)OC)nn1

>  <rationale>  (367) 
info info set:bb_densepocket2;hbond:S105+G127; hydroph_interaction:P107; saltbridge:H21; 

>  <experiment>  (367) 
bb_densepocket2

>  <cluster_label>  (367) 
9

>  <cluster_rank>  (367) 
59

>  <N_interactions>  (367) 
4

>  <∆∆G>  (367) 
-4.091477

>  <comRMSD>  (367) 
0.669911

>  <ROCS_TanimotoCombo>  (367) 
0.614

>  <ROCS_ShapeTanimoto>  (367) 
0.225

>  <ROCS_ColorTanimoto>  (367) 
0.39

$$$$
Z1540259657
     RDKit          3D

 18 18  0  0  0  0  0  0  0  0999 V2000
   30.7903    8.8453    8.1307 C   0  0  0  0  0  0  0  0  0  0  0  0
   31.7236    9.5336    7.2355 C   0  0  0  0  0  0  0  0  0  0  0  0
   32.6266    8.7775    6.5615 N   0  0  0  0  0  0  0  0  0  0  0  0
   33.4600    9.4481    5.7549 C   0  0  0  0  0  0  0  0  0  0  0  0
   34.2922    8.7865    5.1279 O   0  0  0  0  0  0  0  0  0  0  0  0
   33.4267   10.9050    5.5908 C   0  0  0  0  0  0  0  0  0  0  0  0
   32.4910   11.6154    6.2964 C   0  0  0  0  0  0  0  0  0  0  0  0
   31.6439   10.8989    7.1161 C   0  0  0  0  0  0  0  0  0  0  0  0
   30.6931   11.4960    7.8441 C   0  0  0  0  0  0  0  0  0  0  0  0
   30.3659   10.9453    8.8458 O   0  0  0  0  0  0  0  0  0  0  0  0
   30.0923   12.6262    7.4025 N   0  0  0  0  0  0  0  0  0  0  0  0
   28.7198   12.6027    7.7654 C   0  0  0  0  0  0  0  0  0  0  0  0
   27.8901   13.6429    7.0990 C   0  0  0  0  0  0  0  0  0  0  0  0
   28.3318   14.7840    6.8846 O   0  0  0  0  0  0  0  0  0  0  0  0
   26.4821   13.1173    6.7282 C   0  0  0  0  0  0  0  0  0  0  0  0
   26.5330   13.9874    5.5366 C   0  0  0  0  0  0  0  0  0  0  0  0
   26.4002   11.7265    6.2429 C   0  0  0  0  0  0  0  0  0  0  0  0
   25.4336   13.3288    7.8107 C   0  0  0  0  0  0  0  0  0  0  0  0
  1  2  1  0
  2  3  2  0
  3  4  1  0
  4  5  1  0
  4  6  2  0
  6  7  1  0
  7  8  2  0
  8  9  1  0
  9 10  2  0
  9 11  1  0
 11 12  1  0
 12 13  1  0
 13 14  2  0
 13 15  1  0
 15 16  1  0
 15 17  1  0
 15 18  1  0
  8  2  1  0
A    1
 C1 
A    2
 C2 
A    3
 N1 
A    4
 C3 
A    5
 O1 
A    6
 C4 
A    7
 C5 
A    8
 C6 
A    9
 C7 
A   10
 O2 
A   11
 N2 
A   12
 C8 
A   13
 C9 
A   14
 O3 
A   15
 C10
A   16
 C11
A   17
 C12
A   18
 C13
M  END
>  <ref_pdb>  (368) 
Ax0310a

>  <ref_mols>  (368) 
Ax0446a,Ax1080a,Ax0812a,Ax0719a,Ax1140a,Ax0528a,Ax0310a

>  <original SMILES>  (368) 
Cc1nc(O)ccc1C(=O)NCC(=O)C(C)(C)C

>  <rationale>  (368) 
info info set:screening_pocket;hbond:S87; hydroph_interaction:P107+Y89+H21; 

>  <experiment>  (368) 
screening_pocket

>  <cluster_label>  (368) 
9

>  <cluster_rank>  (368) 
60

>  <N_interactions>  (368) 
5

>  <∆∆G>  (368) 
-7.038154

>  <comRMSD>  (368) 
0.785002

>  <ROCS_TanimotoCombo>  (368) 
0.626

>  <ROCS_ShapeTanimoto>  (368) 
0.245

>  <ROCS_ColorTanimoto>  (368) 
0.381

$$$$
EN300_320979
     RDKit          3D

 16 17  0  0  0  0  0  0  0  0999 V2000
   34.3213   15.0651    8.8958 C   0  0  0  0  0  0  0  0  0  0  0  0
   33.2920   13.7138    8.4725 S   0  0  0  0  0  6  0  0  0  0  0  0
   31.9017   14.0759    8.6669 O   0  0  0  0  0  0  0  0  0  0  0  0
   33.9439   12.6842    9.1652 O   0  0  0  0  0  0  0  0  0  0  0  0
   33.6282   13.5812    6.8255 N   0  0  0  0  0  0  0  0  0  0  0  0
   32.6730   12.9512    5.9043 C   0  0  0  0  0  0  0  0  0  0  0  0
   32.3431   11.6807    6.3678 C   0  0  0  0  0  0  0  0  0  0  0  0
   33.1950   10.6175    6.1132 C   0  0  0  0  0  0  0  0  0  0  0  0
   32.8604    9.3560    6.5903 C   0  0  0  0  0  0  0  0  0  0  0  0
   31.7072    9.1643    7.3256 C   0  0  0  0  0  0  0  0  0  0  0  0
   30.8623   10.2008    7.5752 C   0  0  0  0  0  0  0  0  0  0  0  0
   29.6756   10.0246    8.2995 C   0  0  0  0  0  0  0  0  0  0  0  0
   28.8604   11.1288    8.4582 C   0  0  0  0  0  0  0  0  0  0  0  0
   29.2038   12.3556    7.9462 C   0  0  0  0  0  0  0  0  0  0  0  0
   30.3380   12.5771    7.2662 N   0  0  0  0  0  0  0  0  0  0  0  0
   31.1595   11.5060    7.0796 C   0  0  0  0  0  0  0  0  0  0  0  0
  1  2  1  0
  2  3  2  0
  2  4  2  0
  2  5  1  0
  5  6  1  0
  6  7  1  0
  7  8  2  0
  8  9  1  0
  9 10  2  0
 10 11  1  0
 11 12  2  0
 12 13  1  0
 13 14  2  0
 14 15  1  0
 15 16  2  0
 16  7  1  0
 16 11  1  0
A    1
 C1 
A    2
 S1 
A    3
 O1 
A    4
 O2 
A    5
 N1 
A    6
 C2 
A    7
 C3 
A    8
 C4 
A    9
 C5 
A   10
 C6 
A   11
 C7 
A   12
 C8 
A   13
 C9 
A   14
 C10
A   15
 N2 
A   16
 C11
M  END
>  <ref_pdb>  (369) 
Ax0310a

>  <ref_mols>  (369) 
Ax0446a,Ax1080a,Ax0812a,Ax0719a,Ax1140a,Ax0528a,Ax0310a

>  <original SMILES>  (369) 
CS(=O)(=O)NCc1cccc2cccnc12

>  <rationale>  (369) 
info info set:sulfonimide_whole;hbond:S87+G127; hydroph_interaction:P107; 

>  <experiment>  (369) 
sulfonimide_whole

>  <cluster_label>  (369) 
3

>  <cluster_rank>  (369) 
60

>  <N_interactions>  (369) 
4

>  <∆∆G>  (369) 
-5.832758

>  <comRMSD>  (369) 
0.443103

>  <ROCS_TanimotoCombo>  (369) 
0.373

>  <ROCS_ShapeTanimoto>  (369) 
0.221

>  <ROCS_ColorTanimoto>  (369) 
0.152

$$$$
EN300_7854088
     RDKit          3D

 12 12  0  0  0  0  0  0  0  0999 V2000
   28.6219   16.0035    7.7501 N   0  0  0  0  0  0  0  0  0  0  0  0
   28.6532   14.8846    7.5431 C   0  0  0  0  0  0  0  0  0  0  0  0
   28.8170   13.4185    7.3476 C   0  0  0  0  0  0  0  0  0  0  0  0
   29.9542   13.0131    8.2647 C   0  0  0  0  0  0  0  0  0  0  0  0
   30.1041   11.5877    8.2427 N   0  0  0  0  0  0  0  0  0  0  0  0
   31.1288   11.0932    7.4381 C   0  0  0  0  0  0  0  0  0  0  0  0
   32.0203   11.9781    6.4872 C   0  0  0  0  0  0  0  0  0  0  0  0
   33.0611   11.0425    5.7347 C   0  0  0  0  0  0  0  0  0  0  0  0
   33.3188    9.5589    5.7787 C   0  0  0  0  0  0  0  0  0  0  0  0
   32.4214    9.0063    6.6806 C   0  0  0  0  0  0  0  0  0  0  0  0
   31.4496    9.6052    7.4297 C   0  0  0  0  0  0  0  0  0  0  0  0
   30.6731    8.7651    8.2663 N   0  0  0  0  0  0  0  0  0  0  0  0
  1  2  3  0
  2  3  1  0
  3  4  1  0
  4  5  1  0
  5  6  1  0
  6  7  2  0
  7  8  1  0
  8  9  2  0
  9 10  1  0
 10 11  2  0
 11 12  1  0
 11  6  1  0
A    1
 N1 
A    2
 C1 
A    3
 C2 
A    4
 C3 
A    5
 N2 
A    6
 C4 
A    7
 C5 
A    8
 C6 
A    9
 C7 
A   10
 C8 
A   11
 C9 
A   12
 N3 
M  END
>  <ref_pdb>  (370) 
Ax0310a

>  <ref_mols>  (370) 
Ax0446a,Ax1080a,Ax0812a,Ax0719a,Ax1140a,Ax0528a,Ax0310a

>  <original SMILES>  (370) 
N#CCCNc1ccccc1N

>  <rationale>  (370) 
info info set:bb_densepocket2;hbond:S105+S125+Y90; hydroph_interaction:P107; 

>  <experiment>  (370) 
bb_densepocket2

>  <cluster_label>  (370) 
3

>  <cluster_rank>  (370) 
61

>  <N_interactions>  (370) 
4

>  <∆∆G>  (370) 
-5.690237

>  <comRMSD>  (370) 
0.300273

>  <ROCS_TanimotoCombo>  (370) 
0.646

>  <ROCS_ShapeTanimoto>  (370) 
0.21

>  <ROCS_ColorTanimoto>  (370) 
0.436

$$$$
Z1159124740
     RDKit          3D

 25 27  0  0  0  0  0  0  0  0999 V2000
   32.3038   14.9107   10.0957 C   0  0  0  0  0  0  0  0  0  0  0  0
   32.0646   13.8482    9.1563 O   0  0  0  0  0  0  0  0  0  0  0  0
   30.8123   13.8561    8.5717 C   0  0  0  0  0  0  0  0  0  0  0  0
   29.6473   14.3185    9.4250 C   0  0  0  0  0  0  0  0  0  0  0  0
   28.2717   14.3428    8.7767 C   0  0  0  0  0  0  0  0  0  0  0  0
   27.1884   14.7958    9.6131 N   0  0  0  0  0  4  0  0  0  0  0  0
   26.7965   15.9329    9.3750 O   0  0  0  0  0  0  0  0  0  0  0  0
   27.1568   14.2630   10.7087 O   0  0  0  0  0  1  0  0  0  0  0  0
   27.9848   13.9276    7.3350 C   0  0  0  0  0  0  0  0  0  0  0  0
   29.1154   13.5193    6.6353 C   0  0  0  0  0  0  0  0  0  0  0  0
   30.5387   13.4833    7.2491 C   0  0  0  0  0  0  0  0  0  0  0  0
   31.5297   13.0809    6.4194 O   0  0  0  0  0  0  0  0  0  0  0  0
   31.8003   11.7639    6.5865 C   0  0  0  0  0  0  0  0  0  0  0  0
   31.0314   11.1118    7.4472 N   0  0  0  0  0  0  0  0  0  0  0  0
   31.2960    9.8243    7.6075 C   0  0  0  0  0  0  0  0  0  0  0  0
   30.3867    9.1171    8.6234 C   0  0  0  0  0  0  0  0  0  0  0  0
   30.9863    8.2842    9.4764 F   0  0  0  0  0  0  0  0  0  0  0  0
   29.3924    8.3694    8.1179 F   0  0  0  0  0  0  0  0  0  0  0  0
   32.2922    9.1851    6.9385 N   0  0  0  0  0  0  0  0  0  0  0  0
   33.0536    9.9088    6.0668 C   0  0  0  0  0  0  0  0  0  0  0  0
   34.1551    9.2712    5.3165 C   0  0  0  0  0  0  0  0  0  0  0  0
   34.9375   10.1566    4.3844 C   0  0  0  0  0  0  0  0  0  0  0  0
   34.6407   11.4947    4.2367 C   0  0  0  0  0  0  0  0  0  0  0  0
   33.5999   12.0393    4.9612 C   0  0  0  0  0  0  0  0  0  0  0  0
   32.8323   11.2566    5.8527 C   0  0  0  0  0  0  0  0  0  0  0  0
  1  2  1  0
  2  3  1  0
  3  4  2  0
  4  5  1  0
  5  6  1  0
  6  7  2  0
  6  8  1  0
  5  9  2  0
  9 10  1  0
 10 11  2  0
 11 12  1  0
 12 13  1  0
 13 14  2  0
 14 15  1  0
 15 16  1  0
 16 17  1  0
 16 18  1  0
 15 19  2  0
 19 20  1  0
 20 21  2  0
 21 22  1  0
 22 23  2  0
 23 24  1  0
 24 25  2  0
 11  3  1  0
 25 13  1  0
 25 20  1  0
M  CHG  2   6   1   8  -1
A    1
 C1 
A    2
 O1 
A    3
 C2 
A    4
 C3 
A    5
 C4 
A    6
 N1 
A    7
 O2 
A    8
 O3 
A    9
 C5 
A   10
 C6 
A   11
 C7 
A   12
 O4 
A   13
 C8 
A   14
 N2 
A   15
 C9 
A   16
 C10
A   17
 F1 
A   18
 F2 
A   19
 N3 
A   20
 C11
A   21
 C12
A   22
 C13
A   23
 C14
A   24
 C15
A   25
 C16
M  END
>  <ref_pdb>  (371) 
Ax0310a

>  <ref_mols>  (371) 
Ax0446a,Ax1080a,Ax0812a,Ax0719a,Ax1140a,Ax0528a,Ax0310a

>  <original SMILES>  (371) 
COc1cc([N+](=O)[O-])ccc1Oc1nc(C(F)F)nc2ccccc12

>  <rationale>  (371) 
info info set:screening_whole;halogenbond:P107; hbond:S87+G127; hydroph_interaction:P107; pistack:H21; 

>  <experiment>  (371) 
screening_whole

>  <cluster_label>  (371) 
9

>  <cluster_rank>  (371) 
61

>  <N_interactions>  (371) 
5

>  <∆∆G>  (371) 
-0.04329

>  <comRMSD>  (371) 
0.889251

>  <ROCS_TanimotoCombo>  (371) 
0.464

>  <ROCS_ShapeTanimoto>  (371) 
0.271

>  <ROCS_ColorTanimoto>  (371) 
0.192

$$$$
EN300_43350856
     RDKit          3D

 14 15  0  0  0  0  0  0  0  0999 V2000
   30.3789    9.2287    8.5311 C   0  0  0  0  0  0  0  0  0  0  0  0
   31.3535    9.9495    7.6223 C   0  0  0  0  0  0  0  0  0  0  0  0
   32.2695    9.1447    7.0291 O   0  0  0  0  0  0  0  0  0  0  0  0
   33.0817    9.9221    6.2587 C   0  0  0  0  0  0  0  0  0  0  0  0
   34.2531    9.3056    5.4367 C   0  0  0  0  0  0  0  0  0  0  0  0
   34.9664   10.4532    4.7050 C   0  0  0  0  0  0  0  0  0  0  0  0
   34.4599   11.8787    4.8796 C   0  0  0  0  0  0  0  0  0  0  0  0
   33.3769   12.2266    5.6643 C   0  0  0  0  0  0  0  0  0  0  0  0
   32.6838   11.2472    6.3577 C   0  0  0  0  0  0  0  0  0  0  0  0
   31.5685   11.2577    7.2202 C   0  0  0  0  0  0  0  0  0  0  0  0
   30.7150   12.6767    7.6240 S   0  0  0  0  0  6  0  0  0  0  0  0
   29.2792   12.3371    8.3897 N   0  0  0  0  0  0  0  0  0  0  0  0
   31.5013   13.3990    8.6043 O   0  0  0  0  0  0  0  0  0  0  0  0
   30.3079   13.2418    6.3631 O   0  0  0  0  0  0  0  0  0  0  0  0
  1  2  1  0
  2  3  1  0
  3  4  1  0
  4  5  2  0
  5  6  1  0
  6  7  2  0
  7  8  1  0
  8  9  2  0
  9 10  1  0
 10 11  1  0
 11 12  1  0
 11 13  2  0
 11 14  2  0
 10  2  2  0
  9  4  1  0
A    1
 C1 
A    2
 C2 
A    3
 O1 
A    4
 C3 
A    5
 C4 
A    6
 C5 
A    7
 C6 
A    8
 C7 
A    9
 C8 
A   10
 C9 
A   11
 S1 
A   12
 N1 
A   13
 O2 
A   14
 O3 
M  END
>  <ref_pdb>  (372) 
Ax0310a

>  <ref_mols>  (372) 
Ax0446a,Ax1080a,Ax0812a,Ax0719a,Ax1140a,Ax0528a,Ax0310a

>  <original SMILES>  (372) 
Cc1oc2ccccc2c1S(N)(=O)=O

>  <rationale>  (372) 
info info set:sulfonimide_whole;hbond:S87+S125; 

>  <experiment>  (372) 
sulfonimide_whole

>  <cluster_label>  (372) 
3

>  <cluster_rank>  (372) 
62

>  <N_interactions>  (372) 
2

>  <∆∆G>  (372) 
-9.092057

>  <comRMSD>  (372) 
0.432007

>  <ROCS_TanimotoCombo>  (372) 
0.36

>  <ROCS_ShapeTanimoto>  (372) 
0.209

>  <ROCS_ColorTanimoto>  (372) 
0.151

$$$$
Z1455655270
     RDKit          3D

 16 17  0  0  0  0  0  0  0  0999 V2000
   34.7171   10.0410    5.2949 N   0  0  0  0  0  0  0  0  0  0  0  0
   33.3501   10.4956    5.5178 C   0  0  0  0  0  0  0  0  0  0  0  0
   32.5873    9.5067    6.3214 C   0  0  0  0  0  0  0  0  0  0  0  0
   31.6163    9.9423    7.2097 C   0  0  0  0  0  0  0  0  0  0  0  0
   31.1509   11.2171    7.1701 N   0  0  0  0  0  0  0  0  0  0  0  0
   30.3102   11.4940    8.1256 C   0  0  0  0  0  0  0  0  0  0  0  0
   30.0439   10.6215    8.9131 O   0  0  0  0  0  0  0  0  0  0  0  0
   29.7457   12.7772    8.2143 C   0  0  0  0  0  0  0  0  0  0  0  0
   30.3337   13.7620    8.9890 C   0  0  0  0  0  0  0  0  0  0  0  0
   29.9256   15.0300    9.1746 C   0  0  0  0  0  0  0  0  0  0  0  0
   28.6112   15.4135    8.3932 C   0  0  0  0  0  0  0  0  0  0  0  0
   28.0910   14.3403    7.6325 C   0  0  0  0  0  0  0  0  0  0  0  0
   28.6163   13.0795    7.5365 C   0  0  0  0  0  0  0  0  0  0  0  0
   27.9906   12.1873    6.7693 F   0  0  0  0  0  0  0  0  0  0  0  0
   31.8780   12.2000    6.5625 C   0  0  0  0  0  0  0  0  0  0  0  0
   33.3020   11.8714    6.1565 C   0  0  0  0  0  0  0  0  0  0  0  0
  1  2  1  0
  2  3  1  0
  3  4  1  0
  4  5  1  0
  5  6  1  0
  6  7  2  0
  6  8  1  0
  8  9  2  0
  9 10  1  0
 10 11  2  0
 11 12  1  0
 12 13  2  0
 13 14  1  0
  5 15  1  0
 15 16  1  0
 16  2  1  0
 13  8  1  0
A    1
 N1 
A    2
 C1 
A    3
 C2 
A    4
 C3 
A    5
 N2 
A    6
 C4 
A    7
 O1 
A    8
 C5 
A    9
 C6 
A   10
 C7 
A   11
 C8 
A   12
 C9 
A   13
 C10
A   14
 F1 
A   15
 C11
A   16
 C12
M  END
>  <ref_pdb>  (373) 
Ax0310a

>  <ref_mols>  (373) 
Ax0446a,Ax1080a,Ax0812a,Ax0719a,Ax1140a,Ax0528a,Ax0310a

>  <original SMILES>  (373) 
NC1CCN(C(=O)c2ccccc2F)CC1

>  <rationale>  (373) 
info info set:3d;halogenbond:P107; hbond:S105; hydroph_interaction:Y89+Y90; 

>  <experiment>  (373) 
3d

>  <cluster_label>  (373) 
9

>  <cluster_rank>  (373) 
62

>  <N_interactions>  (373) 
4

>  <∆∆G>  (373) 
-4.393161

>  <comRMSD>  (373) 
0.73987

>  <ROCS_TanimotoCombo>  (373) 
0.29

>  <ROCS_ShapeTanimoto>  (373) 
0.211

>  <ROCS_ColorTanimoto>  (373) 
0.08

$$$$
Z1450282941
     RDKit          3D

 17 18  0  0  0  0  0  0  0  0999 V2000
   34.5720    8.8602    5.1447 C   0  0  0  0  0  0  0  0  0  0  0  0
   33.7579   10.1303    5.1984 C   0  0  0  0  0  0  0  0  0  0  0  0
   34.7107   11.3357    5.2756 C   0  0  0  0  0  0  0  0  0  0  0  0
   32.7208   10.1526    6.2284 N   0  0  0  0  0  0  0  0  0  0  0  0
   32.1306   11.2729    6.6815 C   0  0  0  0  0  0  0  0  0  0  0  0
   31.1218   10.8587    7.7218 C   0  0  0  0  0  0  0  0  0  0  0  0
   30.3260   11.7571    8.4030 N   0  0  0  0  0  0  0  0  0  0  0  0
   30.5113   13.1187    8.2667 C   0  0  0  0  0  0  0  0  0  0  0  0
   31.3981   13.6099    7.5848 O   0  0  0  0  0  0  0  0  0  0  0  0
   29.4810   13.9578    9.0697 C   0  0  0  0  0  0  0  0  0  0  0  0
   29.8855   14.1885   10.4564 N   0  0  0  0  0  0  0  0  0  0  0  0
   29.2307   15.1794    8.6136 C   0  0  0  0  0  0  0  0  0  0  0  0
   28.6515   15.0178    7.2712 C   0  0  0  0  0  0  0  0  0  0  0  0
   27.4514   14.2574    7.7354 C   0  0  0  0  0  0  0  0  0  0  0  0
   28.0774   13.3964    8.8445 C   0  0  0  0  0  0  0  0  0  0  0  0
   31.2843    9.4520    7.7246 C   0  0  0  0  0  0  0  0  0  0  0  0
   32.2330    9.0361    6.8387 N   0  0  0  0  0  0  0  0  0  0  0  0
  1  2  1  0
  2  3  1  0
  2  4  1  0
  4  5  1  0
  5  6  2  0
  6  7  1  0
  7  8  1  0
  8  9  2  0
  8 10  1  0
 10 11  1  0
 10 12  1  0
 12 13  1  0
 13 14  1  0
 14 15  1  0
  6 16  1  0
 16 17  2  0
 17  4  1  0
 15 10  1  0
A    1
 C1 
A    2
 C2 
A    3
 C3 
A    4
 N1 
A    5
 C4 
A    6
 C5 
A    7
 N2 
A    8
 C6 
A    9
 O1 
A   10
 C7 
A   11
 N3 
A   12
 C8 
A   13
 C9 
A   14
 C10
A   15
 C11
A   16
 C12
A   17
 N4 
M  END
>  <ref_pdb>  (374) 
Ax0310a

>  <ref_mols>  (374) 
Ax0446a,Ax1080a,Ax0812a,Ax0719a,Ax1140a,Ax0528a,Ax0310a

>  <original SMILES>  (374) 
CC(C)n1cc(NC(=O)C2(N)CCCC2)cn1

>  <rationale>  (374) 
info info set:3d;hbond:S87+S125+G127; hydroph_interaction:Y89+Y90; 

>  <experiment>  (374) 
3d

>  <cluster_label>  (374) 
3

>  <cluster_rank>  (374) 
63

>  <N_interactions>  (374) 
5

>  <∆∆G>  (374) 
-6.398854

>  <comRMSD>  (374) 
0.675597

>  <ROCS_TanimotoCombo>  (374) 
0.359

>  <ROCS_ShapeTanimoto>  (374) 
0.209

>  <ROCS_ColorTanimoto>  (374) 
0.149

$$$$
Z1213736605
     RDKit          3D

 17 18  0  0  0  0  0  0  0  0999 V2000
   26.9254   14.8183    7.6745 C   0  0  0  0  0  0  0  0  0  0  0  0
   28.1993   14.4786    7.9818 C   0  0  0  0  0  0  0  0  0  0  0  0
   29.1205   15.1264    8.7489 N   0  0  0  0  0  0  0  0  0  0  0  0
   30.0879   14.2774    8.6299 C   0  0  0  0  0  0  0  0  0  0  0  0
   31.4966   14.3397    9.2580 C   0  0  0  0  0  0  0  0  0  0  0  0
   31.2194   15.6305    9.8839 N   0  0  0  0  0  0  0  0  0  0  0  0
   29.5991   13.1517    7.7275 C   0  0  0  0  0  0  0  0  0  0  0  0
   30.0253   12.0878    7.2509 N   0  0  0  0  0  0  0  0  0  0  0  0
   30.8734   11.5482    8.1683 C   0  0  0  0  0  0  0  0  0  0  0  0
   31.6729   10.8087    7.4711 C   0  0  0  0  0  0  0  0  0  0  0  0
   32.6769   11.4619    6.6029 C   0  0  0  0  0  0  0  0  0  0  0  0
   33.5579   10.5328    5.8071 C   0  0  0  0  0  0  0  0  0  0  0  0
   33.3120    9.0472    5.9966 C   0  0  0  0  0  0  0  0  0  0  0  0
   32.3002    8.6524    6.8863 C   0  0  0  0  0  0  0  0  0  0  0  0
   31.5179    9.4814    7.5852 C   0  0  0  0  0  0  0  0  0  0  0  0
   30.3219    8.7901    8.6238 Cl  0  0  0  0  0  0  0  0  0  0  0  0
   28.4015   13.3564    7.3649 O   0  0  0  0  0  0  0  0  0  0  0  0
  1  2  1  0
  2  3  2  0
  3  4  1  0
  4  5  1  0
  5  6  3  0
  4  7  2  0
  7  8  1  0
  8  9  1  0
  9 10  1  0
 10 11  2  0
 11 12  1  0
 12 13  2  0
 13 14  1  0
 14 15  2  0
 15 16  1  0
  7 17  1  0
 17  2  1  0
 15 10  1  0
A    1
 C1 
A    2
 C2 
A    3
 N1 
A    4
 C3 
A    5
 C4 
A    6
 N2 
A    7
 C5 
A    8
 N3 
A    9
 C6 
A   10
 C7 
A   11
 C8 
A   12
 C9 
A   13
 C10
A   14
 C11
A   15
 C12
A   16
CL1 
A   17
 O1 
M  END
>  <ref_pdb>  (375) 
Ax0310a

>  <ref_mols>  (375) 
Ax0446a,Ax1080a,Ax0812a,Ax0719a,Ax1140a,Ax0528a,Ax0310a

>  <original SMILES>  (375) 
Cc1nc(C#N)c(NCc2ccccc2Cl)o1

>  <rationale>  (375) 
info info set:3d;hbond:S87; hydroph_interaction:Y89+H21; 

>  <experiment>  (375) 
3d

>  <cluster_label>  (375) 
9

>  <cluster_rank>  (375) 
63

>  <N_interactions>  (375) 
3

>  <∆∆G>  (375) 
-2.672011

>  <comRMSD>  (375) 
0.912903

>  <ROCS_TanimotoCombo>  (375) 
0.317

>  <ROCS_ShapeTanimoto>  (375) 
0.201

>  <ROCS_ColorTanimoto>  (375) 
0.116

$$$$
EN300_27783505
     RDKit          3D

 16 17  0  0  0  0  0  0  0  0999 V2000
   29.3433    7.8174    8.6619 C   0  0  0  0  0  0  0  0  0  0  0  0
   30.7900    8.0227    8.5004 C   0  0  0  0  0  0  0  0  0  0  0  0
   30.8307    9.3947    8.3078 N   0  0  0  0  0  0  0  0  0  0  0  0
   31.6649    9.8558    7.3488 C   0  0  0  0  0  0  0  0  0  0  0  0
   32.5160    9.0497    6.7011 N   0  0  0  0  0  0  0  0  0  0  0  0
   33.2605    9.6893    5.7829 C   0  0  0  0  0  0  0  0  0  0  0  0
   33.2691   11.1873    5.3954 C   0  0  0  0  0  0  0  0  0  0  0  0
   32.3397   11.8799    6.1564 C   0  0  0  0  0  0  0  0  0  0  0  0
   31.5844   11.1902    7.0877 C   0  0  0  0  0  0  0  0  0  0  0  0
   30.6321   12.1609    7.7911 C   0  0  0  0  0  0  0  0  0  0  0  0
   30.8936   12.7636    8.8025 O   0  0  0  0  0  0  0  0  0  0  0  0
   29.4679   12.2458    7.1216 O   0  0  0  0  0  0  0  0  0  0  0  0
   28.4880   13.0339    7.7989 C   0  0  0  0  0  0  0  0  0  0  0  0
   34.2131   11.6587    4.3278 C   0  0  0  0  0  0  0  0  0  0  0  0
   35.0712   10.3619    4.2761 C   0  0  0  0  0  0  0  0  0  0  0  0
   34.3125    9.1118    4.8620 C   0  0  0  0  0  0  0  0  0  0  0  0
  1  2  1  0
  2  3  1  0
  3  4  1  0
  4  5  2  0
  5  6  1  0
  6  7  2  0
  7  8  1  0
  8  9  2  0
  9 10  1  0
 10 11  2  0
 10 12  1  0
 12 13  1  0
  7 14  1  0
 14 15  1  0
 15 16  1  0
  9  4  1  0
 16  6  1  0
A    1
 C1 
A    2
 C2 
A    3
 N1 
A    4
 C3 
A    5
 N2 
A    6
 C4 
A    7
 C5 
A    8
 C6 
A    9
 C7 
A   10
 C8 
A   11
 O1 
A   12
 O2 
A   13
 C9 
A   14
 C10
A   15
 C11
A   16
 C12
M  END
>  <ref_pdb>  (376) 
Ax0310a

>  <ref_mols>  (376) 
Ax0446a,Ax1080a,Ax0812a,Ax0719a,Ax1140a,Ax0528a,Ax0310a

>  <original SMILES>  (376) 
CCNc1nc2c(cc1C(=O)OC)CCC2

>  <rationale>  (376) 
info info set:bb_densepocket2;hbond:S125+G127; hydroph_interaction:P107+V124+D109; 

>  <experiment>  (376) 
bb_densepocket2

>  <cluster_label>  (376) 
3

>  <cluster_rank>  (376) 
64

>  <N_interactions>  (376) 
5

>  <∆∆G>  (376) 
-4.965047

>  <comRMSD>  (376) 
0.843043

>  <ROCS_TanimotoCombo>  (376) 
0.646

>  <ROCS_ShapeTanimoto>  (376) 
0.274

>  <ROCS_ColorTanimoto>  (376) 
0.373

$$$$
Z437589054
     RDKit          3D

 16 17  0  0  0  0  0  0  0  0999 V2000
   32.2917   13.9065    8.7381 O   0  0  0  0  0  0  0  0  0  0  0  0
   31.4169   13.2780    8.1505 C   0  0  0  0  0  0  0  0  0  0  0  0
   31.8446   11.9666    7.4738 C   0  0  0  0  0  0  0  0  0  0  0  0
   30.9386   10.8452    7.9821 C   0  0  0  0  0  0  0  0  0  0  0  0
   29.9474   10.8524    8.7937 F   0  0  0  0  0  0  0  0  0  0  0  0
   31.5377    9.6781    7.2620 C   0  0  0  0  0  0  0  0  0  0  0  0
   32.6628    9.5194    6.3012 C   0  0  0  0  0  0  0  0  0  0  0  0
   33.4391   10.7401    5.8902 C   0  0  0  0  0  0  0  0  0  0  0  0
   32.9956   12.0267    6.5208 C   0  0  0  0  0  0  0  0  0  0  0  0
   33.8310   13.4747    6.1198 Cl  0  0  0  0  0  0  0  0  0  0  0  0
   30.1265   13.7056    8.1154 N   0  0  0  0  0  0  0  0  0  0  0  0
   29.6502   14.4204    9.3061 C   0  0  0  0  0  0  0  0  0  0  0  0
   28.3039   14.2003    9.5506 C   0  0  0  0  0  0  0  0  0  0  0  0
   27.2985   14.8194    8.1892 S   0  0  0  0  0  0  0  0  0  0  0  0
   28.2570   14.2529    6.7581 C   0  0  0  0  0  0  0  0  0  0  0  0
   29.1336   13.2484    7.1278 C   0  0  0  0  0  0  0  0  0  0  0  0
  1  2  2  0
  2  3  1  0
  3  4  2  0
  4  5  1  0
  4  6  1  0
  6  7  2  0
  7  8  1  0
  8  9  2  0
  9 10  1  0
  2 11  1  0
 11 12  1  0
 12 13  1  0
 13 14  1  0
 14 15  1  0
 15 16  1  0
  9  3  1  0
 16 11  1  0
A    1
 O1 
A    2
 C1 
A    3
 C2 
A    4
 C3 
A    5
 F1 
A    6
 C4 
A    7
 C5 
A    8
 C6 
A    9
 C7 
A   10
CL1 
A   11
 N1 
A   12
 C8 
A   13
 C9 
A   14
 S1 
A   15
 C10
A   16
 C11
M  END
>  <ref_pdb>  (377) 
Ax0310a

>  <ref_mols>  (377) 
Ax0446a,Ax1080a,Ax0812a,Ax0719a,Ax1140a,Ax0528a,Ax0310a

>  <original SMILES>  (377) 
O=C(c1c(F)cccc1Cl)N1CCSCC1

>  <rationale>  (377) 
info info set:3d;halogenbond:S125; hbond:S87; 

>  <experiment>  (377) 
3d

>  <cluster_label>  (377) 
9

>  <cluster_rank>  (377) 
64

>  <N_interactions>  (377) 
2

>  <∆∆G>  (377) 
-5.722447

>  <comRMSD>  (377) 
0.620604

>  <ROCS_TanimotoCombo>  (377) 
0.296

>  <ROCS_ShapeTanimoto>  (377) 
0.204

>  <ROCS_ColorTanimoto>  (377) 
0.091

$$$$
EN300_79509
     RDKit          3D

 13 14  0  0  0  0  0  0  0  0999 V2000
   29.0361   13.7334    9.3240 N   0  0  0  0  0  0  0  0  0  0  0  0
   30.2856   13.6579    8.2239 S   0  0  0  0  0  6  0  0  0  0  0  0
   31.3716   14.3986    8.8353 O   0  0  0  0  0  0  0  0  0  0  0  0
   29.6412   14.0552    6.9941 O   0  0  0  0  0  0  0  0  0  0  0  0
   30.7401   11.9499    8.0135 C   0  0  0  0  0  0  0  0  0  0  0  0
   30.1168   10.9960    8.7361 N   0  0  0  0  0  0  0  0  0  0  0  0
   30.5106    9.7187    8.5269 N   0  0  0  0  0  0  0  0  0  0  0  0
   31.4526    9.8379    7.6071 C   0  0  0  0  0  0  0  0  0  0  0  0
   32.1716    8.8439    7.0480 N   0  0  0  0  0  0  0  0  0  0  0  0
   33.0716    9.3267    6.1231 C   0  0  0  0  0  0  0  0  0  0  0  0
   33.2858   10.6691    5.7449 C   0  0  0  0  0  0  0  0  0  0  0  0
   32.5350   11.6712    6.3341 C   0  0  0  0  0  0  0  0  0  0  0  0
   31.6235   11.2026    7.2664 C   0  0  0  0  0  0  0  0  0  0  0  0
  1  2  1  0
  2  3  2  0
  2  4  2  0
  2  5  1  0
  5  6  1  0
  6  7  1  0
  7  8  2  0
  8  9  1  0
  9 10  2  0
 10 11  1  0
 11 12  2  0
 12 13  1  0
 13  5  2  0
 13  8  1  0
A    1
 N1 
A    2
 S1 
A    3
 O1 
A    4
 O2 
A    5
 C1 
A    6
 N2 
A    7
 N3 
A    8
 C2 
A    9
 N4 
A   10
 C3 
A   11
 C4 
A   12
 C5 
A   13
 C6 
M  END
>  <ref_pdb>  (378) 
Ax0310a

>  <ref_mols>  (378) 
Ax0446a,Ax1080a,Ax0812a,Ax0719a,Ax1140a,Ax0528a,Ax0310a

>  <original SMILES>  (378) 
NS(=O)(=O)c1[nH]nc2ncccc12

>  <rationale>  (378) 
info info set:sulfonimide_whole;hbond:S87+S105+S125; 

>  <experiment>  (378) 
sulfonimide_whole

>  <cluster_label>  (378) 
3

>  <cluster_rank>  (378) 
65

>  <N_interactions>  (378) 
3

>  <∆∆G>  (378) 
-4.716345

>  <comRMSD>  (378) 
0.420809

>  <ROCS_TanimotoCombo>  (378) 
0.367

>  <ROCS_ShapeTanimoto>  (378) 
0.196

>  <ROCS_ColorTanimoto>  (378) 
0.171

$$$$
Z285189104
     RDKit          3D

 16 17  0  0  0  0  0  0  0  0999 V2000
   30.3970   13.4073    6.7439 O   0  0  0  0  0  0  0  0  0  0  0  0
   31.3746   12.9111    7.2842 C   0  0  0  0  0  0  0  0  0  0  0  0
   31.6707   11.5061    7.1178 C   0  0  0  0  0  0  0  0  0  0  0  0
   32.6039   11.0228    6.2290 C   0  0  0  0  0  0  0  0  0  0  0  0
   33.2802   11.8605    5.4341 F   0  0  0  0  0  0  0  0  0  0  0  0
   32.8984    9.5751    6.1200 C   0  0  0  0  0  0  0  0  0  0  0  0
   32.1504    8.7523    6.9877 C   0  0  0  0  0  0  0  0  0  0  0  0
   31.2230    9.3103    7.8322 C   0  0  0  0  0  0  0  0  0  0  0  0
   30.9940   10.6269    7.8883 C   0  0  0  0  0  0  0  0  0  0  0  0
   30.0954   11.0675    8.7120 F   0  0  0  0  0  0  0  0  0  0  0  0
   32.2858   13.5914    8.0999 N   0  0  0  0  0  0  0  0  0  0  0  0
   33.6620   13.1618    8.2083 C   0  0  0  0  0  0  0  0  0  0  0  0
   34.5835   14.1809    8.1053 C   0  0  0  0  0  0  0  0  0  0  0  0
   34.4588   15.0978    9.2270 N   0  0  0  0  0  0  0  0  0  0  0  0
   33.0827   15.3179    9.7591 C   0  0  0  0  0  0  0  0  0  0  0  0
   31.9300   14.4248    9.2524 C   0  0  0  0  0  0  0  0  0  0  0  0
  1  2  2  0
  2  3  1  0
  3  4  2  0
  4  5  1  0
  4  6  1  0
  6  7  2  0
  7  8  1  0
  8  9  2  0
  9 10  1  0
  2 11  1  0
 11 12  1  0
 12 13  1  0
 13 14  1  0
 14 15  1  0
 15 16  1  0
  9  3  1  0
 16 11  1  0
A    1
 O1 
A    2
 C1 
A    3
 C2 
A    4
 C3 
A    5
 F1 
A    6
 C4 
A    7
 C5 
A    8
 C6 
A    9
 C7 
A   10
 F2 
A   11
 N1 
A   12
 C8 
A   13
 C9 
A   14
 N2 
A   15
 C10
A   16
 C11
M  END
>  <ref_pdb>  (379) 
Ax0310a

>  <ref_mols>  (379) 
Ax0446a,Ax1080a,Ax0812a,Ax0719a,Ax1140a,Ax0528a,Ax0310a

>  <original SMILES>  (379) 
O=C(c1c(F)cccc1F)N1CCNCC1

>  <rationale>  (379) 
info info set:3d;halogenbond:S125; hbond:S87; 

>  <experiment>  (379) 
3d

>  <cluster_label>  (379) 
9

>  <cluster_rank>  (379) 
65

>  <N_interactions>  (379) 
2

>  <∆∆G>  (379) 
-2.700371

>  <comRMSD>  (379) 
0.66859

>  <ROCS_TanimotoCombo>  (379) 
0.307

>  <ROCS_ShapeTanimoto>  (379) 
0.207

>  <ROCS_ColorTanimoto>  (379) 
0.1

$$$$
EN300_651572
     RDKit          3D

 10 10  0  0  0  0  0  0  0  0999 V2000
   29.6849    8.1255    8.5079 C   0  0  0  0  0  0  0  0  0  0  0  0
   30.9925    8.6905    8.7441 C   0  0  0  0  0  0  0  0  0  0  0  0
   31.6086    9.4468    7.6333 C   0  0  0  0  0  0  0  0  0  0  0  0
   32.4508    8.7503    6.8724 N   0  0  0  0  0  0  0  0  0  0  0  0
   33.0720    9.3524    5.8755 C   0  0  0  0  0  0  0  0  0  0  0  0
   32.8276   10.8313    5.5980 C   0  0  0  0  0  0  0  0  0  0  0  0
   31.9335   11.5615    6.4014 C   0  0  0  0  0  0  0  0  0  0  0  0
   31.6988   13.0322    6.1204 C   0  0  0  0  0  0  0  0  0  0  0  0
   31.1986   10.8988    7.5566 C   0  0  0  0  0  0  0  0  0  0  0  0
   30.2990   11.5614    8.3988 N   0  0  0  0  0  0  0  0  0  0  0  0
  1  2  1  0
  2  3  1  0
  3  4  2  0
  4  5  1  0
  5  6  2  0
  6  7  1  0
  7  8  1  0
  7  9  2  0
  9 10  1  0
  9  3  1  0
A    1
 C1 
A    2
 C2 
A    3
 C3 
A    4
 N1 
A    5
 C4 
A    6
 C5 
A    7
 C6 
A    8
 C7 
A    9
 C8 
A   10
 N2 
M  END
>  <ref_pdb>  (380) 
Ax0310a

>  <ref_mols>  (380) 
Ax0446a,Ax1080a,Ax0812a,Ax0719a,Ax1140a,Ax0528a,Ax0310a

>  <original SMILES>  (380) 
CCc1nccc(C)c1N

>  <rationale>  (380) 
info info set:bb_densepocket2;hbond:S125+G127; hydroph_interaction:P107+V124; 

>  <experiment>  (380) 
bb_densepocket2

>  <cluster_label>  (380) 
3

>  <cluster_rank>  (380) 
66

>  <N_interactions>  (380) 
4

>  <∆∆G>  (380) 
-4.799363

>  <comRMSD>  (380) 
0.320493

>  <ROCS_TanimotoCombo>  (380) 
0.656

>  <ROCS_ShapeTanimoto>  (380) 
0.198

>  <ROCS_ColorTanimoto>  (380) 
0.458

$$$$
Z82198762
     RDKit          3D

 17 18  0  0  0  0  0  0  0  0999 V2000
   34.5273    9.9831    5.1472 C   0  0  0  0  0  0  0  0  0  0  0  0
   33.3160   10.4980    5.5909 C   0  0  0  0  0  0  0  0  0  0  0  0
   33.2601   11.6607    6.3266 C   0  0  0  0  0  0  0  0  0  0  0  0
   32.0012   12.1735    6.5386 C   0  0  0  0  0  0  0  0  0  0  0  0
   31.1324   11.1438    7.0898 N   0  0  0  0  0  0  0  0  0  0  0  0
   30.2982   11.4377    8.1072 C   0  0  0  0  0  0  0  0  0  0  0  0
   30.0627   10.5890    8.9326 O   0  0  0  0  0  0  0  0  0  0  0  0
   29.6827   12.8062    8.1895 C   0  0  0  0  0  0  0  0  0  0  0  0
   30.3167   13.8149    8.9338 C   0  0  0  0  0  0  0  0  0  0  0  0
   29.8101   15.0947    9.0412 C   0  0  0  0  0  0  0  0  0  0  0  0
   30.4724   15.9992    9.7539 F   0  0  0  0  0  0  0  0  0  0  0  0
   28.6289   15.4040    8.3949 C   0  0  0  0  0  0  0  0  0  0  0  0
   27.9770   14.4258    7.6519 C   0  0  0  0  0  0  0  0  0  0  0  0
   28.4872   13.1348    7.5395 C   0  0  0  0  0  0  0  0  0  0  0  0
   27.8242   12.2393    6.8108 F   0  0  0  0  0  0  0  0  0  0  0  0
   31.6114    9.7772    7.2248 C   0  0  0  0  0  0  0  0  0  0  0  0
   32.5905    9.4006    6.3270 C   0  0  0  0  0  0  0  0  0  0  0  0
  1  2  1  0
  2  3  1  0
  3  4  1  0
  4  5  1  0
  5  6  1  0
  6  7  2  0
  6  8  1  0
  8  9  2  0
  9 10  1  0
 10 11  1  0
 10 12  2  0
 12 13  1  0
 13 14  2  0
 14 15  1  0
  5 16  1  0
 16 17  1  0
 17  2  1  0
 14  8  1  0
A    1
 C1 
A    2
 C2 
A    3
 C3 
A    4
 C4 
A    5
 N1 
A    6
 C5 
A    7
 O1 
A    8
 C6 
A    9
 C7 
A   10
 C8 
A   11
 F1 
A   12
 C9 
A   13
 C10
A   14
 C11
A   15
 F2 
A   16
 C12
A   17
 C13
M  END
>  <ref_pdb>  (381) 
Ax0310a

>  <ref_mols>  (381) 
Ax0446a,Ax1080a,Ax0812a,Ax0719a,Ax1140a,Ax0528a,Ax0310a

>  <original SMILES>  (381) 
CC1CCN(C(=O)c2cc(F)ccc2F)CC1

>  <rationale>  (381) 
info info set:3d;halogenbond:P107; hydroph_interaction:Y89+Y90; 

>  <experiment>  (381) 
3d

>  <cluster_label>  (381) 
9

>  <cluster_rank>  (381) 
66

>  <N_interactions>  (381) 
3

>  <∆∆G>  (381) 
-4.384151

>  <comRMSD>  (381) 
0.739517

>  <ROCS_TanimotoCombo>  (381) 
0.297

>  <ROCS_ShapeTanimoto>  (381) 
0.213

>  <ROCS_ColorTanimoto>  (381) 
0.084

$$$$
Z19657135
     RDKit          3D

 24 27  0  0  0  0  0  0  0  0999 V2000
   30.5973    8.5057    8.4369 C   0  0  0  0  0  0  0  0  0  0  0  0
   31.4954    9.2979    7.5297 C   0  0  0  0  0  0  0  0  0  0  0  0
   32.5260    8.8350    6.8350 N   0  0  0  0  0  0  0  0  0  0  0  0
   33.2127    9.7751    6.1372 C   0  0  0  0  0  0  0  0  0  0  0  0
   34.3172    9.4161    5.3983 C   0  0  0  0  0  0  0  0  0  0  0  0
   35.0583   10.3636    4.6916 C   0  0  0  0  0  0  0  0  0  0  0  0
   34.6909   11.6986    4.7172 C   0  0  0  0  0  0  0  0  0  0  0  0
   33.5771   12.0751    5.4445 C   0  0  0  0  0  0  0  0  0  0  0  0
   32.8494   11.1361    6.1403 C   0  0  0  0  0  0  0  0  0  0  0  0
   31.8104   11.5315    6.8115 N   0  0  0  0  0  0  0  0  0  0  0  0
   31.1967   10.5620    7.4720 C   0  0  0  0  0  0  0  0  0  0  0  0
   30.0756   10.8761    8.2177 C   0  0  0  0  0  0  0  0  0  0  0  0
   29.5758   12.4771    7.7829 S   0  0  0  0  0  0  0  0  0  0  0  0
   30.8434   13.3791    8.5064 C   0  0  0  0  0  0  0  0  0  0  0  0
   32.1157   13.2092    8.6967 N   0  0  0  0  0  0  0  0  0  0  0  0
   32.4884   14.3494    9.3665 N   0  0  0  0  0  0  0  0  0  0  0  0
   31.4577   15.1695    9.5546 N   0  0  0  0  0  0  0  0  0  0  0  0
   30.4631   14.4923    8.9721 N   0  0  0  0  0  0  0  0  0  0  0  0
   29.1840   14.7806    8.7809 C   0  0  0  0  0  0  0  0  0  0  0  0
   28.3225   15.1735    9.7005 C   0  0  0  0  0  0  0  0  0  0  0  0
   27.0849   15.4301    9.2779 C   0  0  0  0  0  0  0  0  0  0  0  0
   26.7517   15.2380    7.9455 C   0  0  0  0  0  0  0  0  0  0  0  0
   27.6108   14.8065    7.0366 C   0  0  0  0  0  0  0  0  0  0  0  0
   28.8428   14.5861    7.4449 C   0  0  0  0  0  0  0  0  0  0  0  0
  1  2  1  0
  2  3  2  0
  3  4  1  0
  4  5  2  0
  5  6  1  0
  6  7  2  0
  7  8  1  0
  8  9  2  0
  9 10  1  0
 10 11  2  0
 11 12  1  0
 12 13  1  0
 13 14  1  0
 14 15  2  0
 15 16  1  0
 16 17  2  0
 17 18  1  0
 18 19  1  0
 19 20  2  0
 20 21  1  0
 21 22  2  0
 22 23  1  0
 23 24  2  0
 11  2  1  0
 18 14  1  0
 24 19  1  0
  9  4  1  0
A    1
 C1 
A    2
 C2 
A    3
 N1 
A    4
 C3 
A    5
 C4 
A    6
 C5 
A    7
 C6 
A    8
 C7 
A    9
 C8 
A   10
 N2 
A   11
 C9 
A   12
 C10
A   13
 S1 
A   14
 C11
A   15
 N3 
A   16
 N4 
A   17
 N5 
A   18
 N6 
A   19
 C12
A   20
 C13
A   21
 C14
A   22
 C15
A   23
 C16
A   24
 C17
M  END
>  <ref_pdb>  (382) 
Ax0310a

>  <ref_mols>  (382) 
Ax0446a,Ax1080a,Ax0812a,Ax0719a,Ax1140a,Ax0528a,Ax0310a

>  <original SMILES>  (382) 
Cc1nc2ccccc2nc1CSc1nnnn1-c1ccccc1

>  <rationale>  (382) 
info info set:screening_whole;hbond:S87+G127; hydroph_interaction:Y89+Y90+V124+H21; 

>  <experiment>  (382) 
screening_whole

>  <cluster_label>  (382) 
9

>  <cluster_rank>  (382) 
67

>  <N_interactions>  (382) 
7

>  <∆∆G>  (382) 
-0.454012

>  <comRMSD>  (382) 
0.904122

>  <ROCS_TanimotoCombo>  (382) 
0.457

>  <ROCS_ShapeTanimoto>  (382) 
0.26

>  <ROCS_ColorTanimoto>  (382) 
0.196

$$$$
EN300_22934047
     RDKit          3D

 16 16  0  0  0  0  0  0  0  0999 V2000
   34.2062   13.2374    5.4655 C   0  0  0  0  0  0  0  0  0  0  0  0
   33.3537   12.0082    5.8297 C   0  0  0  0  0  0  0  0  0  0  0  0
   32.2024   12.2448    6.7722 C   0  0  0  0  0  0  0  0  0  0  0  0
   31.6907   10.9080    6.9378 N   0  0  0  0  0  0  0  0  0  0  0  0
   30.9222   10.7563    8.0507 C   0  0  0  0  0  0  0  0  0  0  0  0
   30.0891   11.5689    8.4034 O   0  0  0  0  0  0  0  0  0  0  0  0
   31.2425    9.5745    8.7270 O   0  0  0  0  0  0  0  0  0  0  0  0
   29.9689    9.0108    8.9439 C   0  0  0  0  0  0  0  0  0  0  0  0
   28.8267    9.2032    8.2390 C   0  0  0  0  0  0  0  0  0  0  0  0
   29.4673    8.4940   10.1681 C   0  0  0  0  0  0  0  0  0  0  0  0
   30.2783    7.5892    8.8409 C   0  0  0  0  0  0  0  0  0  0  0  0
   32.5404    9.9054    6.3849 C   0  0  0  0  0  0  0  0  0  0  0  0
   32.5335    8.4814    6.7293 O   0  0  0  0  0  0  0  0  0  0  0  0
   33.5269   10.5878    5.3398 C   0  0  0  0  0  0  0  0  0  0  0  0
   33.2196   10.5608    4.0380 F   0  0  0  0  0  0  0  0  0  0  0  0
   34.7978   10.1469    5.3970 F   0  0  0  0  0  0  0  0  0  0  0  0
  1  2  2  0
  2  3  1  0
  3  4  1  0
  4  5  1  0
  5  6  2  0
  5  7  1  0
  7  8  1  0
  8  9  1  0
  8 10  1  0
  8 11  1  0
  4 12  1  0
 12 13  2  0
 12 14  1  0
 14 15  1  0
 14 16  1  0
 14  2  1  0
A    1
 C1 
A    2
 C2 
A    3
 C3 
A    4
 N1 
A    5
 C4 
A    6
 O1 
A    7
 O2 
A    8
 C5 
A    9
 C6 
A   10
 C7 
A   11
 C8 
A   12
 C9 
A   13
 O3 
A   14
 C10
A   15
 F1 
A   16
 F2 
M  END
>  <ref_pdb>  (383) 
Ax0310a

>  <ref_mols>  (383) 
Ax0446a,Ax1080a,Ax0812a,Ax0719a,Ax1140a,Ax0528a,Ax0310a

>  <original SMILES>  (383) 
C=C1CN(C(=O)OC(C)(C)C)C(=O)C1(F)F

>  <rationale>  (383) 
info info set:bb_densepocket2;hydroph_interaction:V124+D109; 

>  <experiment>  (383) 
bb_densepocket2

>  <cluster_label>  (383) 
3

>  <cluster_rank>  (383) 
67

>  <N_interactions>  (383) 
2

>  <∆∆G>  (383) 
-3.097199

>  <comRMSD>  (383) 
0.758595

>  <ROCS_TanimotoCombo>  (383) 
0.652

>  <ROCS_ShapeTanimoto>  (383) 
0.239

>  <ROCS_ColorTanimoto>  (383) 
0.413

$$$$
EN300_6509023
     RDKit          3D

 17 18  0  0  0  0  0  0  0  0999 V2000
   29.7452    7.3272    8.5669 C   0  0  0  0  0  0  0  0  0  0  0  0
   30.0127    8.5693    9.1233 C   0  0  0  0  0  0  0  0  0  0  0  0
   28.9613    9.5533    8.7055 C   0  0  0  0  0  0  0  0  0  0  0  0
   29.8301    8.0817   10.4360 C   0  0  0  0  0  0  0  0  0  0  0  0
   31.2230    9.0887    8.7218 O   0  0  0  0  0  0  0  0  0  0  0  0
   31.0645   10.3273    8.2445 C   0  0  0  0  0  0  0  0  0  0  0  0
   30.3630   11.2151    8.6613 O   0  0  0  0  0  0  0  0  0  0  0  0
   31.9482   10.5354    7.0251 C   0  0  0  0  0  0  0  0  0  0  0  0
   31.9391   11.8834    6.3748 C   0  0  0  0  0  0  0  0  0  0  0  0
   32.8234   12.1337    5.1471 C   0  0  0  0  0  0  0  0  0  0  0  0
   33.6766   11.0057    4.6464 C   0  0  0  0  0  0  0  0  0  0  0  0
   33.6452    9.6751    5.3517 C   0  0  0  0  0  0  0  0  0  0  0  0
   32.8512    9.4514    6.4309 C   0  0  0  0  0  0  0  0  0  0  0  0
   34.4589    8.6486    4.8831 N   0  0  0  0  0  0  0  0  0  0  0  0
   35.1810    8.8122    3.6305 C   0  0  0  0  0  0  0  0  0  0  0  0
   34.6064    9.9488    2.7554 C   0  0  0  0  0  0  0  0  0  0  0  0
   34.5610   11.1499    3.4600 C   0  0  0  0  0  0  0  0  0  0  0  0
  1  2  1  0
  2  3  1  0
  2  4  1  0
  2  5  1  0
  5  6  1  0
  6  7  2  0
  6  8  1  0
  8  9  2  0
  9 10  1  0
 10 11  2  0
 11 12  1  0
 12 13  2  0
 12 14  1  0
 14 15  1  0
 15 16  1  0
 16 17  1  0
 13  8  1  0
 17 11  1  0
A    1
 C1 
A    2
 C2 
A    3
 C3 
A    4
 C4 
A    5
 O1 
A    6
 C5 
A    7
 O2 
A    8
 C6 
A    9
 C7 
A   10
 C8 
A   11
 C9 
A   12
 C10
A   13
 C11
A   14
 N1 
A   15
 C12
A   16
 C13
A   17
 C14
M  END
>  <ref_pdb>  (384) 
Ax0310a

>  <ref_mols>  (384) 
Ax0446a,Ax1080a,Ax0812a,Ax0719a,Ax1140a,Ax0528a,Ax0310a

>  <original SMILES>  (384) 
CC(C)(C)OC(=O)c1ccc2c(c1)NCCC2

>  <rationale>  (384) 
info info set:bb_densepocket2;hbond:S105; hydroph_interaction:P107+V124+D109; 

>  <experiment>  (384) 
bb_densepocket2

>  <cluster_label>  (384) 
3

>  <cluster_rank>  (384) 
68

>  <N_interactions>  (384) 
4

>  <∆∆G>  (384) 
-5.512508

>  <comRMSD>  (384) 
0.645639

>  <ROCS_TanimotoCombo>  (384) 
0.622

>  <ROCS_ShapeTanimoto>  (384) 
0.239

>  <ROCS_ColorTanimoto>  (384) 
0.383

$$$$
EN300_27726209
     RDKit          3D

 14 14  0  0  0  0  0  0  0  0999 V2000
   28.7115   14.7178    7.8773 C   0  0  0  0  0  0  0  0  0  0  0  0
   28.6554   13.1850    7.8825 C   0  0  0  0  0  0  0  0  0  0  0  0
   29.9167   12.7472    7.3164 O   0  0  0  0  0  0  0  0  0  0  0  0
   30.3561   11.5862    7.8565 C   0  0  0  0  0  0  0  0  0  0  0  0
   29.9252   11.0700    8.8122 O   0  0  0  0  0  0  0  0  0  0  0  0
   31.4543   10.9394    7.0948 C   0  0  0  0  0  0  0  0  0  0  0  0
   32.3231   11.6649    6.1183 C   0  0  0  0  0  0  0  0  0  0  0  0
   33.3803   10.8573    5.4180 C   0  0  0  0  0  0  0  0  0  0  0  0
   34.2990   11.5492    4.4091 C   0  0  0  0  0  0  0  0  0  0  0  0
   33.4468    9.4985    5.7441 C   0  0  0  0  0  0  0  0  0  0  0  0
   34.4073    8.7299    5.0946 N   0  0  0  0  0  0  0  0  0  0  0  0
   32.6578    8.8448    6.6449 N   0  0  0  0  0  0  0  0  0  0  0  0
   31.6826    9.4825    7.3365 C   0  0  0  0  0  0  0  0  0  0  0  0
   30.8514    8.7190    8.3448 C   0  0  0  0  0  0  0  0  0  0  0  0
  1  2  1  0
  2  3  1  0
  3  4  1  0
  4  5  2  0
  4  6  1  0
  6  7  2  0
  7  8  1  0
  8  9  1  0
  8 10  2  0
 10 11  1  0
 10 12  1  0
 12 13  2  0
 13 14  1  0
 13  6  1  0
A    1
 C1 
A    2
 C2 
A    3
 O1 
A    4
 C3 
A    5
 O2 
A    6
 C4 
A    7
 C5 
A    8
 C6 
A    9
 C7 
A   10
 C8 
A   11
 N1 
A   12
 N2 
A   13
 C9 
A   14
 C10
M  END
>  <ref_pdb>  (385) 
Ax0310a

>  <ref_mols>  (385) 
Ax0446a,Ax1080a,Ax0812a,Ax0719a,Ax1140a,Ax0528a,Ax0310a

>  <original SMILES>  (385) 
CCOC(=O)c1cc(C)c(N)nc1C

>  <rationale>  (385) 
info info set:bb_densepocket2;hbond:S105; hydroph_interaction:P107; saltbridge:H21; 

>  <experiment>  (385) 
bb_densepocket2

>  <cluster_label>  (385) 
9

>  <cluster_rank>  (385) 
68

>  <N_interactions>  (385) 
3

>  <∆∆G>  (385) 
-5.485623

>  <comRMSD>  (385) 
0.649017

>  <ROCS_TanimotoCombo>  (385) 
0.619

>  <ROCS_ShapeTanimoto>  (385) 
0.258

>  <ROCS_ColorTanimoto>  (385) 
0.361

$$$$
EN300_266003
     RDKit          3D

  9  9  0  0  0  0  0  0  0  0999 V2000
   29.6565    8.1131    8.4810 C   0  0  0  0  0  0  0  0  0  0  0  0
   30.9060    8.7349    8.7878 C   0  0  0  0  0  0  0  0  0  0  0  0
   31.5724    9.5014    7.6605 C   0  0  0  0  0  0  0  0  0  0  0  0
   32.4157    8.8050    6.8955 N   0  0  0  0  0  0  0  0  0  0  0  0
   33.0378    9.4601    5.9034 C   0  0  0  0  0  0  0  0  0  0  0  0
   32.8823   10.9559    5.5416 C   0  0  0  0  0  0  0  0  0  0  0  0
   32.0004   11.7214    6.3197 C   0  0  0  0  0  0  0  0  0  0  0  0
   31.2768   11.0066    7.4555 C   0  0  0  0  0  0  0  0  0  0  0  0
   30.3890   11.7197    8.2612 N   0  0  0  0  0  0  0  0  0  0  0  0
  1  2  1  0
  2  3  1  0
  3  4  2  0
  4  5  1  0
  5  6  2  0
  6  7  1  0
  7  8  2  0
  8  9  1  0
  8  3  1  0
A    1
 C1 
A    2
 C2 
A    3
 C3 
A    4
 N1 
A    5
 C4 
A    6
 C5 
A    7
 C6 
A    8
 C7 
A    9
 N2 
M  END
>  <ref_pdb>  (386) 
Ax0310a

>  <ref_mols>  (386) 
Ax0446a,Ax1080a,Ax0812a,Ax0719a,Ax1140a,Ax0528a,Ax0310a

>  <original SMILES>  (386) 
CCc1ncccc1N

>  <rationale>  (386) 
info info set:bb_densepocket2;hbond:S125+G127; hydroph_interaction:P107+V124; 

>  <experiment>  (386) 
bb_densepocket2

>  <cluster_label>  (386) 
3

>  <cluster_rank>  (386) 
69

>  <N_interactions>  (386) 
4

>  <∆∆G>  (386) 
-4.050142

>  <comRMSD>  (386) 
0.387837

>  <ROCS_TanimotoCombo>  (386) 
0.646

>  <ROCS_ShapeTanimoto>  (386) 
0.188

>  <ROCS_ColorTanimoto>  (386) 
0.458

$$$$
EN300_685409
     RDKit          3D

 16 16  0  0  0  0  0  0  0  0999 V2000
   27.6251   13.6826    6.7388 C   0  0  0  0  0  0  0  0  0  0  0  0
   28.5077   13.1667    7.8399 C   0  0  0  0  0  0  0  0  0  0  0  0
   29.2758   12.0685    7.3612 O   0  0  0  0  0  0  0  0  0  0  0  0
   30.4760   12.0322    7.9476 C   0  0  0  0  0  0  0  0  0  0  0  0
   30.7463   12.7356    8.8974 O   0  0  0  0  0  0  0  0  0  0  0  0
   31.4330   11.0847    7.2957 C   0  0  0  0  0  0  0  0  0  0  0  0
   32.5190   11.6196    6.3749 C   0  0  0  0  0  0  0  0  0  0  0  0
   33.4035   10.8268    5.7643 N   0  0  0  0  0  0  0  0  0  0  0  0
   33.3804    9.4162    5.9512 C   0  0  0  0  0  0  0  0  0  0  0  0
   34.3692    8.7379    5.2685 N   0  0  0  0  0  0  0  0  0  0  0  0
   34.8058    9.3107    4.0265 C   0  0  0  0  0  0  0  0  0  0  0  0
   32.4783    8.7829    6.7375 N   0  0  0  0  0  0  0  0  0  0  0  0
   31.4971    9.5327    7.4172 C   0  0  0  0  0  0  0  0  0  0  0  0
   30.4542    8.8015    8.3019 C   0  0  0  0  0  0  0  0  0  0  0  0
   30.5914    7.4972    8.3071 F   0  0  0  0  0  0  0  0  0  0  0  0
   30.4830    9.0713    9.6103 F   0  0  0  0  0  0  0  0  0  0  0  0
  1  2  1  0
  2  3  1  0
  3  4  1  0
  4  5  2  0
  4  6  1  0
  6  7  2  0
  7  8  1  0
  8  9  2  0
  9 10  1  0
 10 11  1  0
  9 12  1  0
 12 13  2  0
 13 14  1  0
 14 15  1  0
 14 16  1  0
 13  6  1  0
A    1
 C1 
A    2
 C2 
A    3
 O1 
A    4
 C3 
A    5
 O2 
A    6
 C4 
A    7
 C5 
A    8
 N1 
A    9
 C6 
A   10
 N2 
A   11
 C7 
A   12
 N3 
A   13
 C8 
A   14
 C9 
A   15
 F1 
A   16
 F2 
M  END
>  <ref_pdb>  (387) 
Ax0310a

>  <ref_mols>  (387) 
Ax0446a,Ax1080a,Ax0812a,Ax0719a,Ax1140a,Ax0528a,Ax0310a

>  <original SMILES>  (387) 
CCOC(=O)c1cnc(NC)nc1C(F)F

>  <rationale>  (387) 
info info set:bb_densepocket2;hbond:S105+G127; saltbridge:H21; 

>  <experiment>  (387) 
bb_densepocket2

>  <cluster_label>  (387) 
9

>  <cluster_rank>  (387) 
69

>  <N_interactions>  (387) 
3

>  <∆∆G>  (387) 
-2.334844

>  <comRMSD>  (387) 
0.673438

>  <ROCS_TanimotoCombo>  (387) 
0.629

>  <ROCS_ShapeTanimoto>  (387) 
0.27

>  <ROCS_ColorTanimoto>  (387) 
0.36

$$$$
EN300_215415
     RDKit          3D

 10 10  0  0  0  0  0  0  0  0999 V2000
   34.6147    9.1479    4.0656 C   0  0  0  0  0  0  0  0  0  0  0  0
   34.1984    8.8388    5.4177 N   0  0  0  0  0  0  0  0  0  0  0  0
   33.2175    9.6754    5.9631 C   0  0  0  0  0  0  0  0  0  0  0  0
   33.1451   11.1127    5.5217 C   0  0  0  0  0  0  0  0  0  0  0  0
   32.0674   11.9882    6.1640 C   0  0  0  0  0  0  0  0  0  0  0  0
   31.2169   11.2447    7.1827 C   0  0  0  0  0  0  0  0  0  0  0  0
   31.4185    9.9127    7.4733 C   0  0  0  0  0  0  0  0  0  0  0  0
   30.5422    9.4237    8.4482 N   0  0  0  0  0  0  0  0  0  0  0  0
   30.4782    8.0109    8.5695 C   0  0  0  0  0  0  0  0  0  0  0  0
   32.3750    9.1486    6.8872 N   0  0  0  0  0  0  0  0  0  0  0  0
  1  2  1  0
  2  3  1  0
  3  4  2  0
  4  5  1  0
  5  6  2  0
  6  7  1  0
  7  8  1  0
  8  9  1  0
  7 10  2  0
 10  3  1  0
A    1
 C1 
A    2
 N1 
A    3
 C2 
A    4
 C3 
A    5
 C4 
A    6
 C5 
A    7
 C6 
A    8
 N2 
A    9
 C7 
A   10
 N3 
M  END
>  <ref_pdb>  (388) 
Ax0310a

>  <ref_mols>  (388) 
Ax0446a,Ax1080a,Ax0812a,Ax0719a,Ax1140a,Ax0528a,Ax0310a

>  <original SMILES>  (388) 
CNc1cccc(NC)n1

>  <rationale>  (388) 
info info set:bb_densepocket2;hbond:S105+S125; hydroph_interaction:P107; 

>  <experiment>  (388) 
bb_densepocket2

>  <cluster_label>  (388) 
3

>  <cluster_rank>  (388) 
70

>  <N_interactions>  (388) 
3

>  <∆∆G>  (388) 
-6.424182

>  <comRMSD>  (388) 
0.560963

>  <ROCS_TanimotoCombo>  (388) 
0.667

>  <ROCS_ShapeTanimoto>  (388) 
0.194

>  <ROCS_ColorTanimoto>  (388) 
0.473

$$$$
Z4136001244
     RDKit          3D

 22 24  0  0  0  0  0  0  0  0999 V2000
   34.4097   11.7231    3.3338 C   0  0  0  0  0  0  0  0  0  0  0  0
   34.0810   10.5691    4.2493 C   0  0  0  0  0  0  0  0  0  0  0  0
   34.6953    9.3883    4.0995 N   0  0  0  0  0  0  0  0  0  0  0  0
   34.1170    8.6416    5.0798 N   0  0  0  0  0  0  0  0  0  0  0  0
   33.2060    9.2883    5.8029 C   0  0  0  0  0  0  0  0  0  0  0  0
   32.4995    8.6831    6.8406 N   0  0  0  0  0  0  0  0  0  0  0  0
   31.6556    9.5713    7.3834 C   0  0  0  0  0  0  0  0  0  0  0  0
   31.4914   10.8804    6.9992 C   0  0  0  0  0  0  0  0  0  0  0  0
   30.5895   11.7183    7.6174 N   0  0  0  0  0  0  0  0  0  0  0  0
   29.5777   11.2026    8.3801 C   0  0  0  0  0  0  0  0  0  0  0  0
   29.6288   10.1297    8.9752 O   0  0  0  0  0  0  0  0  0  0  0  0
   28.3449   12.0707    8.4232 C   0  0  0  0  0  0  0  0  0  0  0  0
   27.6624   12.0269    9.5715 F   0  0  0  0  0  0  0  0  0  0  0  0
   27.4408   11.5837    7.5542 F   0  0  0  0  0  0  0  0  0  0  0  0
   28.4535   13.3721    8.1066 C   0  0  0  0  0  0  0  0  0  0  0  0
   28.1114   13.9137    6.8989 C   0  0  0  0  0  0  0  0  0  0  0  0
   28.3057   15.1978    6.8787 N   0  0  0  0  0  0  0  0  0  0  0  0
   28.7676   15.4571    8.0944 N   0  0  0  0  0  0  0  0  0  0  0  0
   29.0397   16.7832    8.3795 C   0  0  0  0  0  0  0  0  0  0  0  0
   28.9001   14.3795    8.9030 C   0  0  0  0  0  0  0  0  0  0  0  0
   32.2420   11.4037    5.9469 C   0  0  0  0  0  0  0  0  0  0  0  0
   33.1433   10.5473    5.3170 C   0  0  0  0  0  0  0  0  0  0  0  0
  1  2  1  0
  2  3  2  0
  3  4  1  0
  4  5  1  0
  5  6  2  0
  6  7  1  0
  7  8  2  0
  8  9  1  0
  9 10  1  0
 10 11  2  0
 10 12  1  0
 12 13  1  0
 12 14  1  0
 12 15  1  0
 15 16  1  0
 16 17  2  0
 17 18  1  0
 18 19  1  0
 18 20  1  0
  8 21  1  0
 21 22  2  0
 22  2  1  0
 22  5  1  0
 20 15  2  0
A    1
 C1 
A    2
 C2 
A    3
 N1 
A    4
 N2 
A    5
 C3 
A    6
 N3 
A    7
 C4 
A    8
 C5 
A    9
 N4 
A   10
 C6 
A   11
 O1 
A   12
 C7 
A   13
 F1 
A   14
 F2 
A   15
 C8 
A   16
 C9 
A   17
 N5 
A   18
 N6 
A   19
 C10
A   20
 C11
A   21
 C12
A   22
 C13
M  END
>  <ref_pdb>  (389) 
Ax0310a

>  <ref_mols>  (389) 
Ax0446a,Ax1080a,Ax0812a,Ax0719a,Ax1140a,Ax0528a,Ax0310a

>  <original SMILES>  (389) 
Cc1n[nH]c2ncc(NC(=O)C(F)(F)c3cnn(C)c3)cc12

>  <rationale>  (389) 
info info set:screening_pocket;halogenbond:P107; hydroph_interaction:P107; pistack:H21; 

>  <experiment>  (389) 
screening_pocket

>  <cluster_label>  (389) 
9

>  <cluster_rank>  (389) 
70

>  <N_interactions>  (389) 
3

>  <∆∆G>  (389) 
-2.302401

>  <comRMSD>  (389) 
0.94083

>  <ROCS_TanimotoCombo>  (389) 
0.642

>  <ROCS_ShapeTanimoto>  (389) 
0.245

>  <ROCS_ColorTanimoto>  (389) 
0.398

$$$$
Z838909264
     RDKit          3D

 18 19  0  0  0  0  0  0  0  0999 V2000
   31.9082   14.0146    9.2680 O   0  0  0  0  0  0  0  0  0  0  0  0
   30.8579   14.6628    9.2067 C   0  0  0  0  0  0  0  0  0  0  0  0
   30.7257   15.8158    9.8947 O   0  0  0  0  0  0  0  0  0  0  0  0
   29.7186   14.2568    8.3065 C   0  0  0  0  0  0  0  0  0  0  0  0
   28.5547   15.0209    8.1241 N   0  0  0  0  0  0  0  0  0  0  0  0
   27.8774   14.1857    7.1859 C   0  0  0  0  0  0  0  0  0  0  0  0
   28.5526   13.0151    6.8249 O   0  0  0  0  0  0  0  0  0  0  0  0
   29.7593   13.0012    7.5209 C   0  0  0  0  0  0  0  0  0  0  0  0
   30.6992   11.8552    7.3178 C   0  0  0  0  0  0  0  0  0  0  0  0
   30.4939   10.5292    7.9833 C   0  0  0  0  0  0  0  0  0  0  0  0
   31.3520    9.4702    7.7462 C   0  0  0  0  0  0  0  0  0  0  0  0
   32.5047    9.6891    6.8180 C   0  0  0  0  0  0  0  0  0  0  0  0
   32.6561   10.9439    6.2575 C   0  0  0  0  0  0  0  0  0  0  0  0
   33.8974   10.9601    5.3779 C   0  0  0  0  0  0  0  0  0  0  0  0
   34.7772   11.9351    5.7322 F   0  0  0  0  0  0  0  0  0  0  0  0
   33.6074   11.2179    4.0801 F   0  0  0  0  0  0  0  0  0  0  0  0
   34.5817    9.7861    5.3793 F   0  0  0  0  0  0  0  0  0  0  0  0
   31.7933   12.0092    6.4791 C   0  0  0  0  0  0  0  0  0  0  0  0
  1  2  2  0
  2  3  1  0
  2  4  1  0
  4  5  1  0
  5  6  2  0
  6  7  1  0
  7  8  1  0
  8  9  1  0
  9 10  2  0
 10 11  1  0
 11 12  2  0
 12 13  1  0
 13 14  1  0
 14 15  1  0
 14 16  1  0
 14 17  1  0
 13 18  2  0
  8  4  2  0
 18  9  1  0
A    1
 O1 
A    2
 C1 
A    3
 O2 
A    4
 C2 
A    5
 N1 
A    6
 C3 
A    7
 O3 
A    8
 C4 
A    9
 C5 
A   10
 C6 
A   11
 C7 
A   12
 C8 
A   13
 C9 
A   14
 C10
A   15
 F1 
A   16
 F2 
A   17
 F3 
A   18
 C11
M  END
>  <ref_pdb>  (390) 
Ax0310a

>  <ref_mols>  (390) 
Ax0446a,Ax1080a,Ax0812a,Ax0719a,Ax1140a,Ax0528a,Ax0310a

>  <original SMILES>  (390) 
O=C(O)c1ncoc1-c1cccc(C(F)(F)F)c1

>  <rationale>  (390) 
info info set:3d;halogenbond:S105; hbond:S87; hydroph_interaction:P107; 

>  <experiment>  (390) 
3d

>  <cluster_label>  (390) 
3

>  <cluster_rank>  (390) 
71

>  <N_interactions>  (390) 
3

>  <∆∆G>  (390) 
-4.738422

>  <comRMSD>  (390) 
0.595645

>  <ROCS_TanimotoCombo>  (390) 
0.347

>  <ROCS_ShapeTanimoto>  (390) 
0.231

>  <ROCS_ColorTanimoto>  (390) 
0.116

$$$$
EN300_231493
     RDKit          3D

 21 23  0  0  0  0  0  0  0  0999 V2000
   36.5355   11.9890    4.7459 C   0  0  0  0  0  0  0  0  0  0  0  0
   35.3808   11.2019    5.0409 O   0  0  0  0  0  0  0  0  0  0  0  0
   34.3544   12.0100    5.4077 C   0  0  0  0  0  0  0  0  0  0  0  0
   34.3392   13.4388    5.1562 O   0  0  0  0  0  0  0  0  0  0  0  0
   33.2117   11.3335    6.1425 C   0  0  0  0  0  0  0  0  0  0  0  0
   33.4675    9.8463    6.1107 C   0  0  0  0  0  0  0  0  0  0  0  0
   32.3439    9.2834    6.8568 N   0  0  0  0  0  0  0  0  0  0  0  0
   31.6732   10.2147    7.1894 N   0  0  0  0  0  0  0  0  0  0  0  0
   30.5393   10.1164    7.9257 C   0  0  0  0  0  0  0  0  0  0  0  0
   30.2027    8.7128    8.3593 C   0  0  0  0  0  0  0  0  0  0  0  0
   28.9173    8.3799    8.1610 F   0  0  0  0  0  0  0  0  0  0  0  0
   30.4278    8.5426    9.6708 F   0  0  0  0  0  0  0  0  0  0  0  0
   29.8600   11.2219    8.1885 C   0  0  0  0  0  0  0  0  0  0  0  0
   30.3231   12.5500    7.6956 C   0  0  0  0  0  0  0  0  0  0  0  0
   29.4658   13.6042    7.9551 C   0  0  0  0  0  0  0  0  0  0  0  0
   28.0025   13.6102    7.7460 C   0  0  0  0  0  0  0  0  0  0  0  0
   27.5907   14.8444    8.1319 C   0  0  0  0  0  0  0  0  0  0  0  0
   28.6795   15.5978    8.5543 C   0  0  0  0  0  0  0  0  0  0  0  0
   29.8635   14.8747    8.4727 O   0  0  0  0  0  0  0  0  0  0  0  0
   31.4153   12.6927    7.0579 N   0  0  0  0  0  0  0  0  0  0  0  0
   32.0848   11.5354    6.7941 C   0  0  0  0  0  0  0  0  0  0  0  0
  1  2  1  0
  2  3  1  0
  3  4  2  0
  3  5  1  0
  5  6  1  0
  6  7  2  0
  7  8  1  0
  8  9  1  0
  9 10  1  0
 10 11  1  0
 10 12  1  0
  9 13  2  0
 13 14  1  0
 14 15  1  0
 15 16  2  0
 16 17  1  0
 17 18  2  0
 18 19  1  0
 14 20  2  0
 20 21  1  0
 21  5  2  0
 21  8  1  0
 19 15  1  0
A    1
 C1 
A    2
 O1 
A    3
 C2 
A    4
 O2 
A    5
 C3 
A    6
 C4 
A    7
 N1 
A    8
 N2 
A    9
 C5 
A   10
 C6 
A   11
 F1 
A   12
 F2 
A   13
 C7 
A   14
 C8 
A   15
 C9 
A   16
 C10
A   17
 C11
A   18
 C12
A   19
 O3 
A   20
 N3 
A   21
 C13
M  END
>  <ref_pdb>  (391) 
Ax0310a

>  <ref_mols>  (391) 
Ax0446a,Ax1080a,Ax0812a,Ax0719a,Ax1140a,Ax0528a,Ax0310a

>  <original SMILES>  (391) 
COC(=O)c1cnn2c(C(F)F)cc(-c3ccco3)nc12

>  <rationale>  (391) 
info info set:bb_whole;halogenbond:P107; hydroph_interaction:Y89; pistack:H21; 

>  <experiment>  (391) 
bb_whole

>  <cluster_label>  (391) 
9

>  <cluster_rank>  (391) 
71

>  <N_interactions>  (391) 
3

>  <∆∆G>  (391) 
-2.375485

>  <comRMSD>  (391) 
0.669601

>  <ROCS_TanimotoCombo>  (391) 
0.417

>  <ROCS_ShapeTanimoto>  (391) 
0.265

>  <ROCS_ColorTanimoto>  (391) 
0.152

$$$$
EN300_801609
     RDKit          3D

 17 18  0  0  0  0  0  0  0  0999 V2000
   29.1961    8.6634   10.2013 C   0  0  0  0  0  0  0  0  0  0  0  0
   29.7597    8.3455    9.0330 C   0  0  0  0  0  0  0  0  0  0  0  0
   29.8533    6.9756    9.1420 C   0  0  0  0  0  0  0  0  0  0  0  0
   28.9463    8.7342    8.0493 C   0  0  0  0  0  0  0  0  0  0  0  0
   31.0643    8.9377    8.8113 C   0  0  0  0  0  0  0  0  0  0  0  0
   31.5937    9.7266    7.6069 C   0  0  0  0  0  0  0  0  0  0  0  0
   32.5086    9.0761    6.8234 N   0  0  0  0  0  0  0  0  0  0  0  0
   33.0499    9.7316    5.7776 C   0  0  0  0  0  0  0  0  0  0  0  0
   33.9962    9.1157    4.9687 C   0  0  0  0  0  0  0  0  0  0  0  0
   34.6894    9.7024    3.7462 C   0  0  0  0  0  0  0  0  0  0  0  0
   34.1816   11.1227    3.5365 C   0  0  0  0  0  0  0  0  0  0  0  0
   33.2460   11.7045    4.3765 C   0  0  0  0  0  0  0  0  0  0  0  0
   32.6891   11.0349    5.4720 C   0  0  0  0  0  0  0  0  0  0  0  0
   31.7494   11.6680    6.2866 C   0  0  0  0  0  0  0  0  0  0  0  0
   31.1749   11.0360    7.3788 C   0  0  0  0  0  0  0  0  0  0  0  0
   30.2291   11.7210    8.1914 N   0  0  0  0  0  0  0  0  0  0  0  0
   29.8738   13.0360    7.8692 N   0  0  0  0  0  0  0  0  0  0  0  0
  1  2  1  0
  2  3  1  0
  2  4  1  0
  2  5  1  0
  5  6  1  0
  6  7  2  0
  7  8  1  0
  8  9  2  0
  9 10  1  0
 10 11  2  0
 11 12  1  0
 12 13  2  0
 13 14  1  0
 14 15  2  0
 15 16  1  0
 16 17  1  0
 15  6  1  0
 13  8  1  0
A    1
 C1 
A    2
 C2 
A    3
 C3 
A    4
 C4 
A    5
 C5 
A    6
 C6 
A    7
 N1 
A    8
 C7 
A    9
 C8 
A   10
 C9 
A   11
 C10
A   12
 C11
A   13
 C12
A   14
 C13
A   15
 C14
A   16
 N2 
A   17
 N3 
M  END
>  <ref_pdb>  (392) 
Ax0310a

>  <ref_mols>  (392) 
Ax0446a,Ax1080a,Ax0812a,Ax0719a,Ax1140a,Ax0528a,Ax0310a

>  <original SMILES>  (392) 
CC(C)(C)Cc1nc2ccccc2cc1NN

>  <rationale>  (392) 
info info set:bb_densepocket2;hbond:S125; hydroph_interaction:P107+V124+D109; 

>  <experiment>  (392) 
bb_densepocket2

>  <cluster_label>  (392) 
3

>  <cluster_rank>  (392) 
72

>  <N_interactions>  (392) 
5

>  <∆∆G>  (392) 
-2.032336

>  <comRMSD>  (392) 
0.420252

>  <ROCS_TanimotoCombo>  (392) 
0.645

>  <ROCS_ShapeTanimoto>  (392) 
0.253

>  <ROCS_ColorTanimoto>  (392) 
0.392

$$$$
Z244478124
     RDKit          3D

 17 17  0  0  0  0  0  0  0  0999 V2000
   27.4128   13.6272    5.9415 C   0  0  0  0  0  0  0  0  0  0  0  0
   27.2676   14.0431    7.2862 O   0  0  0  0  0  0  0  0  0  0  0  0
   28.3941   14.5979    7.8056 C   0  0  0  0  0  0  0  0  0  0  0  0
   28.6310   15.7767    7.6306 O   0  0  0  0  0  0  0  0  0  0  0  0
   29.3543   13.7165    8.6082 C   0  0  2  0  0  0  0  0  0  0  0  0
   30.1401   14.4064    9.7243 C   0  0  0  0  0  0  0  0  0  0  0  0
   30.2453   13.1213    7.7854 N   0  0  0  0  0  0  0  0  0  0  0  0
   30.5458   11.7736    7.9217 C   0  0  0  0  0  0  0  0  0  0  0  0
   29.9459   10.9186    8.7257 O   0  0  0  0  0  0  0  0  0  0  0  0
   31.6569   11.1468    7.0724 C   0  0  0  0  0  0  0  0  0  0  0  0
   32.5979   11.8226    6.1410 C   0  0  0  0  0  0  0  0  0  0  0  0
   33.6155   10.9961    5.3997 C   0  0  0  0  0  0  0  0  0  0  0  0
   33.5922    9.5013    5.6715 C   0  0  0  0  0  0  0  0  0  0  0  0
   34.6155    8.8317    4.8942 O   0  0  0  0  0  0  0  0  0  0  0  0
   32.5957    8.8433    6.6517 C   0  0  0  0  0  0  0  0  0  0  0  0
   31.6768    9.6547    7.3139 C   0  0  0  0  0  0  0  0  0  0  0  0
   30.8172    9.0116    8.1773 O   0  0  0  0  0  0  0  0  0  0  0  0
  1  2  1  0
  2  3  1  0
  3  4  2  0
  3  5  1  0
  5  6  1  1
  5  7  1  0
  7  8  1  0
  8  9  2  0
  8 10  1  0
 10 11  2  0
 11 12  1  0
 12 13  2  0
 13 14  1  0
 13 15  1  0
 15 16  2  0
 16 17  1  0
 16 10  1  0
A    1
 C1 
A    2
 O1 
A    3
 C2 
A    4
 O2 
A    5
 C3 
A    6
 C4 
A    7
 N1 
A    8
 C5 
A    9
 O3 
A   10
 C6 
A   11
 C7 
A   12
 C8 
A   13
 C9 
A   14
 O4 
A   15
 C10
A   16
 C11
A   17
 O5 
M  END
>  <ref_pdb>  (393) 
Ax0310a

>  <ref_mols>  (393) 
Ax0446a,Ax1080a,Ax0812a,Ax0719a,Ax1140a,Ax0528a,Ax0310a

>  <original SMILES>  (393) 
COC(=O)[C@H](C)NC(=O)c1ccc(O)cc1O

>  <rationale>  (393) 
info info set:screening_pocket;hbond:S87+S105; saltbridge:H21; 

>  <experiment>  (393) 
screening_pocket

>  <cluster_label>  (393) 
9

>  <cluster_rank>  (393) 
72

>  <N_interactions>  (393) 
3

>  <∆∆G>  (393) 
-5.408226

>  <comRMSD>  (393) 
0.545207

>  <ROCS_TanimotoCombo>  (393) 
0.642

>  <ROCS_ShapeTanimoto>  (393) 
0.25

>  <ROCS_ColorTanimoto>  (393) 
0.392

$$$$
EN300_175844
     RDKit          3D

 13 13  0  0  0  0  0  0  0  0999 V2000
   28.3918   13.1725    7.8791 C   0  0  0  0  0  0  0  0  0  0  0  0
   29.2503   12.1893    7.3019 O   0  0  0  0  0  0  0  0  0  0  0  0
   30.4375   12.1277    7.9127 C   0  0  0  0  0  0  0  0  0  0  0  0
   30.8691   12.9828    8.9949 O   0  0  0  0  0  0  0  0  0  0  0  0
   31.3200   11.0579    7.3147 C   0  0  0  0  0  0  0  0  0  0  0  0
   32.1944   11.9192    6.4327 C   0  0  0  0  0  0  0  0  0  0  0  0
   33.2548   11.2490    5.6228 C   0  0  0  0  0  0  0  0  0  0  0  0
   34.2670   12.2026    4.6140 Cl  0  0  0  0  0  0  0  0  0  0  0  0
   33.4117    9.7728    5.7117 C   0  0  0  0  0  0  0  0  0  0  0  0
   34.3562    9.0015    5.0302 C   0  0  0  0  0  0  0  0  0  0  0  0
   32.5403    8.9405    6.5808 N   0  0  0  0  0  0  0  0  0  0  0  0
   31.5633    9.5329    7.3322 C   0  0  0  0  0  0  0  0  0  0  0  0
   30.7466    8.6615    8.1630 O   0  0  0  0  0  0  0  0  0  0  0  0
  1  2  1  0
  2  3  1  0
  3  4  2  0
  3  5  1  0
  5  6  2  0
  6  7  1  0
  7  8  1  0
  7  9  2  0
  9 10  1  0
  9 11  1  0
 11 12  2  0
 12 13  1  0
 12  5  1  0
A    1
 C1 
A    2
 O1 
A    3
 C2 
A    4
 O2 
A    5
 C3 
A    6
 C4 
A    7
 C5 
A    8
CL1 
A    9
 C6 
A   10
 C7 
A   11
 N1 
A   12
 C8 
A   13
 O3 
M  END
>  <ref_pdb>  (394) 
Ax0310a

>  <ref_mols>  (394) 
Ax0446a,Ax1080a,Ax0812a,Ax0719a,Ax1140a,Ax0528a,Ax0310a

>  <original SMILES>  (394) 
COC(=O)c1cc(Cl)c(C)nc1O

>  <rationale>  (394) 
info info set:bb_densepocket2;saltbridge:H21; 

>  <experiment>  (394) 
bb_densepocket2

>  <cluster_label>  (394) 
9

>  <cluster_rank>  (394) 
73

>  <N_interactions>  (394) 
1

>  <∆∆G>  (394) 
-4.895105

>  <comRMSD>  (394) 
0.73605

>  <ROCS_TanimotoCombo>  (394) 
0.622

>  <ROCS_ShapeTanimoto>  (394) 
0.247

>  <ROCS_ColorTanimoto>  (394) 
0.374

$$$$
Z56884811
     RDKit          3D

 24 28  0  0  0  0  0  0  0  0999 V2000
   29.4132    8.6442    8.5693 C   0  0  0  0  0  0  0  0  0  0  0  0
   30.7731    8.2365    8.2780 C   0  0  0  0  0  0  0  0  0  0  0  0
   31.4250    9.4378    7.7043 C   0  0  0  0  0  0  0  0  0  0  0  0
   31.0047   10.6064    8.1491 N   0  0  0  0  0  0  0  0  0  0  0  0
   31.6870   11.7737    7.7286 C   0  0  0  0  0  0  0  0  0  0  0  0
   31.1909   12.9822    8.2587 N   0  0  0  0  0  0  0  0  0  0  0  0
   31.8882   13.8866    9.0028 N   0  0  0  0  0  0  0  0  0  0  0  0
   31.0799   14.9164    9.3341 N   0  0  0  0  0  0  0  0  0  0  0  0
   29.8350   14.6864    8.7902 C   0  0  0  0  0  0  0  0  0  0  0  0
   28.5055   15.3888    8.7400 C   0  0  0  0  0  0  0  0  0  0  0  0
   27.5040   14.7384    8.0543 C   0  0  0  0  0  0  0  0  0  0  0  0
   27.6631   13.5013    7.4154 C   0  0  0  0  0  0  0  0  0  0  0  0
   28.8431   12.7248    7.3616 C   0  0  0  0  0  0  0  0  0  0  0  0
   29.8689   13.5271    8.1456 C   0  0  0  0  0  0  0  0  0  0  0  0
   32.7869   11.6144    6.8639 C   0  0  0  0  0  0  0  0  0  0  0  0
   33.7784   12.4643    6.2618 C   0  0  0  0  0  0  0  0  0  0  0  0
   34.6961   11.7193    5.4448 C   0  0  0  0  0  0  0  0  0  0  0  0
   34.3299   10.0739    5.3800 S   0  0  0  0  0  0  0  0  0  0  0  0
   33.0317   10.2996    6.4629 C   0  0  0  0  0  0  0  0  0  0  0  0
   32.3865    9.2140    6.8437 N   0  0  0  0  0  0  0  0  0  0  0  0
   35.8502   12.3559    4.7576 C   0  0  0  0  0  0  0  0  0  0  0  0
   36.3681   13.3443    5.6206 C   0  0  0  0  0  0  0  0  0  0  0  0
   35.3332   14.4414    5.9356 C   0  0  0  0  0  0  0  0  0  0  0  0
   33.9810   13.9339    6.3926 C   0  0  0  0  0  0  0  0  0  0  0  0
  1  2  1  0
  2  3  1  0
  3  4  2  0
  4  5  1  0
  5  6  1  0
  6  7  1  0
  7  8  2  0
  8  9  1  0
  9 10  2  0
 10 11  1  0
 11 12  2  0
 12 13  1  0
 13 14  2  0
  5 15  2  0
 15 16  1  0
 16 17  2  0
 17 18  1  0
 18 19  1  0
 19 20  2  0
 17 21  1  0
 21 22  1  0
 22 23  1  0
 23 24  1  0
 20  3  1  0
 14  6  1  0
 19 15  1  0
 14  9  1  0
 24 16  1  0
A    1
 C1 
A    2
 C2 
A    3
 C3 
A    4
 N1 
A    5
 C4 
A    6
 N2 
A    7
 N3 
A    8
 N4 
A    9
 C5 
A   10
 C6 
A   11
 C7 
A   12
 C8 
A   13
 C9 
A   14
 C10
A   15
 C11
A   16
 C12
A   17
 C13
A   18
 S1 
A   19
 C14
A   20
 N5 
A   21
 C15
A   22
 C16
A   23
 C17
A   24
 C18
M  END
>  <ref_pdb>  (395) 
Ax0310a

>  <ref_mols>  (395) 
Ax0446a,Ax1080a,Ax0812a,Ax0719a,Ax1140a,Ax0528a,Ax0310a

>  <original SMILES>  (395) 
CCc1nc(-n2nnc3ccccc32)c2c3c(sc2n1)CCCC3

>  <rationale>  (395) 
info info set:screening_whole;hbond:S87+S105; hydroph_interaction:Y89+Y90+V124; 

>  <experiment>  (395) 
screening_whole

>  <cluster_label>  (395) 
3

>  <cluster_rank>  (395) 
73

>  <N_interactions>  (395) 
5

>  <∆∆G>  (395) 
-7.144311

>  <comRMSD>  (395) 
0.69873

>  <ROCS_TanimotoCombo>  (395) 
0.461

>  <ROCS_ShapeTanimoto>  (395) 
0.275

>  <ROCS_ColorTanimoto>  (395) 
0.187

$$$$
EN300_910972
     RDKit          3D

 14 14  0  0  0  0  0  0  0  0999 V2000
   29.7811    8.1899   10.4068 C   0  0  0  0  0  0  0  0  0  0  0  0
   29.9866    8.5641    9.0766 C   0  0  0  0  0  0  0  0  0  0  0  0
   29.6571    7.2994    8.5646 C   0  0  0  0  0  0  0  0  0  0  0  0
   28.9655    9.5846    8.6789 C   0  0  0  0  0  0  0  0  0  0  0  0
   31.2587    8.9649    8.6746 O   0  0  0  0  0  0  0  0  0  0  0  0
   31.2014   10.2053    8.1577 C   0  0  0  0  0  0  0  0  0  0  0  0
   30.5379   11.1217    8.5922 O   0  0  0  0  0  0  0  0  0  0  0  0
   32.0863   10.3633    6.9636 C   0  0  0  0  0  0  0  0  0  0  0  0
   31.9375   11.7619    6.4670 C   0  0  0  0  0  0  0  0  0  0  0  0
   32.7315   12.0115    5.3693 C   0  0  0  0  0  0  0  0  0  0  0  0
   33.6583   10.9485    4.7515 C   0  0  0  0  0  0  0  0  0  0  0  0
   33.6105    9.7163    5.4100 C   0  0  0  0  0  0  0  0  0  0  0  0
   34.4693    8.6606    4.8889 N   0  0  0  0  0  0  0  0  0  0  0  0
   32.8652    9.3986    6.4708 N   0  0  0  0  0  0  0  0  0  0  0  0
  1  2  1  0
  2  3  1  0
  2  4  1  0
  2  5  1  0
  5  6  1  0
  6  7  2  0
  6  8  1  0
  8  9  2  0
  9 10  1  0
 10 11  2  0
 11 12  1  0
 12 13  1  0
 12 14  2  0
 14  8  1  0
A    1
 C1 
A    2
 C2 
A    3
 C3 
A    4
 C4 
A    5
 O1 
A    6
 C5 
A    7
 O2 
A    8
 C6 
A    9
 C7 
A   10
 C8 
A   11
 C9 
A   12
 C10
A   13
 N1 
A   14
 N2 
M  END
>  <ref_pdb>  (396) 
Ax0310a

>  <ref_mols>  (396) 
Ax0446a,Ax1080a,Ax0812a,Ax0719a,Ax1140a,Ax0528a,Ax0310a

>  <original SMILES>  (396) 
CC(C)(C)OC(=O)c1cccc(N)n1

>  <rationale>  (396) 
info info set:bb_densepocket2;hbond:S105; hydroph_interaction:P107+V124+D109; 

>  <experiment>  (396) 
bb_densepocket2

>  <cluster_label>  (396) 
3

>  <cluster_rank>  (396) 
74

>  <N_interactions>  (396) 
4

>  <∆∆G>  (396) 
-3.32865

>  <comRMSD>  (396) 
0.636567

>  <ROCS_TanimotoCombo>  (396) 
0.64

>  <ROCS_ShapeTanimoto>  (396) 
0.215

>  <ROCS_ColorTanimoto>  (396) 
0.425

$$$$
Z359297640
     RDKit          3D

 13 13  0  0  0  0  0  0  0  0999 V2000
   28.6045   14.5697    8.1464 C   0  0  0  0  0  0  0  0  0  0  0  0
   28.5924   13.0569    8.0232 C   0  0  0  0  0  0  0  0  0  0  0  0
   29.7793   12.5747    7.3683 O   0  0  0  0  0  0  0  0  0  0  0  0
   30.3095   11.4319    7.8830 C   0  0  0  0  0  0  0  0  0  0  0  0
   29.9364   10.8552    8.8473 O   0  0  0  0  0  0  0  0  0  0  0  0
   31.4391   10.8552    7.1410 C   0  0  0  0  0  0  0  0  0  0  0  0
   32.4023   11.6528    6.2783 C   0  0  0  0  0  0  0  0  0  0  0  0
   33.5041   10.9440    5.5858 C   0  0  0  0  0  0  0  0  0  0  0  0
   33.6532    9.4769    5.7402 C   0  0  0  0  0  0  0  0  0  0  0  0
   34.6621    8.7518    5.1390 N   0  0  0  0  0  0  0  0  0  0  0  0
   35.1023    9.2247    3.8565 C   0  0  0  0  0  0  0  0  0  0  0  0
   32.8248    8.7484    6.4868 N   0  0  0  0  0  0  0  0  0  0  0  0
   31.7781    9.3444    7.1604 C   0  0  0  0  0  0  0  0  0  0  0  0
  1  2  1  0
  2  3  1  0
  3  4  1  0
  4  5  2  0
  4  6  1  0
  6  7  2  0
  7  8  1  0
  8  9  2  0
  9 10  1  0
 10 11  1  0
  9 12  1  0
 12 13  2  0
 13  6  1  0
A    1
 C1 
A    2
 C2 
A    3
 O1 
A    4
 C3 
A    5
 O2 
A    6
 C4 
A    7
 C5 
A    8
 C6 
A    9
 C7 
A   10
 N1 
A   11
 C8 
A   12
 N2 
A   13
 C9 
M  END
>  <ref_pdb>  (397) 
Ax0310a

>  <ref_mols>  (397) 
Ax0446a,Ax1080a,Ax0812a,Ax0719a,Ax1140a,Ax0528a,Ax0310a

>  <original SMILES>  (397) 
CCOC(=O)c1ccc(NC)nc1

>  <rationale>  (397) 
info info set:screening_pocket;hbond:S105; hydroph_interaction:P107; saltbridge:H21; 

>  <experiment>  (397) 
screening_pocket

>  <cluster_label>  (397) 
9

>  <cluster_rank>  (397) 
74

>  <N_interactions>  (397) 
3

>  <∆∆G>  (397) 
-4.242208

>  <comRMSD>  (397) 
0.650767

>  <ROCS_TanimotoCombo>  (397) 
0.636

>  <ROCS_ShapeTanimoto>  (397) 
0.231

>  <ROCS_ColorTanimoto>  (397) 
0.405

$$$$
Z99347664
     RDKit          3D

 33 38  0  0  0  0  0  0  0  0999 V2000
   27.0493   13.1879    6.6167 C   0  0  0  0  0  0  0  0  0  0  0  0
   27.9452   13.7382    7.6864 C   0  0  0  0  0  0  0  0  0  0  0  0
   27.4154   14.3500    8.7947 O   0  0  0  0  0  0  0  0  0  0  0  0
   28.4785   14.7183    9.5926 C   0  0  0  0  0  0  0  0  0  0  0  0
   28.4146   15.2988   10.8097 N   0  0  0  0  0  0  0  0  0  0  0  0
   29.6270   15.8124   11.1920 C   0  0  0  0  0  0  0  0  0  0  0  0
   30.7140   15.7752   10.4531 N   0  0  0  0  0  0  0  0  0  0  0  0
   31.7476   16.5007   10.9465 C   0  0  0  0  0  0  0  0  0  0  0  0
   30.8867   14.7079    9.5809 C   0  0  0  0  0  0  0  0  0  0  0  0
   31.9511   14.1566    9.3703 O   0  0  0  0  0  0  0  0  0  0  0  0
   29.6666   14.3810    8.9642 C   0  0  0  0  0  0  0  0  0  0  0  0
   29.2991   13.7442    7.7959 C   0  0  0  0  0  0  0  0  0  0  0  0
   30.3197   13.2176    6.9467 C   0  0  0  0  0  0  0  0  0  0  0  0
   30.0774   13.0716    5.5548 O   0  0  0  0  0  0  0  0  0  0  0  0
   31.4438   12.9392    7.6829 N   0  0  0  0  0  0  0  0  0  0  0  0
   31.9165   11.8138    7.3017 C   0  0  0  0  0  0  0  0  0  0  0  0
   31.3993   10.5342    7.7048 C   0  0  0  0  0  0  0  0  0  0  0  0
   30.2888   10.3708    8.5658 C   0  0  0  0  0  0  0  0  0  0  0  0
   30.0209    8.9465    8.8289 C   0  0  0  0  0  0  0  0  0  0  0  0
   30.7455    8.0240    8.2812 C   0  0  0  0  0  0  0  0  0  0  0  0
   31.8146    8.3190    7.4394 C   0  0  0  0  0  0  0  0  0  0  0  0
   32.1648    9.5781    7.1288 C   0  0  0  0  0  0  0  0  0  0  0  0
   33.1619   10.2388    6.3336 N   0  0  0  0  0  0  0  0  0  0  0  0
   34.2742    9.9212    5.4541 C   0  0  0  0  0  0  0  0  0  0  0  0
   34.7016    8.5938    5.1108 C   0  0  0  0  0  0  0  0  0  0  0  0
   35.0395   10.7702    4.8727 N   0  0  0  0  0  0  0  0  0  0  0  0
   34.8343   12.0932    5.1056 C   0  0  0  0  0  0  0  0  0  0  0  0
   35.6843   13.0141    4.5270 C   0  0  0  0  0  0  0  0  0  0  0  0
   35.4928   14.3564    4.7877 C   0  0  0  0  0  0  0  0  0  0  0  0
   34.4577   14.7311    5.6189 C   0  0  0  0  0  0  0  0  0  0  0  0
   33.6257   13.8071    6.1696 C   0  0  0  0  0  0  0  0  0  0  0  0
   33.8139   12.5106    5.9131 C   0  0  0  0  0  0  0  0  0  0  0  0
   32.9569   11.5893    6.5143 C   0  0  0  0  0  0  0  0  0  0  0  0
  1  2  1  0
  2  3  1  0
  3  4  1  0
  4  5  1  0
  5  6  2  0
  6  7  1  0
  7  8  1  0
  7  9  1  0
  9 10  2  0
  9 11  1  0
 11 12  1  0
 12 13  1  0
 13 14  2  0
 13 15  1  0
 15 16  1  0
 16 17  1  0
 17 18  2  0
 18 19  1  0
 19 20  2  0
 20 21  1  0
 21 22  2  0
 22 23  1  0
 23 24  1  0
 24 25  1  0
 24 26  2  0
 26 27  1  0
 27 28  2  0
 28 29  1  0
 29 30  2  0
 30 31  1  0
 31 32  2  0
 32 33  1  0
 12  2  2  0
 33 16  2  0
 11  4  2  0
 22 17  1  0
 33 23  1  0
 32 27  1  0
A    1
 C1 
A    2
 C2 
A    3
 O1 
A    4
 C3 
A    5
 N1 
A    6
 C4 
A    7
 N2 
A    8
 C5 
A    9
 C6 
A   10
 O2 
A   11
 C7 
A   12
 C8 
A   13
 C9 
A   14
 O3 
A   15
 N3 
A   16
 C10
A   17
 C11
A   18
 C12
A   19
 C13
A   20
 C14
A   21
 C15
A   22
 C16
A   23
 N4 
A   24
 C17
A   25
 C18
A   26
 N5 
A   27
 C19
A   28
 C20
A   29
 C21
A   30
 C22
A   31
 C23
A   32
 C24
A   33
 C25
M  END
>  <ref_pdb>  (398) 
Ax0310a

>  <ref_mols>  (398) 
Ax0446a,Ax1080a,Ax0812a,Ax0719a,Ax1140a,Ax0528a,Ax0310a

>  <original SMILES>  (398) 
Cc1oc2ncn(C)c(=O)c2c1C(=O)Nc1c2ccccc2n2c(C)nc3ccccc3c12

>  <rationale>  (398) 
info info set:screening_whole;hbond:S87; hydroph_interaction:Y89+V124; pistack:H21; 

>  <experiment>  (398) 
screening_whole

>  <cluster_label>  (398) 
3

>  <cluster_rank>  (398) 
75

>  <N_interactions>  (398) 
4

>  <∆∆G>  (398) 
-6.180115

>  <comRMSD>  (398) 
0.979511

>  <ROCS_TanimotoCombo>  (398) 
0.476

>  <ROCS_ShapeTanimoto>  (398) 
0.295

>  <ROCS_ColorTanimoto>  (398) 
0.181

$$$$
EN300_362627
     RDKit          3D

 16 16  0  0  0  0  0  0  0  0999 V2000
   34.8095    9.0434    3.8712 N   0  0  0  0  0  0  0  0  0  0  0  0
   34.4062    8.7045    5.1883 N   0  0  0  0  0  0  0  0  0  0  0  0
   33.4074    9.5161    5.7744 C   0  0  0  0  0  0  0  0  0  0  0  0
   33.3757   10.9461    5.3139 C   0  0  0  0  0  0  0  0  0  0  0  0
   32.3484   11.8805    5.8811 C   0  0  0  0  0  0  0  0  0  0  0  0
   31.3801   11.3143    6.9083 C   0  0  0  0  0  0  0  0  0  0  0  0
   30.3496   12.3254    7.4451 C   0  0  0  0  0  0  0  0  0  0  0  0
   29.1205   11.8295    7.6312 F   0  0  0  0  0  0  0  0  0  0  0  0
   30.7397   12.9220    8.5948 F   0  0  0  0  0  0  0  0  0  0  0  0
   30.1509   13.3416    6.5664 F   0  0  0  0  0  0  0  0  0  0  0  0
   31.5531    9.7746    7.2939 C   0  0  0  0  0  0  0  0  0  0  0  0
   30.6700    9.1004    8.3216 C   0  0  0  0  0  0  0  0  0  0  0  0
   31.2851    8.1341    9.0285 F   0  0  0  0  0  0  0  0  0  0  0  0
   30.2400    9.9970    9.1858 F   0  0  0  0  0  0  0  0  0  0  0  0
   29.5369    8.5094    7.9490 F   0  0  0  0  0  0  0  0  0  0  0  0
   32.5363    9.0044    6.7079 N   0  0  0  0  0  0  0  0  0  0  0  0
  1  2  1  0
  2  3  1  0
  3  4  2  0
  4  5  1  0
  5  6  2  0
  6  7  1  0
  7  8  1  0
  7  9  1  0
  7 10  1  0
  6 11  1  0
 11 12  1  0
 12 13  1  0
 12 14  1  0
 12 15  1  0
 11 16  2  0
 16  3  1  0
A    1
 N1 
A    2
 N2 
A    3
 C1 
A    4
 C2 
A    5
 C3 
A    6
 C4 
A    7
 C5 
A    8
 F1 
A    9
 F2 
A   10
 F3 
A   11
 C6 
A   12
 C7 
A   13
 F4 
A   14
 F5 
A   15
 F6 
A   16
 N3 
M  END
>  <ref_pdb>  (399) 
Ax0310a

>  <ref_mols>  (399) 
Ax0446a,Ax1080a,Ax0812a,Ax0719a,Ax1140a,Ax0528a,Ax0310a

>  <original SMILES>  (399) 
NNc1ccc(C(F)(F)F)c(C(F)(F)F)n1

>  <rationale>  (399) 
info info set:bb_densepocket2;halogenbond:P107; hbond:S105; hydroph_interaction:P107; 

>  <experiment>  (399) 
bb_densepocket2

>  <cluster_label>  (399) 
9

>  <cluster_rank>  (399) 
75

>  <N_interactions>  (399) 
3

>  <∆∆G>  (399) 
-0.099488

>  <comRMSD>  (399) 
0.744391

>  <ROCS_TanimotoCombo>  (399) 
0.616

>  <ROCS_ShapeTanimoto>  (399) 
0.279

>  <ROCS_ColorTanimoto>  (399) 
0.337

$$$$
Z1375739966
     RDKit          3D

 16 16  0  0  0  0  0  0  0  0999 V2000
   27.0605   14.2065    6.7730 C   0  0  0  0  0  0  0  0  0  0  0  0
   28.0106   14.8648    7.7539 C   0  0  0  0  0  0  0  0  0  0  0  0
   28.7376   16.0877    7.4639 O   0  0  0  0  0  0  0  0  0  0  0  0
   28.1515   14.0726    8.9517 C   0  0  0  0  0  0  0  0  0  0  0  0
   29.6108   13.8296    8.9088 C   0  0  0  0  0  0  0  0  0  0  0  0
   29.7230   12.7877    7.7975 C   0  0  0  0  0  0  0  0  0  0  0  0
   29.4172   13.0610    6.6476 O   0  0  0  0  0  0  0  0  0  0  0  0
   30.1760   11.5804    8.1877 N   0  0  0  0  0  0  0  0  0  0  0  0
   31.1504   11.0519    7.4288 C   0  0  0  0  0  0  0  0  0  0  0  0
   31.8490   12.0282    6.4925 C   0  0  0  0  0  0  0  0  0  0  0  0
   32.8395   11.0644    5.8364 C   0  0  0  0  0  0  0  0  0  0  0  0
   33.0387    9.7157    6.0315 C   0  0  0  0  0  0  0  0  0  0  0  0
   34.0365    9.1153    5.2795 C   0  0  0  0  0  0  0  0  0  0  0  0
   32.3299    9.0073    6.8969 N   0  0  0  0  0  0  0  0  0  0  0  0
   31.4114    9.6911    7.5689 C   0  0  0  0  0  0  0  0  0  0  0  0
   30.5849    8.8915    8.5812 C   0  0  0  0  0  0  0  0  0  0  0  0
  1  2  1  0
  2  3  2  0
  2  4  1  0
  4  5  1  0
  5  6  1  0
  6  7  2  0
  6  8  1  0
  8  9  1  0
  9 10  2  0
 10 11  1  0
 11 12  2  0
 12 13  1  0
 12 14  1  0
 14 15  2  0
 15 16  1  0
 15  9  1  0
A    1
 C1 
A    2
 C2 
A    3
 O1 
A    4
 C3 
A    5
 C4 
A    6
 C5 
A    7
 O2 
A    8
 N1 
A    9
 C6 
A   10
 C7 
A   11
 C8 
A   12
 C9 
A   13
 C10
A   14
 N2 
A   15
 C11
A   16
 C12
M  END
>  <ref_pdb>  (400) 
Ax0310a

>  <ref_mols>  (400) 
Ax0446a,Ax1080a,Ax0812a,Ax0719a,Ax1140a,Ax0528a,Ax0310a

>  <original SMILES>  (400) 
CC(=O)CCC(=O)Nc1ccc(C)nc1C

>  <rationale>  (400) 
info info set:screening_pocket;hbond:S87+S125+Y90; hydroph_interaction:P107+Y89+V124; 

>  <experiment>  (400) 
screening_pocket

>  <cluster_label>  (400) 
3

>  <cluster_rank>  (400) 
76

>  <N_interactions>  (400) 
6

>  <∆∆G>  (400) 
-8.952704

>  <comRMSD>  (400) 
0.622972

>  <ROCS_TanimotoCombo>  (400) 
0.645

>  <ROCS_ShapeTanimoto>  (400) 
0.234

>  <ROCS_ColorTanimoto>  (400) 
0.411

$$$$
Z1552953101
     RDKit          3D

 17 18  0  0  0  0  0  0  0  0999 V2000
   26.5030   13.9614    6.0310 C   0  0  0  0  0  0  0  0  0  0  0  0
   27.8072   13.5160    6.3202 O   0  0  0  0  0  0  0  0  0  0  0  0
   28.5453   14.2305    7.2106 C   0  0  0  0  0  0  0  0  0  0  0  0
   28.6661   15.6673    7.1801 O   0  0  0  0  0  0  0  0  0  0  0  0
   29.1817   13.5662    8.2065 C   0  0  0  0  0  0  0  0  0  0  0  0
   30.2413   12.7847    7.7691 N   0  0  0  0  0  0  0  0  0  0  0  0
   30.4967   11.4690    7.9920 C   0  0  0  0  0  0  0  0  0  0  0  0
   30.0066   10.6416    8.8940 O   0  0  0  0  0  0  0  0  0  0  0  0
   31.4145   10.8420    7.1886 C   0  0  0  0  0  0  0  0  0  0  0  0
   31.6820    9.4167    7.4218 C   0  0  0  0  0  0  0  0  0  0  0  0
   32.5582    8.7195    6.6945 N   0  0  0  0  0  0  0  0  0  0  0  0
   33.1796    9.4118    5.7206 C   0  0  0  0  0  0  0  0  0  0  0  0
   32.9974   10.7551    5.4134 C   0  0  0  0  0  0  0  0  0  0  0  0
   33.6735   11.3225    4.4108 F   0  0  0  0  0  0  0  0  0  0  0  0
   32.0954   11.4865    6.1698 C   0  0  0  0  0  0  0  0  0  0  0  0
   28.1959   13.4930    9.3519 C   0  0  0  0  0  0  0  0  0  0  0  0
   29.4367   14.2835    9.5195 C   0  0  0  0  0  0  0  0  0  0  0  0
  1  2  1  0
  2  3  1  0
  3  4  2  0
  3  5  1  0
  5  6  1  0
  6  7  1  0
  7  8  2  0
  7  9  1  0
  9 10  2  0
 10 11  1  0
 11 12  2  0
 12 13  1  0
 13 14  1  0
 13 15  2  0
  5 16  1  0
 16 17  1  0
 17  5  1  0
 15  9  1  0
A    1
 C1 
A    2
 O1 
A    3
 C2 
A    4
 O2 
A    5
 C3 
A    6
 N1 
A    7
 C4 
A    8
 O3 
A    9
 C5 
A   10
 C6 
A   11
 N2 
A   12
 C7 
A   13
 C8 
A   14
 F1 
A   15
 C9 
A   16
 C10
A   17
 C11
M  END
>  <ref_pdb>  (401) 
Ax0310a

>  <ref_mols>  (401) 
Ax0446a,Ax1080a,Ax0812a,Ax0719a,Ax1140a,Ax0528a,Ax0310a

>  <original SMILES>  (401) 
COC(=O)C1(NC(=O)c2cncc(F)c2)CC1

>  <rationale>  (401) 
info info set:screening_pocket;hydroph_interaction:P107; saltbridge:H21; 

>  <experiment>  (401) 
screening_pocket

>  <cluster_label>  (401) 
9

>  <cluster_rank>  (401) 
76

>  <N_interactions>  (401) 
2

>  <∆∆G>  (401) 
-3.213999

>  <comRMSD>  (401) 
0.68345

>  <ROCS_TanimotoCombo>  (401) 
0.638

>  <ROCS_ShapeTanimoto>  (401) 
0.214

>  <ROCS_ColorTanimoto>  (401) 
0.424

$$$$
EN300_801243
     RDKit          3D

 17 18  0  0  0  0  0  0  0  0999 V2000
   29.1550    7.5538    8.5313 C   0  0  0  0  0  0  0  0  0  0  0  0
   29.5839    8.8914    8.6961 C   0  0  0  0  0  0  0  0  0  0  0  0
   29.2163    8.7143   10.0597 C   0  0  0  0  0  0  0  0  0  0  0  0
   28.8201   10.1428    8.3742 C   0  0  0  0  0  0  0  0  0  0  0  0
   31.0414    9.0103    8.5699 C   0  0  0  0  0  0  0  0  0  0  0  0
   31.6190    9.8677    7.5097 C   0  0  0  0  0  0  0  0  0  0  0  0
   32.5246    9.2870    6.6493 N   0  0  0  0  0  0  0  0  0  0  0  0
   33.1029   10.0002    5.6287 C   0  0  0  0  0  0  0  0  0  0  0  0
   34.1410    9.3667    4.6282 C   0  0  0  0  0  0  0  0  0  0  0  0
   34.5884    8.1445    4.6412 F   0  0  0  0  0  0  0  0  0  0  0  0
   34.7362   10.1821    3.4977 C   0  0  0  0  0  0  0  0  0  0  0  0
   34.2818   11.6207    3.4065 C   0  0  0  0  0  0  0  0  0  0  0  0
   33.2911   12.1566    4.4280 C   0  0  0  0  0  0  0  0  0  0  0  0
   32.7690   11.3633    5.4457 C   0  0  0  0  0  0  0  0  0  0  0  0
   31.8725   11.9751    6.3051 C   0  0  0  0  0  0  0  0  0  0  0  0
   31.2495   11.1912    7.4193 C   0  0  0  0  0  0  0  0  0  0  0  0
   30.3770   11.9123    8.2061 O   0  0  0  0  0  0  0  0  0  0  0  0
  1  2  1  0
  2  3  1  0
  2  4  1  0
  2  5  1  0
  5  6  1  0
  6  7  2  0
  7  8  1  0
  8  9  2  0
  9 10  1  0
  9 11  1  0
 11 12  2  0
 12 13  1  0
 13 14  2  0
 14 15  1  0
 15 16  2  0
 16 17  1  0
 16  6  1  0
 14  8  1  0
A    1
 C1 
A    2
 C2 
A    3
 C3 
A    4
 C4 
A    5
 C5 
A    6
 C6 
A    7
 N1 
A    8
 C7 
A    9
 C8 
A   10
 F1 
A   11
 C9 
A   12
 C10
A   13
 C11
A   14
 C12
A   15
 C13
A   16
 C14
A   17
 O1 
M  END
>  <ref_pdb>  (402) 
Ax0310a

>  <ref_mols>  (402) 
Ax0446a,Ax1080a,Ax0812a,Ax0719a,Ax1140a,Ax0528a,Ax0310a

>  <original SMILES>  (402) 
CC(C)(C)Cc1nc2c(F)cccc2cc1O

>  <rationale>  (402) 
info info set:bb_densepocket2;hbond:S125; hydroph_interaction:P107+V124+D109; 

>  <experiment>  (402) 
bb_densepocket2

>  <cluster_label>  (402) 
3

>  <cluster_rank>  (402) 
77

>  <N_interactions>  (402) 
4

>  <∆∆G>  (402) 
-1.678101

>  <comRMSD>  (402) 
0.963773

>  <ROCS_TanimotoCombo>  (402) 
0.649

>  <ROCS_ShapeTanimoto>  (402) 
0.243

>  <ROCS_ColorTanimoto>  (402) 
0.406

$$$$
EN300_6509965
     RDKit          3D

 14 14  0  0  0  0  0  0  0  0999 V2000
   28.5891   14.5907    8.1984 C   0  0  0  0  0  0  0  0  0  0  0  0
   28.6087   13.0913    7.9939 C   0  0  0  0  0  0  0  0  0  0  0  0
   29.8685   12.7207    7.4115 O   0  0  0  0  0  0  0  0  0  0  0  0
   30.3598   11.5530    7.8906 C   0  0  0  0  0  0  0  0  0  0  0  0
   29.9552   10.9902    8.8369 O   0  0  0  0  0  0  0  0  0  0  0  0
   31.4560   10.9320    7.1146 C   0  0  0  0  0  0  0  0  0  0  0  0
   32.4293   11.5556    6.0903 C   0  0  0  0  0  0  0  0  0  0  0  0
   31.8652   13.0195    6.2005 C   0  0  0  0  0  0  0  0  0  0  0  0
   33.4135   10.9164    5.3929 C   0  0  0  0  0  0  0  0  0  0  0  0
   33.5415    9.4287    5.6768 C   0  0  0  0  0  0  0  0  0  0  0  0
   34.5095    8.6998    5.0073 N   0  0  0  0  0  0  0  0  0  0  0  0
   32.7483    8.7674    6.5741 N   0  0  0  0  0  0  0  0  0  0  0  0
   31.7526    9.4511    7.2781 C   0  0  0  0  0  0  0  0  0  0  0  0
   30.8624    8.7458    8.3119 C   0  0  0  0  0  0  0  0  0  0  0  0
  1  2  1  0
  2  3  1  0
  3  4  1  0
  4  5  2  0
  4  6  1  0
  6  7  2  0
  7  8  1  0
  7  9  1  0
  9 10  2  0
 10 11  1  0
 10 12  1  0
 12 13  2  0
 13 14  1  0
 13  6  1  0
A    1
 C1 
A    2
 C2 
A    3
 O1 
A    4
 C3 
A    5
 O2 
A    6
 C4 
A    7
 C5 
A    8
 C6 
A    9
 C7 
A   10
 C8 
A   11
 N1 
A   12
 N2 
A   13
 C9 
A   14
 C10
M  END
>  <ref_pdb>  (403) 
Ax0310a

>  <ref_mols>  (403) 
Ax0446a,Ax1080a,Ax0812a,Ax0719a,Ax1140a,Ax0528a,Ax0310a

>  <original SMILES>  (403) 
CCOC(=O)c1c(C)cc(N)nc1C

>  <rationale>  (403) 
info info set:bb_densepocket2;hbond:S105; hydroph_interaction:P107; saltbridge:H21; 

>  <experiment>  (403) 
bb_densepocket2

>  <cluster_label>  (403) 
9

>  <cluster_rank>  (403) 
77

>  <N_interactions>  (403) 
3

>  <∆∆G>  (403) 
-6.443832

>  <comRMSD>  (403) 
0.603217

>  <ROCS_TanimotoCombo>  (403) 
0.615

>  <ROCS_ShapeTanimoto>  (403) 
0.253

>  <ROCS_ColorTanimoto>  (403) 
0.362

$$$$
Z2394925440
     RDKit          3D

 18 19  0  0  0  0  0  0  0  0999 V2000
   34.7208    8.9943    3.8334 C   0  0  0  0  0  0  0  0  0  0  0  0
   34.3783    8.7094    5.2028 N   0  0  0  0  0  0  0  0  0  0  0  0
   33.4384    9.4941    5.8601 C   0  0  0  0  0  0  0  0  0  0  0  0
   33.3972   11.0123    5.7370 C   0  0  0  0  0  0  0  0  0  0  0  0
   32.2949   11.6591    6.5497 C   0  0  0  0  0  0  0  0  0  0  0  0
   31.3526   10.8020    7.3884 C   0  0  0  0  0  0  0  0  0  0  0  0
   30.3504   11.4152    8.1215 N   0  0  0  0  0  0  0  0  0  0  0  0
   29.9945   12.7235    7.9515 C   0  0  0  0  0  0  0  0  0  0  0  0
   30.6656   13.5407    7.3411 O   0  0  0  0  0  0  0  0  0  0  0  0
   28.6724   13.1432    8.5643 C   0  0  0  0  0  0  0  0  0  0  0  0
   28.6954   14.3733    9.0978 N   0  0  0  0  0  0  0  0  0  0  0  0
   29.4462   14.7353   10.2980 C   0  0  0  0  0  0  0  0  0  0  0  0
   30.2511   15.9449    9.8513 C   0  0  0  0  0  0  0  0  0  0  0  0
   29.0967   16.5425    9.0167 C   0  0  0  0  0  0  0  0  0  0  0  0
   28.6198   15.3905    8.2315 C   0  0  0  0  0  0  0  0  0  0  0  0
   28.2629   15.3298    7.0956 O   0  0  0  0  0  0  0  0  0  0  0  0
   31.5749    9.4398    7.3485 C   0  0  0  0  0  0  0  0  0  0  0  0
   32.5549    8.8189    6.6291 N   0  0  0  0  0  0  0  0  0  0  0  0
  1  2  1  0
  2  3  1  0
  3  4  2  0
  4  5  1  0
  5  6  2  0
  6  7  1  0
  7  8  1  0
  8  9  2  0
  8 10  1  0
 10 11  1  0
 11 12  1  0
 12 13  1  0
 13 14  1  0
 14 15  1  0
 15 16  2  0
  6 17  1  0
 17 18  2  0
 18  3  1  0
 15 11  1  0
A    1
 C1 
A    2
 N1 
A    3
 C2 
A    4
 C3 
A    5
 C4 
A    6
 C5 
A    7
 N2 
A    8
 C6 
A    9
 O1 
A   10
 C7 
A   11
 N3 
A   12
 C8 
A   13
 C9 
A   14
 C10
A   15
 C11
A   16
 O2 
A   17
 C12
A   18
 N4 
M  END
>  <ref_pdb>  (404) 
Ax0310a

>  <ref_mols>  (404) 
Ax0446a,Ax1080a,Ax0812a,Ax0719a,Ax1140a,Ax0528a,Ax0310a

>  <original SMILES>  (404) 
CNc1ccc(NC(=O)CN2CCCC2=O)cn1

>  <rationale>  (404) 
info info set:screening_pocket;hbond:S87+S105+S125+G127; hydroph_interaction:Y89+Y90; 

>  <experiment>  (404) 
screening_pocket

>  <cluster_label>  (404) 
3

>  <cluster_rank>  (404) 
78

>  <N_interactions>  (404) 
6

>  <∆∆G>  (404) 
-4.425111

>  <comRMSD>  (404) 
0.476043

>  <ROCS_TanimotoCombo>  (404) 
0.653

>  <ROCS_ShapeTanimoto>  (404) 
0.221

>  <ROCS_ColorTanimoto>  (404) 
0.433

$$$$
EN300_37102300
     RDKit          3D

 26 28  0  0  0  0  0  0  0  0999 V2000
   34.7587   14.5418    4.8893 C   0  0  0  0  0  0  0  0  0  0  0  0
   33.6230   14.1424    5.6399 O   0  0  0  0  0  0  0  0  0  0  0  0
   33.4475   12.8063    5.7986 C   0  0  0  0  0  0  0  0  0  0  0  0
   34.3021   11.8698    5.0329 C   0  0  0  0  0  0  0  0  0  0  0  0
   34.0940   10.3766    5.2217 C   0  0  0  0  0  0  0  0  0  0  0  0
   32.9660   10.0158    6.2317 C   0  0  0  0  0  0  0  0  0  0  0  0
   32.5389    8.5162    6.6480 Cl  0  0  0  0  0  0  0  0  0  0  0  0
   32.1970   10.8803    6.9113 C   0  0  0  0  0  0  0  0  0  0  0  0
   32.4823   12.3140    6.6625 C   0  0  0  0  0  0  0  0  0  0  0  0
   31.6534   13.1585    7.4319 N   0  0  0  0  0  0  0  0  0  0  0  0
   32.2116   13.5916    8.6159 C   0  0  0  0  0  0  0  0  0  0  0  0
   31.5227   14.3299    9.5187 O   0  0  0  0  0  0  0  0  0  0  0  0
   33.5774   13.2100    8.7843 O   0  0  0  0  0  0  0  0  0  0  0  0
   34.4304   14.3408    8.8787 C   0  0  0  0  0  0  0  0  0  0  0  0
   33.6705   15.2128    9.6658 C   0  0  0  0  0  0  0  0  0  0  0  0
   34.8073   14.8014    7.4807 C   0  0  0  0  0  0  0  0  0  0  0  0
   35.7538   13.8933    9.5076 C   0  0  0  0  0  0  0  0  0  0  0  0
   30.2395   12.7476    7.5338 C   0  0  1  0  0  0  0  0  0  0  0  0
   29.3106   13.0610    6.4106 C   0  0  0  0  0  0  0  0  0  0  0  0
   29.6298   13.2963    5.2662 O   0  0  0  0  0  0  0  0  0  0  0  0
   28.0201   13.0660    6.7828 O   0  0  0  0  0  0  0  0  0  0  0  0
   30.0864   11.4281    8.2161 C   0  0  1  0  0  0  0  0  0  0  0  0
   28.7601   10.6755    8.4011 C   0  0  0  0  0  0  0  0  0  0  0  0
   29.1800    9.2388    8.2985 C   0  0  0  0  0  0  0  0  0  0  0  0
   30.4722    9.1168    7.9748 C   0  0  0  0  0  0  0  0  0  0  0  0
   31.1416   10.4460    7.8773 C   0  0  1  0  0  0  0  0  0  0  0  0
  1  2  1  0
  2  3  1  0
  3  4  2  0
  4  5  1  0
  5  6  2  0
  6  7  1  0
  6  8  1  0
  8  9  2  0
  9 10  1  0
 10 11  1  0
 11 12  2  0
 11 13  1  0
 13 14  1  0
 14 15  1  0
 14 16  1  0
 14 17  1  0
 10 18  1  0
 18 19  1  6
 19 20  2  0
 19 21  1  0
 18 22  1  0
 22 23  1  6
 23 24  1  0
 24 25  2  0
 26 25  1  6
  9  3  1  0
 26 22  1  0
 26  8  1  0
A    1
 C1 
A    2
 O1 
A    3
 C2 
A    4
 C3 
A    5
 C4 
A    6
 C5 
A    7
CL1 
A    8
 C6 
A    9
 C7 
A   10
 N1 
A   11
 C8 
A   12
 O2 
A   13
 O3 
A   14
 C9 
A   15
 C10
A   16
 C11
A   17
 C12
A   18
 C13
A   19
 C14
A   20
 O4 
A   21
 O5 
A   22
 C15
A   23
 C16
A   24
 C17
A   25
 C18
A   26
 C19
M  END
>  <ref_pdb>  (405) 
Ax0310a

>  <ref_mols>  (405) 
Ax0446a,Ax1080a,Ax0812a,Ax0719a,Ax1140a,Ax0528a,Ax0310a

>  <original SMILES>  (405) 
COc1ccc(Cl)c2c1N(C(=O)OC(C)(C)C)[C@@H](C(=O)O)[C@H]1CC=C[C@@H]21

>  <rationale>  (405) 
info info set:bb_whole;halogenbond:S105; hbond:S87; saltbridge:H21; 

>  <experiment>  (405) 
bb_whole

>  <cluster_label>  (405) 
9

>  <cluster_rank>  (405) 
78

>  <N_interactions>  (405) 
3

>  <∆∆G>  (405) 
-0.902959

>  <comRMSD>  (405) 
0.986065

>  <ROCS_TanimotoCombo>  (405) 
0.434

>  <ROCS_ShapeTanimoto>  (405) 
0.283

>  <ROCS_ColorTanimoto>  (405) 
0.151

$$$$
EN300_685400
     RDKit          3D

 14 14  0  0  0  0  0  0  0  0999 V2000
   27.9111   14.1350    6.9552 C   0  0  0  0  0  0  0  0  0  0  0  0
   28.5086   12.8946    7.5510 C   0  0  0  0  0  0  0  0  0  0  0  0
   29.9120   12.6950    7.2370 O   0  0  0  0  0  0  0  0  0  0  0  0
   30.3822   11.5857    7.8178 C   0  0  0  0  0  0  0  0  0  0  0  0
   29.9941   11.0952    8.8028 O   0  0  0  0  0  0  0  0  0  0  0  0
   31.4764   10.9392    7.0672 C   0  0  0  0  0  0  0  0  0  0  0  0
   32.3065   11.7316    6.0961 C   0  0  0  0  0  0  0  0  0  0  0  0
   33.3148   10.8760    5.4798 N   0  0  0  0  0  0  0  0  0  0  0  0
   33.4612    9.4564    5.7920 C   0  0  0  0  0  0  0  0  0  0  0  0
   34.4768    8.7183    5.1577 N   0  0  0  0  0  0  0  0  0  0  0  0
   34.9264    9.2350    3.8972 C   0  0  0  0  0  0  0  0  0  0  0  0
   32.6685    8.8102    6.6833 N   0  0  0  0  0  0  0  0  0  0  0  0
   31.6923    9.4755    7.3388 C   0  0  0  0  0  0  0  0  0  0  0  0
   30.8499    8.7330    8.3431 C   0  0  0  0  0  0  0  0  0  0  0  0
  1  2  1  0
  2  3  1  0
  3  4  1  0
  4  5  2  0
  4  6  1  0
  6  7  2  0
  7  8  1  0
  8  9  2  0
  9 10  1  0
 10 11  1  0
  9 12  1  0
 12 13  2  0
 13 14  1  0
 13  6  1  0
A    1
 C1 
A    2
 C2 
A    3
 O1 
A    4
 C3 
A    5
 O2 
A    6
 C4 
A    7
 C5 
A    8
 N1 
A    9
 C6 
A   10
 N2 
A   11
 C7 
A   12
 N3 
A   13
 C8 
A   14
 C9 
M  END
>  <ref_pdb>  (406) 
Ax0310a

>  <ref_mols>  (406) 
Ax0446a,Ax1080a,Ax0812a,Ax0719a,Ax1140a,Ax0528a,Ax0310a

>  <original SMILES>  (406) 
CCOC(=O)c1cnc(NC)nc1C

>  <rationale>  (406) 
info info set:bb_densepocket2;hbond:S105; hydroph_interaction:Y89; saltbridge:H21; 

>  <experiment>  (406) 
bb_densepocket2

>  <cluster_label>  (406) 
9

>  <cluster_rank>  (406) 
79

>  <N_interactions>  (406) 
3

>  <∆∆G>  (406) 
-6.060499

>  <comRMSD>  (406) 
0.632214

>  <ROCS_TanimotoCombo>  (406) 
0.613

>  <ROCS_ShapeTanimoto>  (406) 
0.253

>  <ROCS_ColorTanimoto>  (406) 
0.36

$$$$
EN300_7457059
     RDKit          3D

 18 19  0  0  0  0  0  0  0  0999 V2000
   27.8476   13.7975    7.5447 C   0  0  0  0  0  0  0  0  0  0  0  0
   28.5034   14.5505    8.7194 C   0  0  0  0  0  0  0  0  0  0  0  0
   28.6985   16.0050    8.3936 C   0  0  0  0  0  0  0  0  0  0  0  0
   27.6913   14.4186    9.9968 C   0  0  0  0  0  0  0  0  0  0  0  0
   29.7659   13.9692    8.9316 O   0  0  0  0  0  0  0  0  0  0  0  0
   30.2803   13.3239    7.9197 C   0  0  0  0  0  0  0  0  0  0  0  0
   30.2260   13.6329    6.7493 O   0  0  0  0  0  0  0  0  0  0  0  0
   30.8681   12.2529    8.4108 N   0  0  0  0  0  0  0  0  0  0  0  0
   31.5480   11.4074    7.5883 C   0  0  1  0  0  0  0  0  0  0  0  0
   31.3094   11.6430    6.2233 C   0  0  0  0  0  0  0  0  0  0  0  0
   32.1441   10.6069    5.6169 C   0  0  0  0  0  0  0  0  0  0  0  0
   33.1805   10.3721    6.4286 C   0  0  1  0  0  0  0  0  0  0  0  0
   34.4219   10.0909    5.6646 C   0  0  0  0  0  0  0  0  0  0  0  0
   34.8378    9.0000    5.3238 O   0  0  0  0  0  0  0  0  0  0  0  0
   35.1388   11.2000    5.3910 O   0  0  0  0  0  0  0  0  0  0  0  0
   32.9988   11.7112    7.1720 C   0  0  0  0  0  0  0  0  0  0  0  0
   32.5995    9.3180    7.2248 O   0  0  0  0  0  0  0  0  0  0  0  0
   31.3984    9.8722    7.7922 C   0  0  0  0  0  0  0  0  0  0  0  0
  1  2  1  0
  2  3  1  0
  2  4  1  0
  2  5  1  0
  5  6  1  0
  6  7  2  0
  6  8  1  0
  9  8  1  1
  9 10  1  0
 10 11  1  0
 11 12  1  0
 12 13  1  6
 13 14  2  0
 13 15  1  0
 12 16  1  0
 12 17  1  0
 17 18  1  0
 16  9  1  0
 18  9  1  0
A    1
 C1 
A    2
 C2 
A    3
 C3 
A    4
 C4 
A    5
 O1 
A    6
 C5 
A    7
 O2 
A    8
 N1 
A    9
 C6 
A   10
 C7 
A   11
 C8 
A   12
 C9 
A   13
 C10
A   14
 O3 
A   15
 O4 
A   16
 C11
A   17
 O5 
A   18
 C12
M  END
>  <ref_pdb>  (407) 
Ax0310a

>  <ref_mols>  (407) 
Ax0446a,Ax1080a,Ax0812a,Ax0719a,Ax1140a,Ax0528a,Ax0310a

>  <original SMILES>  (407) 
CC(C)(C)OC(=O)N[C@@]12CC[C@@](C(=O)O)(C1)OC2

>  <rationale>  (407) 
info info set:bb_whole;hbond:S87+S105+S125+G127; hydroph_interaction:P107+Y89+Y90; 

>  <experiment>  (407) 
bb_whole

>  <cluster_label>  (407) 
3

>  <cluster_rank>  (407) 
79

>  <N_interactions>  (407) 
8

>  <∆∆G>  (407) 
-0.746675

>  <comRMSD>  (407) 
0.726644

>  <ROCS_TanimotoCombo>  (407) 
0.417

>  <ROCS_ShapeTanimoto>  (407) 
0.225

>  <ROCS_ColorTanimoto>  (407) 
0.191

$$$$
EN300_179888
     RDKit          3D

 12 12  0  0  0  0  0  0  0  0999 V2000
   28.4082   13.1591    7.8969 C   0  0  0  0  0  0  0  0  0  0  0  0
   29.1500   12.0752    7.3616 O   0  0  0  0  0  0  0  0  0  0  0  0
   30.3871   11.8923    7.8838 C   0  0  0  0  0  0  0  0  0  0  0  0
   30.7331   12.5304    8.8369 O   0  0  0  0  0  0  0  0  0  0  0  0
   31.3645   10.9268    7.2374 C   0  0  0  0  0  0  0  0  0  0  0  0
   32.2351   11.7657    6.3598 C   0  0  0  0  0  0  0  0  0  0  0  0
   33.4084   11.2775    5.4493 C   0  0  0  0  0  0  0  0  0  0  0  0
   33.4337    9.7146    5.6894 C   0  0  0  0  0  0  0  0  0  0  0  0
   34.4669    8.9048    4.9478 C   0  0  0  0  0  0  0  0  0  0  0  0
   32.5196    8.9761    6.5923 N   0  0  0  0  0  0  0  0  0  0  0  0
   31.5425    9.5655    7.3229 C   0  0  0  0  0  0  0  0  0  0  0  0
   30.7533    8.7336    8.1314 N   0  0  0  0  0  0  0  0  0  0  0  0
  1  2  1  0
  2  3  1  0
  3  4  2  0
  3  5  1  0
  5  6  2  0
  6  7  1  0
  7  8  2  0
  8  9  1  0
  8 10  1  0
 10 11  2  0
 11 12  1  0
 11  5  1  0
A    1
 C1 
A    2
 O1 
A    3
 C2 
A    4
 O2 
A    5
 C3 
A    6
 C4 
A    7
 C5 
A    8
 C6 
A    9
 C7 
A   10
 N1 
A   11
 C8 
A   12
 N2 
M  END
>  <ref_pdb>  (408) 
Ax0310a

>  <ref_mols>  (408) 
Ax0446a,Ax1080a,Ax0812a,Ax0719a,Ax1140a,Ax0528a,Ax0310a

>  <original SMILES>  (408) 
COC(=O)c1ccc(C)nc1N

>  <rationale>  (408) 
info info set:bb_densepocket2;hbond:S105+G127; hydroph_interaction:P107; saltbridge:H21; 

>  <experiment>  (408) 
bb_densepocket2

>  <cluster_label>  (408) 
9

>  <cluster_rank>  (408) 
80

>  <N_interactions>  (408) 
4

>  <∆∆G>  (408) 
-4.999751

>  <comRMSD>  (408) 
0.659987

>  <ROCS_TanimotoCombo>  (408) 
0.607

>  <ROCS_ShapeTanimoto>  (408) 
0.234

>  <ROCS_ColorTanimoto>  (408) 
0.373

$$$$
EN300_680111
     RDKit          3D

 14 14  0  0  0  0  0  0  0  0999 V2000
   36.1120   14.1008    9.2551 C   0  0  0  0  0  0  0  0  0  0  0  0
   34.8685   14.8202    9.0687 N   0  0  0  0  0  0  0  0  0  0  0  0
   33.5926   13.8436    8.6127 S   0  0  0  0  0  6  0  0  0  0  0  0
   32.3277   14.4726    8.9109 O   0  0  0  0  0  0  0  0  0  0  0  0
   33.9381   12.6673    9.2541 O   0  0  0  0  0  0  0  0  0  0  0  0
   33.8320   13.4908    6.8443 C   0  0  2  0  0  0  0  0  0  0  0  0
   34.5199   14.5206    6.1880 C   0  0  0  0  0  0  0  0  0  0  0  0
   32.4852   13.0638    6.2031 C   0  0  0  0  0  0  0  0  0  0  0  0
   32.1358   11.6964    6.6837 C   0  0  0  0  0  0  0  0  0  0  0  0
   31.1377   11.5255    7.7189 C   0  0  0  0  0  0  0  0  0  0  0  0
   30.7588   10.1724    8.2142 C   0  0  0  0  0  0  0  0  0  0  0  0
   31.4364    9.0262    7.6099 C   0  0  0  0  0  0  0  0  0  0  0  0
   32.3945    9.2561    6.6132 C   0  0  0  0  0  0  0  0  0  0  0  0
   32.7360   10.5438    6.1615 C   0  0  0  0  0  0  0  0  0  0  0  0
  1  2  1  0
  2  3  1  0
  3  4  2  0
  3  5  2  0
  3  6  1  0
  6  7  1  6
  6  8  1  0
  8  9  1  0
  9 10  2  0
 10 11  1  0
 11 12  2  0
 12 13  1  0
 13 14  2  0
 14  9  1  0
A    1
 C1 
A    2
 N1 
A    3
 S1 
A    4
 O1 
A    5
 O2 
A    6
 C2 
A    7
 C3 
A    8
 C4 
A    9
 C5 
A   10
 C6 
A   11
 C7 
A   12
 C8 
A   13
 C9 
A   14
 C10
M  END
>  <ref_pdb>  (409) 
Ax0310a

>  <ref_mols>  (409) 
Ax0446a,Ax1080a,Ax0812a,Ax0719a,Ax1140a,Ax0528a,Ax0310a

>  <original SMILES>  (409) 
CNS(=O)(=O)[C@H](C)Cc1ccccc1

>  <rationale>  (409) 
info info set:sulfonimide_whole;hbond:S87+G127+E85; hydroph_interaction:P107; 

>  <experiment>  (409) 
sulfonimide_whole

>  <cluster_label>  (409) 
3

>  <cluster_rank>  (409) 
80

>  <N_interactions>  (409) 
4

>  <∆∆G>  (409) 
-8.254383

>  <comRMSD>  (409) 
0.315487

>  <ROCS_TanimotoCombo>  (409) 
0.36

>  <ROCS_ShapeTanimoto>  (409) 
0.188

>  <ROCS_ColorTanimoto>  (409) 
0.171

$$$$
EN300_801834
     RDKit          3D

 18 19  0  0  0  0  0  0  0  0999 V2000
   29.3707    8.6177   10.1779 C   0  0  0  0  0  0  0  0  0  0  0  0
   29.8639    8.4237    8.8846 C   0  0  0  0  0  0  0  0  0  0  0  0
   28.8168    8.9824    8.2141 C   0  0  0  0  0  0  0  0  0  0  0  0
   29.7986    7.0333    9.0158 C   0  0  0  0  0  0  0  0  0  0  0  0
   31.1678    8.9966    8.6739 C   0  0  0  0  0  0  0  0  0  0  0  0
   31.6770    9.7569    7.5119 C   0  0  0  0  0  0  0  0  0  0  0  0
   32.5610    9.0790    6.7339 N   0  0  0  0  0  0  0  0  0  0  0  0
   33.0914    9.7112    5.6815 C   0  0  0  0  0  0  0  0  0  0  0  0
   34.0000    9.0767    4.8490 C   0  0  0  0  0  0  0  0  0  0  0  0
   34.5524    9.6759    3.7470 C   0  0  0  0  0  0  0  0  0  0  0  0
   35.6540    8.7776    2.7759 Cl  0  0  0  0  0  0  0  0  0  0  0  0
   34.2216   10.9767    3.4346 C   0  0  0  0  0  0  0  0  0  0  0  0
   33.3246   11.6579    4.2528 C   0  0  0  0  0  0  0  0  0  0  0  0
   32.7552   11.0296    5.3749 C   0  0  0  0  0  0  0  0  0  0  0  0
   31.8437   11.6951    6.2033 C   0  0  0  0  0  0  0  0  0  0  0  0
   31.2735   11.0734    7.3017 C   0  0  0  0  0  0  0  0  0  0  0  0
   30.3436   11.7561    8.1422 N   0  0  0  0  0  0  0  0  0  0  0  0
   29.9207   13.0599    7.8694 N   0  0  0  0  0  0  0  0  0  0  0  0
  1  2  1  0
  2  3  1  0
  2  4  1  0
  2  5  1  0
  5  6  1  0
  6  7  2  0
  7  8  1  0
  8  9  2  0
  9 10  1  0
 10 11  1  0
 10 12  2  0
 12 13  1  0
 13 14  2  0
 14 15  1  0
 15 16  2  0
 16 17  1  0
 17 18  1  0
 16  6  1  0
 14  8  1  0
A    1
 C1 
A    2
 C2 
A    3
 C3 
A    4
 C4 
A    5
 C5 
A    6
 C6 
A    7
 N1 
A    8
 C7 
A    9
 C8 
A   10
 C9 
A   11
CL1 
A   12
 C10
A   13
 C11
A   14
 C12
A   15
 C13
A   16
 C14
A   17
 N2 
A   18
 N3 
M  END
>  <ref_pdb>  (410) 
Ax0310a

>  <ref_mols>  (410) 
Ax0446a,Ax1080a,Ax0812a,Ax0719a,Ax1140a,Ax0528a,Ax0310a

>  <original SMILES>  (410) 
CC(C)(C)Cc1nc2cc(Cl)ccc2cc1NN

>  <rationale>  (410) 
info info set:bb_densepocket2;hbond:S125; hydroph_interaction:P107+V124+D109; 

>  <experiment>  (410) 
bb_densepocket2

>  <cluster_label>  (410) 
3

>  <cluster_rank>  (410) 
81

>  <N_interactions>  (410) 
5

>  <∆∆G>  (410) 
-1.794722

>  <comRMSD>  (410) 
0.457643

>  <ROCS_TanimotoCombo>  (410) 
0.645

>  <ROCS_ShapeTanimoto>  (410) 
0.253

>  <ROCS_ColorTanimoto>  (410) 
0.392

$$$$
EN300_8162031
     RDKit          3D

 13 13  0  0  0  0  0  0  0  0999 V2000
   28.0539   13.9891    6.9608 C   0  0  0  0  0  0  0  0  0  0  0  0
   29.0867   13.6395    8.0020 C   0  0  0  0  0  0  0  0  0  0  0  0
   30.2167   12.9958    7.3914 O   0  0  0  0  0  0  0  0  0  0  0  0
   30.4239   11.7476    7.8550 C   0  0  0  0  0  0  0  0  0  0  0  0
   29.8219   11.2551    8.7335 O   0  0  0  0  0  0  0  0  0  0  0  0
   31.4747   10.9532    7.1532 C   0  0  0  0  0  0  0  0  0  0  0  0
   32.3238   11.8340    6.2572 C   0  0  0  0  0  0  0  0  0  0  0  0
   33.3931   11.0241    5.5217 C   0  0  0  0  0  0  0  0  0  0  0  0
   33.4246    9.5250    5.7971 C   0  0  0  0  0  0  0  0  0  0  0  0
   34.4425    8.7614    5.0852 N   0  0  0  0  0  0  0  0  0  0  0  0
   32.6000    8.8769    6.6369 N   0  0  0  0  0  0  0  0  0  0  0  0
   31.6285    9.6192    7.3109 C   0  0  0  0  0  0  0  0  0  0  0  0
   30.4666    8.7164    8.5143 Br  0  0  0  0  0  0  0  0  0  0  0  0
  1  2  1  0
  2  3  1  0
  3  4  1  0
  4  5  2  0
  4  6  1  0
  6  7  2  0
  7  8  1  0
  8  9  2  0
  9 10  1  0
  9 11  1  0
 11 12  2  0
 12 13  1  0
 12  6  1  0
A    1
 C1 
A    2
 C2 
A    3
 O1 
A    4
 C3 
A    5
 O2 
A    6
 C4 
A    7
 C5 
A    8
 C6 
A    9
 C7 
A   10
 N1 
A   11
 N2 
A   12
 C8 
A   13
BR1 
M  END
>  <ref_pdb>  (411) 
Ax0310a

>  <ref_mols>  (411) 
Ax0446a,Ax1080a,Ax0812a,Ax0719a,Ax1140a,Ax0528a,Ax0310a

>  <original SMILES>  (411) 
CCOC(=O)c1ccc(N)nc1Br

>  <rationale>  (411) 
info info set:bb_densepocket2;hbond:S105; hydroph_interaction:P107; saltbridge:H21; 

>  <experiment>  (411) 
bb_densepocket2

>  <cluster_label>  (411) 
9

>  <cluster_rank>  (411) 
81

>  <N_interactions>  (411) 
3

>  <∆∆G>  (411) 
-4.038162

>  <comRMSD>  (411) 
0.632652

>  <ROCS_TanimotoCombo>  (411) 
0.61

>  <ROCS_ShapeTanimoto>  (411) 
0.235

>  <ROCS_ColorTanimoto>  (411) 
0.375

$$$$
Z1787638016
     RDKit          3D

 16 17  0  0  0  0  0  0  0  0999 V2000
   35.0213    9.5532    4.6087 C   0  0  0  0  0  0  0  0  0  0  0  0
   33.9290    8.8191    5.2007 N   0  0  0  0  0  0  0  0  0  0  0  0
   33.0393    9.5095    6.0303 C   0  0  0  0  0  0  0  0  0  0  0  0
   33.0450   10.8851    5.9115 C   0  0  0  0  0  0  0  0  0  0  0  0
   32.1798   11.6379    6.6848 C   0  0  0  0  0  0  0  0  0  0  0  0
   31.3051   11.0239    7.5742 C   0  0  0  0  0  0  0  0  0  0  0  0
   30.4568   11.8535    8.3110 N   0  0  0  0  0  0  0  0  0  0  0  0
   29.7065   12.9771    7.9377 C   0  0  0  0  0  0  0  0  0  0  0  0
   28.9251   12.9136    6.8492 N   0  0  0  0  0  0  0  0  0  0  0  0
   28.2356   14.0070    6.5467 C   0  0  0  0  0  0  0  0  0  0  0  0
   28.2550   15.1454    7.2297 N   0  0  0  0  0  0  0  0  0  0  0  0
   29.0248   15.1931    8.2929 C   0  0  0  0  0  0  0  0  0  0  0  0
   29.7827   14.1445    8.7013 C   0  0  0  0  0  0  0  0  0  0  0  0
   30.7433   14.3686   10.0896 Cl  0  0  0  0  0  0  0  0  0  0  0  0
   31.3673    9.6385    7.6355 C   0  0  0  0  0  0  0  0  0  0  0  0
   32.2101    8.8746    6.8950 N   0  0  0  0  0  0  0  0  0  0  0  0
  1  2  1  0
  2  3  1  0
  3  4  2  0
  4  5  1  0
  5  6  2  0
  6  7  1  0
  7  8  1  0
  8  9  2  0
  9 10  1  0
 10 11  2  0
 11 12  1  0
 12 13  2  0
 13 14  1  0
  6 15  1  0
 15 16  2  0
 16  3  1  0
 13  8  1  0
A    1
 C1 
A    2
 N1 
A    3
 C2 
A    4
 C3 
A    5
 C4 
A    6
 C5 
A    7
 N2 
A    8
 C6 
A    9
 N3 
A   10
 C7 
A   11
 N4 
A   12
 C8 
A   13
 C9 
A   14
CL1 
A   15
 C10
A   16
 N5 
M  END
>  <ref_pdb>  (412) 
Ax0310a

>  <ref_mols>  (412) 
Ax0446a,Ax1080a,Ax0812a,Ax0719a,Ax1140a,Ax0528a,Ax0310a

>  <original SMILES>  (412) 
CNc1ccc(Nc2ncncc2Cl)cn1

>  <rationale>  (412) 
info info set:screening_pocket;hbond:S105+S125+G127; pistack:H21; 

>  <experiment>  (412) 
screening_pocket

>  <cluster_label>  (412) 
3

>  <cluster_rank>  (412) 
82

>  <N_interactions>  (412) 
4

>  <∆∆G>  (412) 
-5.36692

>  <comRMSD>  (412) 
0.403037

>  <ROCS_TanimotoCombo>  (412) 
0.667

>  <ROCS_ShapeTanimoto>  (412) 
0.231

>  <ROCS_ColorTanimoto>  (412) 
0.437

$$$$
Z1491567757
     RDKit          3D

 19 20  0  0  0  0  0  0  0  0999 V2000
   29.5390   14.7499    8.8250 C   0  0  0  0  0  0  0  0  0  0  0  0
   28.7124   14.2888    7.7344 N   0  0  0  0  0  0  0  0  0  0  0  0
   28.5320   15.0273    6.7227 N   0  0  0  0  0  0  0  0  0  0  0  0
   27.7291   14.2967    5.9041 C   0  0  0  0  0  0  0  0  0  0  0  0
   27.3287   12.9606    6.4308 C   0  0  0  0  0  0  0  0  0  0  0  0
   28.0012   13.0078    7.6025 C   0  0  0  0  0  0  0  0  0  0  0  0
   27.9977   11.9130    8.5782 C   0  0  0  0  0  0  0  0  0  0  0  0
   29.0856   11.0587    8.1907 O   0  0  0  0  0  0  0  0  0  0  0  0
   30.2897   11.6529    8.1729 C   0  0  0  0  0  0  0  0  0  0  0  0
   30.6307   12.7722    8.8184 O   0  0  0  0  0  0  0  0  0  0  0  0
   31.2769   10.8914    7.3467 C   0  0  0  0  0  0  0  0  0  0  0  0
   31.9489   11.7917    6.3510 C   0  0  0  0  0  0  0  0  0  0  0  0
   32.9755   11.1514    5.4640 C   0  0  0  0  0  0  0  0  0  0  0  0
   33.6349   11.8451    4.5355 F   0  0  0  0  0  0  0  0  0  0  0  0
   33.2165    9.6572    5.6946 C   0  0  0  0  0  0  0  0  0  0  0  0
   34.3942    8.8712    4.7224 Cl  0  0  0  0  0  0  0  0  0  0  0  0
   32.5327    8.9258    6.6398 N   0  0  0  0  0  0  0  0  0  0  0  0
   31.5883    9.5665    7.4244 C   0  0  0  0  0  0  0  0  0  0  0  0
   30.7600    8.6144    8.5737 Cl  0  0  0  0  0  0  0  0  0  0  0  0
  1  2  1  0
  2  3  1  0
  3  4  2  0
  4  5  1  0
  5  6  2  0
  6  7  1  0
  7  8  1  0
  8  9  1  0
  9 10  2  0
  9 11  1  0
 11 12  2  0
 12 13  1  0
 13 14  1  0
 13 15  2  0
 15 16  1  0
 15 17  1  0
 17 18  2  0
 18 19  1  0
  6  2  1  0
 18 11  1  0
A    1
 C1 
A    2
 N1 
A    3
 N2 
A    4
 C2 
A    5
 C3 
A    6
 C4 
A    7
 C5 
A    8
 O1 
A    9
 C6 
A   10
 O2 
A   11
 C7 
A   12
 C8 
A   13
 C9 
A   14
 F1 
A   15
 C10
A   16
CL1 
A   17
 N3 
A   18
 C11
A   19
CL2 
M  END
>  <ref_pdb>  (413) 
Ax0310a

>  <ref_mols>  (413) 
Ax0446a,Ax1080a,Ax0812a,Ax0719a,Ax1140a,Ax0528a,Ax0310a

>  <original SMILES>  (413) 
Cn1nccc1COC(=O)c1cc(F)c(Cl)nc1Cl

>  <rationale>  (413) 
info info set:screening_pocket;hbond:S87; hydroph_interaction:P107; saltbridge:H21; 

>  <experiment>  (413) 
screening_pocket

>  <cluster_label>  (413) 
9

>  <cluster_rank>  (413) 
82

>  <N_interactions>  (413) 
4

>  <∆∆G>  (413) 
-1.087435

>  <comRMSD>  (413) 
0.800508

>  <ROCS_TanimotoCombo>  (413) 
0.629

>  <ROCS_ShapeTanimoto>  (413) 
0.251

>  <ROCS_ColorTanimoto>  (413) 
0.378

$$$$
EN300_1653399
     RDKit          3D

 11 11  0  0  0  0  0  0  0  0999 V2000
   30.5200    7.9759    8.5344 C   0  0  0  0  0  0  0  0  0  0  0  0
   30.3146    9.2868    8.2601 N   0  0  0  0  0  0  0  0  0  0  0  0
   31.3877    9.7764    7.4381 C   0  0  0  0  0  0  0  0  0  0  0  0
   32.2725    8.9889    6.7774 N   0  0  0  0  0  0  0  0  0  0  0  0
   33.2098    9.6024    6.0315 C   0  0  0  0  0  0  0  0  0  0  0  0
   34.1362    8.8582    5.3286 N   0  0  0  0  0  0  0  0  0  0  0  0
   33.3338   10.9010    5.9059 N   0  0  0  0  0  0  0  0  0  0  0  0
   32.4445   11.6211    6.5809 C   0  0  0  0  0  0  0  0  0  0  0  0
   32.6932   13.2913    6.3612 Cl  0  0  0  0  0  0  0  0  0  0  0  0
   31.4299   11.1427    7.3719 C   0  0  0  0  0  0  0  0  0  0  0  0
   30.4867   11.9195    8.0767 N   0  0  0  0  0  0  0  0  0  0  0  0
  1  2  1  0
  2  3  1  0
  3  4  2  0
  4  5  1  0
  5  6  1  0
  5  7  2  0
  7  8  1  0
  8  9  1  0
  8 10  2  0
 10 11  1  0
 10  3  1  0
A    1
 C1 
A    2
 N1 
A    3
 C2 
A    4
 N2 
A    5
 C3 
A    6
 N3 
A    7
 N4 
A    8
 C4 
A    9
CL1 
A   10
 C5 
A   11
 N5 
M  END
>  <ref_pdb>  (414) 
Ax0310a

>  <ref_mols>  (414) 
Ax0446a,Ax1080a,Ax0812a,Ax0719a,Ax1140a,Ax0528a,Ax0310a

>  <original SMILES>  (414) 
CNc1nc(N)nc(Cl)c1N

>  <rationale>  (414) 
info info set:bb_densepocket2;hbond:S105+S125+G127; 

>  <experiment>  (414) 
bb_densepocket2

>  <cluster_label>  (414) 
3

>  <cluster_rank>  (414) 
83

>  <N_interactions>  (414) 
4

>  <∆∆G>  (414) 
-4.273846

>  <comRMSD>  (414) 
0.482559

>  <ROCS_TanimotoCombo>  (414) 
0.655

>  <ROCS_ShapeTanimoto>  (414) 
0.219

>  <ROCS_ColorTanimoto>  (414) 
0.437

$$$$
EN300_114717
     RDKit          3D

 13 13  0  0  0  0  0  0  0  0999 V2000
   29.1792   12.6914    8.6579 N   0  0  0  0  0  0  0  0  0  0  0  0
   30.2858   13.7318    8.0035 S   0  0  0  0  0  6  0  0  0  0  0  0
   29.8720   13.7993    6.6224 O   0  0  0  0  0  0  0  0  0  0  0  0
   30.2633   14.8859    8.8885 O   0  0  0  0  0  0  0  0  0  0  0  0
   31.9422   13.0445    8.0145 C   0  0  0  0  0  0  0  0  0  0  0  0
   32.0100   11.6180    7.5467 C   0  0  0  0  0  0  0  0  0  0  0  0
   33.1992   11.3204    6.5864 C   0  0  0  0  0  0  0  0  0  0  0  0
   34.1099   12.1868    6.1466 F   0  0  0  0  0  0  0  0  0  0  0  0
   33.1318    9.8143    6.2491 C   0  0  0  0  0  0  0  0  0  0  0  0
   32.1766    8.9632    6.7432 C   0  0  0  0  0  0  0  0  0  0  0  0
   31.1949    9.3759    7.5545 C   0  0  0  0  0  0  0  0  0  0  0  0
   31.0738   10.6540    7.9631 C   0  0  0  0  0  0  0  0  0  0  0  0
   30.0863   10.9545    8.7424 F   0  0  0  0  0  0  0  0  0  0  0  0
  1  2  1  0
  2  3  2  0
  2  4  2  0
  2  5  1  0
  5  6  1  0
  6  7  2  0
  7  8  1  0
  7  9  1  0
  9 10  2  0
 10 11  1  0
 11 12  2  0
 12 13  1  0
 12  6  1  0
A    1
 N1 
A    2
 S1 
A    3
 O1 
A    4
 O2 
A    5
 C1 
A    6
 C2 
A    7
 C3 
A    8
 F1 
A    9
 C4 
A   10
 C5 
A   11
 C6 
A   12
 C7 
A   13
 F2 
M  END
>  <ref_pdb>  (415) 
Ax0310a

>  <ref_mols>  (415) 
Ax0446a,Ax1080a,Ax0812a,Ax0719a,Ax1140a,Ax0528a,Ax0310a

>  <original SMILES>  (415) 
NS(=O)(=O)Cc1c(F)cccc1F

>  <rationale>  (415) 
info info set:sulfonimide_whole;halogenbond:S125; hbond:S87+S125; 

>  <experiment>  (415) 
sulfonimide_whole

>  <cluster_label>  (415) 
9

>  <cluster_rank>  (415) 
83

>  <N_interactions>  (415) 
3

>  <∆∆G>  (415) 
-2.645737

>  <comRMSD>  (415) 
0.788893

>  <ROCS_TanimotoCombo>  (415) 
0.33

>  <ROCS_ShapeTanimoto>  (415) 
0.184

>  <ROCS_ColorTanimoto>  (415) 
0.146

$$$$
EN300_91843
     RDKit          3D

 17 18  0  0  0  0  0  0  0  0999 V2000
   29.9144    7.8862    8.5315 C   0  0  0  0  0  0  0  0  0  0  0  0
   31.0123    8.1310    8.8174 C   0  0  0  0  0  0  0  0  0  0  0  0
   31.8630    8.1196    7.6476 O   0  0  0  0  0  0  0  0  0  0  0  0
   31.8024    9.3984    7.4544 C   0  0  0  0  0  0  0  0  0  0  0  0
   30.6873    9.7992    8.2533 C   0  0  0  0  0  0  0  0  0  0  0  0
   30.3569   11.0786    8.3090 C   0  0  0  0  0  0  0  0  0  0  0  0
   31.0703   11.9817    7.6356 C   0  0  0  0  0  0  0  0  0  0  0  0
   30.4333   13.5704    7.9153 S   0  0  0  0  0  6  0  0  0  0  0  0
   29.1299   13.4538    8.9678 N   0  0  0  0  0  0  0  0  0  0  0  0
   29.7973   13.9513    6.6867 O   0  0  0  0  0  0  0  0  0  0  0  0
   31.4179   14.3119    8.6727 O   0  0  0  0  0  0  0  0  0  0  0  0
   32.1774   11.6358    6.8239 C   0  0  0  0  0  0  0  0  0  0  0  0
   32.8394   12.6708    6.1686 C   0  0  0  0  0  0  0  0  0  0  0  0
   34.0371   12.3892    5.2704 C   0  0  0  0  0  0  0  0  0  0  0  0
   34.3816   10.8895    5.1968 C   0  0  0  0  0  0  0  0  0  0  0  0
   33.6754    9.9084    5.8845 C   0  0  0  0  0  0  0  0  0  0  0  0
   32.5831   10.2766    6.6979 C   0  0  0  0  0  0  0  0  0  0  0  0
  1  2  1  0
  2  3  1  0
  3  4  1  0
  4  5  2  0
  5  6  1  0
  6  7  2  0
  7  8  1  0
  8  9  1  0
  8 10  2  0
  8 11  2  0
  7 12  1  0
 12 13  2  0
 13 14  1  0
 14 15  2  0
 15 16  1  0
 16 17  2  0
 17  4  1  0
 17 12  1  0
A    1
 C1 
A    2
 C2 
A    3
 O1 
A    4
 C3 
A    5
 C4 
A    6
 C5 
A    7
 C6 
A    8
 S1 
A    9
 N1 
A   10
 O2 
A   11
 O3 
A   12
 C7 
A   13
 C8 
A   14
 C9 
A   15
 C10
A   16
 C11
A   17
 C12
M  END
>  <ref_pdb>  (416) 
Ax0310a

>  <ref_mols>  (416) 
Ax0446a,Ax1080a,Ax0812a,Ax0719a,Ax1140a,Ax0528a,Ax0310a

>  <original SMILES>  (416) 
CCOc1ccc(S(N)(=O)=O)c2ccccc12

>  <rationale>  (416) 
info info set:sulfonimide_whole;hbond:S87+S125; hydroph_interaction:V124+D109; 

>  <experiment>  (416) 
sulfonimide_whole

>  <cluster_label>  (416) 
3

>  <cluster_rank>  (416) 
84

>  <N_interactions>  (416) 
4

>  <∆∆G>  (416) 
-6.778873

>  <comRMSD>  (416) 
0.774081

>  <ROCS_TanimotoCombo>  (416) 
0.361

>  <ROCS_ShapeTanimoto>  (416) 
0.214

>  <ROCS_ColorTanimoto>  (416) 
0.146

$$$$
EN300_6509690
     RDKit          3D

 14 15  0  0  0  0  0  0  0  0999 V2000
   28.1178   11.9063    8.0276 C   0  0  0  0  0  0  0  0  0  0  0  0
   29.5042   11.8720    7.7005 O   0  0  0  0  0  0  0  0  0  0  0  0
   30.1496   10.7882    8.1888 C   0  0  0  0  0  0  0  0  0  0  0  0
   29.8265   10.1257    9.1360 O   0  0  0  0  0  0  0  0  0  0  0  0
   31.3211   10.4513    7.3678 C   0  0  0  0  0  0  0  0  0  0  0  0
   32.0940   11.5606    6.6648 C   0  0  0  0  0  0  0  0  0  0  0  0
   33.2889   11.0949    5.8150 C   0  0  0  0  0  0  0  0  0  0  0  0
   33.4629    9.5625    5.8496 C   0  0  0  0  0  0  0  0  0  0  0  0
   34.4858    8.9390    5.1357 N   0  0  0  0  0  0  0  0  0  0  0  0
   34.8620    9.4463    3.9018 C   0  0  0  0  0  0  0  0  0  0  0  0
   36.1814    9.1468    3.2979 C   0  0  0  0  0  0  0  0  0  0  0  0
   36.1480   10.5007    3.7554 C   0  0  0  0  0  0  0  0  0  0  0  0
   32.6895    8.7157    6.5336 N   0  0  0  0  0  0  0  0  0  0  0  0
   31.6647    9.1490    7.2605 C   0  0  0  0  0  0  0  0  0  0  0  0
  1  2  1  0
  2  3  1  0
  3  4  2  0
  3  5  1  0
  5  6  2  0
  6  7  1  0
  7  8  2  0
  8  9  1  0
  9 10  1  0
 10 11  1  0
 11 12  1  0
  8 13  1  0
 13 14  2  0
 14  5  1  0
 12 10  1  0
A    1
 C1 
A    2
 O1 
A    3
 C2 
A    4
 O2 
A    5
 C3 
A    6
 C4 
A    7
 C5 
A    8
 C6 
A    9
 N1 
A   10
 C7 
A   11
 C8 
A   12
 C9 
A   13
 N2 
A   14
 C10
M  END
>  <ref_pdb>  (417) 
Ax0310a

>  <ref_mols>  (417) 
Ax0446a,Ax1080a,Ax0812a,Ax0719a,Ax1140a,Ax0528a,Ax0310a

>  <original SMILES>  (417) 
COC(=O)c1ccc(NC2CC2)nc1

>  <rationale>  (417) 
info info set:bb_densepocket2;hbond:S105; saltbridge:H21; 

>  <experiment>  (417) 
bb_densepocket2

>  <cluster_label>  (417) 
9

>  <cluster_rank>  (417) 
84

>  <N_interactions>  (417) 
2

>  <∆∆G>  (417) 
-3.034001

>  <comRMSD>  (417) 
0.737145

>  <ROCS_TanimotoCombo>  (417) 
0.614

>  <ROCS_ShapeTanimoto>  (417) 
0.224

>  <ROCS_ColorTanimoto>  (417) 
0.39

$$$$
EN300_108619
     RDKit          3D

 12 12  0  0  0  0  0  0  0  0999 V2000
   34.4823    8.8157    4.7003 C   0  0  0  0  0  0  0  0  0  0  0  0
   33.4442    9.4731    5.6095 C   0  0  0  0  0  0  0  0  0  0  0  0
   33.0489   10.9291    5.3382 C   0  0  0  0  0  0  0  0  0  0  0  0
   32.0611   11.2689    6.3891 C   0  0  0  0  0  0  0  0  0  0  0  0
   31.9905    9.9392    7.1748 C   0  0  0  0  0  0  0  0  0  0  0  0
   30.9673   10.3537    8.2723 C   0  0  0  0  0  0  0  0  0  0  0  0
   30.6931   11.5339    8.4512 O   0  0  0  0  0  0  0  0  0  0  0  0
   30.3243    9.3319    9.1175 C   0  0  0  0  0  0  0  0  0  0  0  0
   30.5146    8.8617    7.7333 C   0  0  0  0  0  0  0  0  0  0  0  0
   30.8919    8.0554    9.5300 C   0  0  0  0  0  0  0  0  0  0  0  0
   28.8516    9.3677    9.1156 C   0  0  0  0  0  0  0  0  0  0  0  0
   32.7889    8.9049    6.7049 O   0  0  0  0  0  0  0  0  0  0  0  0
  1  2  1  0
  2  3  2  0
  3  4  1  0
  4  5  2  0
  5  6  1  0
  6  7  2  0
  6  8  1  0
  8  9  1  0
  8 10  1  0
  8 11  1  0
  5 12  1  0
 12  2  1  0
A    1
 C1 
A    2
 C2 
A    3
 C3 
A    4
 C4 
A    5
 C5 
A    6
 C6 
A    7
 O1 
A    8
 C7 
A    9
 C8 
A   10
 C9 
A   11
 C10
A   12
 O2 
M  END
>  <ref_pdb>  (418) 
Ax0310a

>  <ref_mols>  (418) 
Ax0446a,Ax1080a,Ax0812a,Ax0719a,Ax1140a,Ax0528a,Ax0310a

>  <original SMILES>  (418) 
Cc1ccc(C(=O)C(C)(C)C)o1

>  <rationale>  (418) 
info info set:bb_densepocket2;hbond:S125+G127; hydroph_interaction:P107+V124; 

>  <experiment>  (418) 
bb_densepocket2

>  <cluster_label>  (418) 
3

>  <cluster_rank>  (418) 
85

>  <N_interactions>  (418) 
4

>  <∆∆G>  (418) 
-6.129585

>  <comRMSD>  (418) 
0.83379

>  <ROCS_TanimotoCombo>  (418) 
0.622

>  <ROCS_ShapeTanimoto>  (418) 
0.188

>  <ROCS_ColorTanimoto>  (418) 
0.435

$$$$
Z339476242
     RDKit          3D

 20 21  0  0  0  0  0  0  0  0999 V2000
   26.7455   14.0983    6.7296 C   0  0  0  0  0  0  0  0  0  0  0  0
   27.3250   13.7883    7.9557 O   0  0  0  0  0  0  0  0  0  0  0  0
   28.4799   14.4418    8.1212 C   0  0  0  0  0  0  0  0  0  0  0  0
   28.7057   15.5815    7.7563 O   0  0  0  0  0  0  0  0  0  0  0  0
   29.3681   13.4736    8.8170 C   0  0  0  0  0  0  0  0  0  0  0  0
   30.2562   12.8158    7.8781 N   0  0  0  0  0  0  0  0  0  0  0  0
   30.5389   11.4781    8.0461 C   0  0  0  0  0  0  0  0  0  0  0  0
   30.0688   10.7536    8.8635 O   0  0  0  0  0  0  0  0  0  0  0  0
   31.4267   10.9021    7.2011 C   0  0  0  0  0  0  0  0  0  0  0  0
   31.9925   11.6622    6.2193 C   0  0  0  0  0  0  0  0  0  0  0  0
   32.8632   11.0552    5.3693 C   0  0  0  0  0  0  0  0  0  0  0  0
   33.5850   11.6053    4.2252 C   0  0  0  0  0  0  0  0  0  0  0  0
   34.4897   10.9138    3.3356 C   0  0  0  0  0  0  0  0  0  0  0  0
   34.9263    9.5582    3.3219 C   0  0  0  0  0  0  0  0  0  0  0  0
   35.9951    8.7417    2.2574 Cl  0  0  0  0  0  0  0  0  0  0  0  0
   34.1750    8.9964    4.5307 C   0  0  0  0  0  0  0  0  0  0  0  0
   33.1858    9.6292    5.5362 C   0  0  0  0  0  0  0  0  0  0  0  0
   32.6096    8.9157    6.5405 N   0  0  0  0  0  0  0  0  0  0  0  0
   31.7282    9.5566    7.3533 C   0  0  0  0  0  0  0  0  0  0  0  0
   31.0940    8.7369    8.4186 C   0  0  0  0  0  0  0  0  0  0  0  0
  1  2  1  0
  2  3  1  0
  3  4  2  0
  3  5  1  0
  5  6  1  0
  6  7  1  0
  7  8  2  0
  7  9  1  0
  9 10  2  0
 10 11  1  0
 11 12  2  0
 12 13  1  0
 13 14  2  0
 14 15  1  0
 14 16  1  0
 16 17  2  0
 17 18  1  0
 18 19  2  0
 19 20  1  0
 19  9  1  0
 17 11  1  0
A    1
 C1 
A    2
 O1 
A    3
 C2 
A    4
 O2 
A    5
 C3 
A    6
 N1 
A    7
 C4 
A    8
 O3 
A    9
 C5 
A   10
 C6 
A   11
 C7 
A   12
 C8 
A   13
 C9 
A   14
 C10
A   15
CL1 
A   16
 C11
A   17
 C12
A   18
 N2 
A   19
 C13
A   20
 C14
M  END
>  <ref_pdb>  (419) 
Ax0310a

>  <ref_mols>  (419) 
Ax0446a,Ax1080a,Ax0812a,Ax0719a,Ax1140a,Ax0528a,Ax0310a

>  <original SMILES>  (419) 
COC(=O)CNC(=O)c1cc2ccc(Cl)cc2nc1C

>  <rationale>  (419) 
info info set:screening_pocket;hbond:S87; hydroph_interaction:P107; saltbridge:H21; 

>  <experiment>  (419) 
screening_pocket

>  <cluster_label>  (419) 
9

>  <cluster_rank>  (419) 
85

>  <N_interactions>  (419) 
3

>  <∆∆G>  (419) 
-5.982861

>  <comRMSD>  (419) 
0.639279

>  <ROCS_TanimotoCombo>  (419) 
0.625

>  <ROCS_ShapeTanimoto>  (419) 
0.255

>  <ROCS_ColorTanimoto>  (419) 
0.37

$$$$
EN300_801649
     RDKit          3D

 18 19  0  0  0  0  0  0  0  0999 V2000
   29.2076    8.7591   10.1926 C   0  0  0  0  0  0  0  0  0  0  0  0
   29.7185    8.2888    9.0739 C   0  0  0  0  0  0  0  0  0  0  0  0
   29.7768    6.9342    9.1404 C   0  0  0  0  0  0  0  0  0  0  0  0
   28.9483    8.7058    8.0559 C   0  0  0  0  0  0  0  0  0  0  0  0
   31.0493    8.8817    8.8092 C   0  0  0  0  0  0  0  0  0  0  0  0
   31.6194    9.6067    7.5825 C   0  0  0  0  0  0  0  0  0  0  0  0
   32.5605    8.9888    6.8301 N   0  0  0  0  0  0  0  0  0  0  0  0
   33.0846    9.6409    5.7790 C   0  0  0  0  0  0  0  0  0  0  0  0
   34.1517    9.0128    4.8945 C   0  0  0  0  0  0  0  0  0  0  0  0
   34.7091    9.6142    3.7940 C   0  0  0  0  0  0  0  0  0  0  0  0
   34.2156   11.0348    3.4487 C   0  0  0  0  0  0  0  0  0  0  0  0
   34.6921   11.6968    2.3928 F   0  0  0  0  0  0  0  0  0  0  0  0
   33.2502   11.5674    4.3127 C   0  0  0  0  0  0  0  0  0  0  0  0
   32.6979   10.9142    5.4305 C   0  0  0  0  0  0  0  0  0  0  0  0
   31.7280   11.5394    6.2202 C   0  0  0  0  0  0  0  0  0  0  0  0
   31.1651   10.8983    7.3092 C   0  0  0  0  0  0  0  0  0  0  0  0
   30.1753   11.5002    8.1220 N   0  0  0  0  0  0  0  0  0  0  0  0
   30.2885   12.8138    8.5887 N   0  0  0  0  0  0  0  0  0  0  0  0
  1  2  1  0
  2  3  1  0
  2  4  1  0
  2  5  1  0
  5  6  1  0
  6  7  2  0
  7  8  1  0
  8  9  2  0
  9 10  1  0
 10 11  2  0
 11 12  1  0
 11 13  1  0
 13 14  2  0
 14 15  1  0
 15 16  2  0
 16 17  1  0
 17 18  1  0
 16  6  1  0
 14  8  1  0
A    1
 C1 
A    2
 C2 
A    3
 C3 
A    4
 C4 
A    5
 C5 
A    6
 C6 
A    7
 N1 
A    8
 C7 
A    9
 C8 
A   10
 C9 
A   11
 C10
A   12
 F1 
A   13
 C11
A   14
 C12
A   15
 C13
A   16
 C14
A   17
 N2 
A   18
 N3 
M  END
>  <ref_pdb>  (420) 
Ax0310a

>  <ref_mols>  (420) 
Ax0446a,Ax1080a,Ax0812a,Ax0719a,Ax1140a,Ax0528a,Ax0310a

>  <original SMILES>  (420) 
CC(C)(C)Cc1nc2ccc(F)cc2cc1NN

>  <rationale>  (420) 
info info set:bb_densepocket2;hbond:S125; hydroph_interaction:P107+V124+D109; 

>  <experiment>  (420) 
bb_densepocket2

>  <cluster_label>  (420) 
3

>  <cluster_rank>  (420) 
86

>  <N_interactions>  (420) 
5

>  <∆∆G>  (420) 
-1.193035

>  <comRMSD>  (420) 
0.439814

>  <ROCS_TanimotoCombo>  (420) 
0.646

>  <ROCS_ShapeTanimoto>  (420) 
0.254

>  <ROCS_ColorTanimoto>  (420) 
0.392

$$$$
EN300_3016919
     RDKit          3D

 12 12  0  0  0  0  0  0  0  0999 V2000
   28.3810   13.2065    7.8633 C   0  0  0  0  0  0  0  0  0  0  0  0
   29.1758   12.1269    7.3859 O   0  0  0  0  0  0  0  0  0  0  0  0
   30.3854   12.0763    7.9842 C   0  0  0  0  0  0  0  0  0  0  0  0
   30.6363   12.7411    8.9672 O   0  0  0  0  0  0  0  0  0  0  0  0
   31.3805   11.1522    7.2714 C   0  0  0  0  0  0  0  0  0  0  0  0
   32.4318   11.6388    6.2799 C   0  0  0  0  0  0  0  0  0  0  0  0
   33.4327   10.7096    5.5528 C   0  0  0  0  0  0  0  0  0  0  0  0
   34.2347   11.7548    4.6900 C   0  0  0  0  0  0  0  0  0  0  0  0
   33.3488    9.2555    5.8545 C   0  0  0  0  0  0  0  0  0  0  0  0
   32.4508    8.7696    6.7168 N   0  0  0  0  0  0  0  0  0  0  0  0
   31.5622    9.5588    7.3700 C   0  0  0  0  0  0  0  0  0  0  0  0
   30.7271    8.7915    8.2292 N   0  0  0  0  0  0  0  0  0  0  0  0
  1  2  1  0
  2  3  1  0
  3  4  2  0
  3  5  1  0
  5  6  2  0
  6  7  1  0
  7  8  1  0
  7  9  2  0
  9 10  1  0
 10 11  2  0
 11 12  1  0
 11  5  1  0
A    1
 C1 
A    2
 O1 
A    3
 C2 
A    4
 O2 
A    5
 C3 
A    6
 C4 
A    7
 C5 
A    8
 C6 
A    9
 C7 
A   10
 N1 
A   11
 C8 
A   12
 N2 
M  END
>  <ref_pdb>  (421) 
Ax0310a

>  <ref_mols>  (421) 
Ax0446a,Ax1080a,Ax0812a,Ax0719a,Ax1140a,Ax0528a,Ax0310a

>  <original SMILES>  (421) 
COC(=O)c1cc(C)cnc1N

>  <rationale>  (421) 
info info set:bb_densepocket2;hbond:S105; hydroph_interaction:P107; saltbridge:H21; 

>  <experiment>  (421) 
bb_densepocket2

>  <cluster_label>  (421) 
9

>  <cluster_rank>  (421) 
86

>  <N_interactions>  (421) 
3

>  <∆∆G>  (421) 
-4.391751

>  <comRMSD>  (421) 
0.675541

>  <ROCS_TanimotoCombo>  (421) 
0.607

>  <ROCS_ShapeTanimoto>  (421) 
0.234

>  <ROCS_ColorTanimoto>  (421) 
0.373

$$$$
EN300_1699982
     RDKit          3D

 12 12  0  0  0  0  0  0  0  0999 V2000
   34.4961   14.7502    7.0856 N   0  0  0  0  0  0  0  0  0  0  0  0
   33.8939   13.2095    7.3173 S   0  0  0  0  0  6  0  0  0  0  0  0
   34.5307   12.4848    6.2459 O   0  0  0  0  0  0  0  0  0  0  0  0
   34.0880   12.9351    8.7207 O   0  0  0  0  0  0  0  0  0  0  0  0
   32.1292   13.1752    6.9932 C   0  0  0  0  0  0  0  0  0  0  0  0
   31.5447   11.7695    6.8526 C   0  0  1  0  0  0  0  0  0  0  0  0
   32.7139   10.8942    6.4352 C   0  0  0  0  0  0  0  0  0  0  0  0
   32.4810    9.5434    6.5552 C   0  0  0  0  0  0  0  0  0  0  0  0
   31.6490    8.9866    7.6707 C   0  0  0  0  0  0  0  0  0  0  0  0
   30.7824    9.8836    8.2281 C   0  0  2  0  0  0  0  0  0  0  0  0
   29.6165    9.2577    8.0970 F   0  0  0  0  0  0  0  0  0  0  0  0
   30.6806   11.2298    7.8262 C   0  0  0  0  0  0  0  0  0  0  0  0
  1  2  1  0
  2  3  2  0
  2  4  2  0
  2  5  1  0
  6  5  1  1
  6  7  1  0
  7  8  1  0
  8  9  1  0
  9 10  1  0
 10 11  1  6
 10 12  1  0
 12  6  1  0
A    1
 N1 
A    2
 S1 
A    3
 O1 
A    4
 O2 
A    5
 C1 
A    6
 C2 
A    7
 C3 
A    8
 C4 
A    9
 C5 
A   10
 C6 
A   11
 F1 
A   12
 C7 
M  END
>  <ref_pdb>  (422) 
Ax0310a

>  <ref_mols>  (422) 
Ax0446a,Ax1080a,Ax0812a,Ax0719a,Ax1140a,Ax0528a,Ax0310a

>  <original SMILES>  (422) 
NS(=O)(=O)C[C@H]1CCC[C@H](F)C1

>  <rationale>  (422) 
info info set:sulfonimide_joint;halogenbond:P107; hbond:G127+E85; 

>  <experiment>  (422) 
sulfonimide_joint

>  <cluster_label>  (422) 
9

>  <cluster_rank>  (422) 
87

>  <N_interactions>  (422) 
3

>  <∆∆G>  (422) 
-0.093033

>  <comRMSD>  (422) 
0.930785

>  <ROCS_TanimotoCombo>  (422) 
0.301

>  <ROCS_ShapeTanimoto>  (422) 
0.162

>  <ROCS_ColorTanimoto>  (422) 
0.139

$$$$
Z1569665932
     RDKit          3D

 18 20  0  0  0  0  0  0  0  0999 V2000
   27.5634   12.7678    6.6755 C   0  0  0  0  0  0  0  0  0  0  0  0
   28.3853   13.5273    7.4995 C   0  0  0  0  0  0  0  0  0  0  0  0
   28.1459   14.8631    7.6252 C   0  0  0  0  0  0  0  0  0  0  0  0
   28.9177   15.6738    8.4149 C   0  0  0  0  0  0  0  0  0  0  0  0
   28.6706   16.9600    8.4994 F   0  0  0  0  0  0  0  0  0  0  0  0
   30.0535   15.1365    9.1847 C   0  0  0  0  0  0  0  0  0  0  0  0
   30.4176   13.8236    9.1568 C   0  0  0  0  0  0  0  0  0  0  0  0
   29.5708   12.8985    8.2748 C   0  0  0  0  0  0  0  0  0  0  0  0
   29.9213   11.4528    8.1967 C   0  0  0  0  0  0  0  0  0  0  0  0
   31.2579   11.2508    7.7286 N   0  0  0  0  0  0  0  0  0  0  0  0
   31.5556    9.8311    7.5141 C   0  0  0  0  0  0  0  0  0  0  0  0
   32.6418    9.8902    6.4506 C   0  0  0  0  0  0  0  0  0  0  0  0
   32.7653   11.3531    6.0511 C   0  0  1  0  0  0  0  0  0  0  0  0
   33.7486   12.3297    6.6706 C   0  0  0  0  0  0  0  0  0  0  0  0
   34.9349   12.3664    5.7037 C   0  0  0  0  0  0  0  0  0  0  0  0
   34.6780   11.3418    4.7670 O   0  0  0  0  0  0  0  0  0  0  0  0
   33.2643   11.4500    4.6150 C   0  0  0  0  0  0  0  0  0  0  0  0
   31.4096   11.9110    6.4534 C   0  0  0  0  0  0  0  0  0  0  0  0
  1  2  1  0
  2  3  2  0
  3  4  1  0
  4  5  1  0
  4  6  2  0
  6  7  1  0
  7  8  2  0
  8  9  1  0
  9 10  1  0
 10 11  1  0
 11 12  1  0
 13 12  1  1
 13 14  1  0
 14 15  1  0
 15 16  1  0
 16 17  1  0
 13 18  1  0
  8  2  1  0
 18 10  1  0
 17 13  1  0
A    1
 C1 
A    2
 C2 
A    3
 C3 
A    4
 C4 
A    5
 F1 
A    6
 C5 
A    7
 C6 
A    8
 C7 
A    9
 C8 
A   10
 N1 
A   11
 C9 
A   12
 C10
A   13
 C11
A   14
 C12
A   15
 C13
A   16
 O1 
A   17
 C14
A   18
 C15
M  END
>  <ref_pdb>  (423) 
Ax0310a

>  <ref_mols>  (423) 
Ax0446a,Ax1080a,Ax0812a,Ax0719a,Ax1140a,Ax0528a,Ax0310a

>  <original SMILES>  (423) 
Cc1cc(F)ccc1CN1CC[C@]2(CCOC2)C1

>  <rationale>  (423) 
info info set:3d;hbond:G127; hydroph_interaction:P107+Y89+Y90; 

>  <experiment>  (423) 
3d

>  <cluster_label>  (423) 
3

>  <cluster_rank>  (423) 
87

>  <N_interactions>  (423) 
5

>  <∆∆G>  (423) 
-1.563137

>  <comRMSD>  (423) 
0.760352

>  <ROCS_TanimotoCombo>  (423) 
0.348

>  <ROCS_ShapeTanimoto>  (423) 
0.221

>  <ROCS_ColorTanimoto>  (423) 
0.128

$$$$
EN300_278361
     RDKit          3D

 13 13  0  0  0  0  0  0  0  0999 V2000
   34.9683   14.8345    8.9787 N   0  0  0  0  0  0  0  0  0  0  0  0
   33.6663   13.8854    8.5378 S   0  0  0  0  0  6  0  0  0  0  0  0
   34.0521   12.6863    9.1439 O   0  0  0  0  0  0  0  0  0  0  0  0
   32.4466   14.5280    8.9707 O   0  0  0  0  0  0  0  0  0  0  0  0
   33.8673   13.7165    6.7539 C   0  0  0  0  0  0  0  0  0  0  0  0
   32.7629   12.9831    6.0362 C   0  0  0  0  0  0  0  0  0  0  0  0
   32.2201   11.7544    6.6414 C   0  0  0  0  0  0  0  0  0  0  0  0
   31.0951   11.7973    7.4547 C   0  0  0  0  0  0  0  0  0  0  0  0
   30.5967   10.6358    8.0362 C   0  0  0  0  0  0  0  0  0  0  0  0
   31.1739    9.3925    7.8367 C   0  0  0  0  0  0  0  0  0  0  0  0
   30.6776    8.3156    8.4087 F   0  0  0  0  0  0  0  0  0  0  0  0
   32.2806    9.3969    7.0121 C   0  0  0  0  0  0  0  0  0  0  0  0
   32.8107   10.5224    6.4243 C   0  0  0  0  0  0  0  0  0  0  0  0
  1  2  1  0
  2  3  2  0
  2  4  2  0
  2  5  1  0
  5  6  1  0
  6  7  1  0
  7  8  2  0
  8  9  1  0
  9 10  2  0
 10 11  1  0
 10 12  1  0
 12 13  2  0
 13  7  1  0
A    1
 N1 
A    2
 S1 
A    3
 O1 
A    4
 O2 
A    5
 C1 
A    6
 C2 
A    7
 C3 
A    8
 C4 
A    9
 C5 
A   10
 C6 
A   11
 F1 
A   12
 C7 
A   13
 C8 
M  END
>  <ref_pdb>  (424) 
Ax0310a

>  <ref_mols>  (424) 
Ax0446a,Ax1080a,Ax0812a,Ax0719a,Ax1140a,Ax0528a,Ax0310a

>  <original SMILES>  (424) 
NS(=O)(=O)CCc1ccc(F)cc1

>  <rationale>  (424) 
info info set:sulfonimide_whole;halogenbond:S105; hbond:S87+G127+E85; 

>  <experiment>  (424) 
sulfonimide_whole

>  <cluster_label>  (424) 
3

>  <cluster_rank>  (424) 
88

>  <N_interactions>  (424) 
4

>  <∆∆G>  (424) 
-5.205243

>  <comRMSD>  (424) 
0.727063

>  <ROCS_TanimotoCombo>  (424) 
0.352

>  <ROCS_ShapeTanimoto>  (424) 
0.169

>  <ROCS_ColorTanimoto>  (424) 
0.183

$$$$
Z7889161971
     RDKit          3D

 16 16  0  0  0  0  0  0  0  0999 V2000
   27.3433   13.6739    5.9744 C   0  0  0  0  0  0  0  0  0  0  0  0
   27.1657   14.3215    7.2208 O   0  0  0  0  0  0  0  0  0  0  0  0
   28.3036   15.0493    7.6571 C   0  0  0  0  0  0  0  0  0  0  0  0
   28.7432   16.4167    7.5714 O   0  0  0  0  0  0  0  0  0  0  0  0
   29.3352   14.2564    8.3737 C   0  0  0  0  0  0  0  0  0  0  0  0
   29.8182   13.0898    7.6449 C   0  0  0  0  0  0  0  0  0  0  0  0
   30.8284   12.4907    8.5131 C   0  0  0  0  0  0  0  0  0  0  0  0
   30.6021   11.0909    8.4583 O   0  0  0  0  0  0  0  0  0  0  0  0
   31.4077   10.6705    7.5026 C   0  0  0  0  0  0  0  0  0  0  0  0
   31.8571    9.2523    7.4788 C   0  0  0  0  0  0  0  0  0  0  0  0
   32.7112    8.7364    6.5651 N   0  0  0  0  0  0  0  0  0  0  0  0
   33.1728    9.5770    5.6056 C   0  0  0  0  0  0  0  0  0  0  0  0
   34.2747    8.9265    4.4634 Cl  0  0  0  0  0  0  0  0  0  0  0  0
   32.8174   10.9030    5.4994 C   0  0  0  0  0  0  0  0  0  0  0  0
   33.2869   11.6830    4.5232 F   0  0  0  0  0  0  0  0  0  0  0  0
   31.8747   11.4922    6.5152 C   0  0  0  0  0  0  0  0  0  0  0  0
  1  2  1  0
  2  3  1  0
  3  4  2  0
  3  5  1  0
  5  6  2  3
  6  7  1  0
  7  8  1  0
  8  9  1  0
  9 10  2  0
 10 11  1  0
 11 12  2  0
 12 13  1  0
 12 14  1  0
 14 15  1  0
 14 16  2  0
 16  9  1  0
A    1
 C1 
A    2
 O1 
A    3
 C2 
A    4
 O2 
A    5
 C3 
A    6
 C4 
A    7
 C5 
A    8
 O3 
A    9
 C6 
A   10
 C7 
A   11
 N1 
A   12
 C8 
A   13
CL1 
A   14
 C9 
A   15
 F1 
A   16
 C10
M  END
>  <ref_pdb>  (425) 
Ax0310a

>  <ref_mols>  (425) 
Ax0446a,Ax1080a,Ax0812a,Ax0719a,Ax1140a,Ax0528a,Ax0310a

>  <original SMILES>  (425) 
COC(=O)C=CCOc1cnc(Cl)c(F)c1

>  <rationale>  (425) 
info info set:screening_pocket;hbond:Y90; hydroph_interaction:P107; saltbridge:H21; 

>  <experiment>  (425) 
screening_pocket

>  <cluster_label>  (425) 
9

>  <cluster_rank>  (425) 
88

>  <N_interactions>  (425) 
3

>  <∆∆G>  (425) 
-0.849675

>  <comRMSD>  (425) 
0.734161

>  <ROCS_TanimotoCombo>  (425) 
0.631

>  <ROCS_ShapeTanimoto>  (425) 
0.204

>  <ROCS_ColorTanimoto>  (425) 
0.427

$$$$
EN300_37325495
     RDKit          3D

 18 18  0  0  0  0  0  0  0  0999 V2000
   27.0387   13.2150    6.4209 C   0  0  0  0  0  0  0  0  0  0  0  0
   27.8469   13.8883    7.5187 C   0  0  0  0  0  0  0  0  0  0  0  0
   27.3675   14.6203    8.5736 C   0  0  0  0  0  0  0  0  0  0  0  0
   28.7947   14.7968    6.8279 C   0  0  0  0  0  0  0  0  0  0  0  0
   28.6304   12.8046    7.9972 O   0  0  0  0  0  0  0  0  0  0  0  0
   29.7496   12.5809    7.3112 C   0  0  0  0  0  0  0  0  0  0  0  0
   29.9080   12.7084    6.1132 O   0  0  0  0  0  0  0  0  0  0  0  0
   30.6821   12.2094    8.1400 N   0  0  0  0  0  0  0  0  0  0  0  0
   31.8283   11.4980    7.6548 C   0  0  1  0  0  0  0  0  0  0  0  0
   31.5805   10.4407    6.6318 C   0  0  0  0  0  0  0  0  0  0  0  0
   32.8171   10.0104    6.0836 C   0  0  0  0  0  0  0  0  0  0  0  0
   33.7552   10.9916    5.5008 C   0  0  0  0  0  0  0  0  0  0  0  0
   33.5263   12.3684    6.0597 C   0  0  0  0  0  0  0  0  0  0  0  0
   33.1176   12.2982    7.3678 C   0  0  1  0  0  0  0  0  0  0  0  0
   33.4113   13.8382    8.1631 S   0  0  0  0  0  6  0  0  0  0  0  0
   34.6942   13.5719    9.1969 N   0  0  0  0  0  0  0  0  0  0  0  0
   34.0227   14.5802    7.0928 O   0  0  0  0  0  0  0  0  0  0  0  0
   32.2909   14.2881    8.9667 O   0  0  0  0  0  0  0  0  0  0  0  0
  1  2  1  0
  2  3  1  0
  2  4  1  0
  2  5  1  0
  5  6  1  0
  6  7  2  0
  6  8  1  0
  9  8  1  6
  9 10  1  0
 10 11  1  0
 11 12  1  0
 12 13  1  0
 13 14  1  0
 14 15  1  6
 15 16  1  0
 15 17  2  0
 15 18  2  0
 14  9  1  0
A    1
 C1 
A    2
 C2 
A    3
 C3 
A    4
 C4 
A    5
 O1 
A    6
 C5 
A    7
 O2 
A    8
 N1 
A    9
 C6 
A   10
 C7 
A   11
 C8 
A   12
 C9 
A   13
 C10
A   14
 C11
A   15
 S1 
A   16
 N2 
A   17
 O3 
A   18
 O4 
M  END
>  <ref_pdb>  (426) 
Ax0310a

>  <ref_mols>  (426) 
Ax0446a,Ax1080a,Ax0812a,Ax0719a,Ax1140a,Ax0528a,Ax0310a

>  <original SMILES>  (426) 
CC(C)(C)OC(=O)N[C@H]1CCCC[C@H]1S(N)(=O)=O

>  <rationale>  (426) 
info info set:sulfonimide_whole;hbond:S87+S125+G127+E85; hydroph_interaction:P107+Y89; 

>  <experiment>  (426) 
sulfonimide_whole

>  <cluster_label>  (426) 
3

>  <cluster_rank>  (426) 
89

>  <N_interactions>  (426) 
7

>  <∆∆G>  (426) 
-3.834011

>  <comRMSD>  (426) 
0.922848

>  <ROCS_TanimotoCombo>  (426) 
0.339

>  <ROCS_ShapeTanimoto>  (426) 
0.194

>  <ROCS_ColorTanimoto>  (426) 
0.145

$$$$
Z225301984
     RDKit          3D

 15 15  0  0  0  0  0  0  0  0999 V2000
   28.8303   16.1166    8.0785 C   0  0  0  0  0  0  0  0  0  0  0  0
   29.5607   14.9531    8.2294 O   0  0  0  0  0  0  0  0  0  0  0  0
   28.6888   14.1294    7.6456 C   0  0  0  0  0  0  0  0  0  0  0  0
   27.5163   14.4391    7.6087 O   0  0  0  0  0  0  0  0  0  0  0  0
   29.1856   12.8768    7.0213 C   0  0  0  0  0  0  0  0  0  0  0  0
   30.4772   12.6947    7.3087 N   0  0  0  0  0  0  0  0  0  0  0  0
   30.7611   11.5193    7.7831 C   0  0  0  0  0  0  0  0  0  0  0  0
   30.2291   11.0585    8.7478 O   0  0  0  0  0  0  0  0  0  0  0  0
   31.8058   10.6941    7.0435 C   0  0  0  0  0  0  0  0  0  0  0  0
   32.6758   11.4102    6.2625 N   0  0  0  0  0  0  0  0  0  0  0  0
   33.5697   10.6544    5.6241 C   0  0  0  0  0  0  0  0  0  0  0  0
   33.5392    9.1758    5.8112 C   0  0  0  0  0  0  0  0  0  0  0  0
   32.6554    8.5514    6.5997 N   0  0  0  0  0  0  0  0  0  0  0  0
   31.7622    9.3259    7.2344 C   0  0  0  0  0  0  0  0  0  0  0  0
   30.8210    8.6925    8.0648 N   0  0  0  0  0  0  0  0  0  0  0  0
  1  2  1  0
  2  3  1  0
  3  4  2  0
  3  5  1  0
  5  6  1  0
  6  7  1  0
  7  8  2  0
  7  9  1  0
  9 10  2  0
 10 11  1  0
 11 12  2  0
 12 13  1  0
 13 14  2  0
 14 15  1  0
 14  9  1  0
A    1
 C1 
A    2
 O1 
A    3
 C2 
A    4
 O2 
A    5
 C3 
A    6
 N1 
A    7
 C4 
A    8
 O3 
A    9
 C5 
A   10
 N2 
A   11
 C6 
A   12
 C7 
A   13
 N3 
A   14
 C8 
A   15
 N4 
M  END
>  <ref_pdb>  (427) 
Ax0310a

>  <ref_mols>  (427) 
Ax0446a,Ax1080a,Ax0812a,Ax0719a,Ax1140a,Ax0528a,Ax0310a

>  <original SMILES>  (427) 
COC(=O)CNC(=O)c1nccnc1N

>  <rationale>  (427) 
info info set:screening_pocket;hbond:S87+S105+G127; saltbridge:H21; 

>  <experiment>  (427) 
screening_pocket

>  <cluster_label>  (427) 
9

>  <cluster_rank>  (427) 
89

>  <N_interactions>  (427) 
5

>  <∆∆G>  (427) 
-0.791177

>  <comRMSD>  (427) 
0.968531

>  <ROCS_TanimotoCombo>  (427) 
0.624

>  <ROCS_ShapeTanimoto>  (427) 
0.232

>  <ROCS_ColorTanimoto>  (427) 
0.392

$$$$
EN300_801708
     RDKit          3D

 18 19  0  0  0  0  0  0  0  0999 V2000
   34.8761   11.8565    2.3054 C   0  0  0  0  0  0  0  0  0  0  0  0
   34.2930   11.1004    3.4701 C   0  0  0  0  0  0  0  0  0  0  0  0
   34.8268    9.6678    3.5078 C   0  0  0  0  0  0  0  0  0  0  0  0
   34.1640    9.0065    4.6939 C   0  0  0  0  0  0  0  0  0  0  0  0
   33.1550    9.6961    5.6271 C   0  0  0  0  0  0  0  0  0  0  0  0
   32.5909    9.0145    6.6292 N   0  0  0  0  0  0  0  0  0  0  0  0
   31.6358    9.5839    7.5165 C   0  0  0  0  0  0  0  0  0  0  0  0
   31.1411    8.5767    8.4733 C   0  0  0  0  0  0  0  0  0  0  0  0
   29.7263    8.9048    8.7754 C   0  0  0  0  0  0  0  0  0  0  0  0
   29.2320    8.7352   10.0963 C   0  0  0  0  0  0  0  0  0  0  0  0
   29.1074    7.6495    8.5269 C   0  0  0  0  0  0  0  0  0  0  0  0
   29.0264   10.1741    8.3436 C   0  0  0  0  0  0  0  0  0  0  0  0
   31.2946   10.9405    7.3665 C   0  0  0  0  0  0  0  0  0  0  0  0
   30.3699   11.6826    8.1677 N   0  0  0  0  0  0  0  0  0  0  0  0
   30.1529   13.0314    7.8351 N   0  0  0  0  0  0  0  0  0  0  0  0
   31.9124   11.6097    6.3054 C   0  0  0  0  0  0  0  0  0  0  0  0
   32.8244   11.0103    5.4242 C   0  0  0  0  0  0  0  0  0  0  0  0
   33.3908   11.6953    4.3562 C   0  0  0  0  0  0  0  0  0  0  0  0
  1  2  1  0
  2  3  2  0
  3  4  1  0
  4  5  2  0
  5  6  1  0
  6  7  2  0
  7  8  1  0
  8  9  1  0
  9 10  1  0
  9 11  1  0
  9 12  1  0
  7 13  1  0
 13 14  1  0
 14 15  1  0
 13 16  2  0
 16 17  1  0
 17 18  2  0
 18  2  1  0
 17  5  1  0
A    1
 C1 
A    2
 C2 
A    3
 C3 
A    4
 C4 
A    5
 C5 
A    6
 N1 
A    7
 C6 
A    8
 C7 
A    9
 C8 
A   10
 C9 
A   11
 C10
A   12
 C11
A   13
 C12
A   14
 N2 
A   15
 N3 
A   16
 C13
A   17
 C14
A   18
 C15
M  END
>  <ref_pdb>  (428) 
Ax0310a

>  <ref_mols>  (428) 
Ax0446a,Ax1080a,Ax0812a,Ax0719a,Ax1140a,Ax0528a,Ax0310a

>  <original SMILES>  (428) 
Cc1ccc2nc(CC(C)(C)C)c(NN)cc2c1

>  <rationale>  (428) 
info info set:bb_densepocket2;hbond:S125; hydroph_interaction:P107+V124+D109; 

>  <experiment>  (428) 
bb_densepocket2

>  <cluster_label>  (428) 
3

>  <cluster_rank>  (428) 
90

>  <N_interactions>  (428) 
5

>  <∆∆G>  (428) 
-2.836078

>  <comRMSD>  (428) 
0.707499

>  <ROCS_TanimotoCombo>  (428) 
0.646

>  <ROCS_ShapeTanimoto>  (428) 
0.254

>  <ROCS_ColorTanimoto>  (428) 
0.392

$$$$
Z86257706
     RDKit          3D

 25 27  0  0  0  0  0  0  0  0999 V2000
   27.2844   14.8889   10.2384 C   0  0  0  0  0  0  0  0  0  0  0  0
   27.2783   15.6202    9.0673 O   0  0  0  0  0  0  0  0  0  0  0  0
   28.2997   14.9339    8.4635 C   0  0  0  0  0  0  0  0  0  0  0  0
   28.0003   14.3702    7.0889 C   0  0  0  0  0  0  0  0  0  0  0  0
   29.1998   13.6644    6.5748 C   0  0  0  0  0  0  0  0  0  0  0  0
   30.5233   13.5660    7.4071 C   0  0  0  0  0  0  0  0  0  0  0  0
   31.4095   12.9259    6.6767 N   0  0  0  0  0  0  0  0  0  0  0  0
   31.5952   11.6704    6.8556 C   0  0  0  0  0  0  0  0  0  0  0  0
   30.8306   10.8494    7.5691 N   0  0  0  0  0  0  0  0  0  0  0  0
   31.1670    9.5519    7.6556 C   0  0  0  0  0  0  0  0  0  0  0  0
   30.2745    8.6877    8.5199 C   0  0  0  0  0  0  0  0  0  0  0  0
   29.9655    9.2654    9.6613 F   0  0  0  0  0  0  0  0  0  0  0  0
   29.0995    8.2899    8.0280 F   0  0  0  0  0  0  0  0  0  0  0  0
   30.8621    7.6081    8.9618 F   0  0  0  0  0  0  0  0  0  0  0  0
   32.2037    8.9866    7.0687 N   0  0  0  0  0  0  0  0  0  0  0  0
   32.9836    9.7880    6.3467 C   0  0  0  0  0  0  0  0  0  0  0  0
   34.2273    9.3215    5.6008 C   0  0  0  0  0  0  0  0  0  0  0  0
   35.0328   10.3878    4.8358 C   0  0  0  0  0  0  0  0  0  0  0  0
   34.6504   11.7184    4.8103 C   0  0  0  0  0  0  0  0  0  0  0  0
   33.5160   12.1589    5.4701 C   0  0  0  0  0  0  0  0  0  0  0  0
   32.7237   11.2625    6.1945 C   0  0  0  0  0  0  0  0  0  0  0  0
   30.6012   14.1428    8.6885 C   0  0  0  0  0  0  0  0  0  0  0  0
   31.6512   14.0507    9.3365 O   0  0  0  0  0  0  0  0  0  0  0  0
   32.9027   13.7564    8.7361 C   0  0  0  0  0  0  0  0  0  0  0  0
   29.4915   14.8138    9.1826 C   0  0  0  0  0  0  0  0  0  0  0  0
  1  2  1  0
  2  3  1  0
  3  4  2  0
  4  5  1  0
  5  6  2  0
  6  7  1  0
  7  8  1  0
  8  9  2  0
  9 10  1  0
 10 11  1  0
 11 12  1  0
 11 13  1  0
 11 14  1  0
 10 15  2  0
 15 16  1  0
 16 17  2  0
 17 18  1  0
 18 19  2  0
 19 20  1  0
 20 21  2  0
  6 22  1  0
 22 23  1  0
 23 24  1  0
 22 25  2  0
 25  3  1  0
 21  8  1  0
 21 16  1  0
A    1
 C1 
A    2
 O1 
A    3
 C2 
A    4
 C3 
A    5
 C4 
A    6
 C5 
A    7
 N1 
A    8
 C6 
A    9
 N2 
A   10
 C7 
A   11
 C8 
A   12
 F1 
A   13
 F2 
A   14
 F3 
A   15
 N3 
A   16
 C9 
A   17
 C10
A   18
 C11
A   19
 C12
A   20
 C13
A   21
 C14
A   22
 C15
A   23
 O2 
A   24
 C16
A   25
 C17
M  END
>  <ref_pdb>  (429) 
Ax0310a

>  <ref_mols>  (429) 
Ax0446a,Ax1080a,Ax0812a,Ax0719a,Ax1140a,Ax0528a,Ax0310a

>  <original SMILES>  (429) 
COc1ccc(Nc2nc(C(F)(F)F)nc3ccccc23)c(OC)c1

>  <rationale>  (429) 
info info set:screening_whole;halogenbond:P107; hbond:S87+S105; hydroph_interaction:Y90; 

>  <experiment>  (429) 
screening_whole

>  <cluster_label>  (429) 
9

>  <cluster_rank>  (429) 
90

>  <N_interactions>  (429) 
4

>  <∆∆G>  (429) 
-2.10411

>  <comRMSD>  (429) 
0.766974

>  <ROCS_TanimotoCombo>  (429) 
0.456

>  <ROCS_ShapeTanimoto>  (429) 
0.271

>  <ROCS_ColorTanimoto>  (429) 
0.185

$$$$
Z1251362656
     RDKit          3D

 14 16  0  0  0  0  0  0  0  0999 V2000
   34.2948   10.2467    5.4796 C   0  0  0  0  0  0  0  0  0  0  0  0
   34.2901   11.7522    5.3761 C   0  0  0  0  0  0  0  0  0  0  0  0
   33.1645   12.4932    6.0674 C   0  0  0  0  0  0  0  0  0  0  0  0
   32.1961   11.6533    6.7765 C   0  0  0  0  0  0  0  0  0  0  0  0
   32.2942   10.2661    6.8349 C   0  0  0  0  0  0  0  0  0  0  0  0
   33.3034    9.5722    6.2011 C   0  0  0  0  0  0  0  0  0  0  0  0
   31.1735    9.6770    7.6707 C   0  0  0  0  0  0  0  0  0  0  0  0
   30.4520   10.8172    8.0919 C   0  0  0  0  0  0  0  0  0  0  0  0
   31.0967   12.0385    7.4572 C   0  0  1  0  0  0  0  0  0  0  0  0
   31.4253   13.1941    8.4095 C   0  0  0  0  0  0  0  0  0  0  0  0
   30.2592   13.6210    9.1863 N   0  0  0  0  0  0  0  0  0  0  0  0
   29.1118   13.9378    8.2836 C   0  0  0  0  0  0  0  0  0  0  0  0
   28.9420   13.0946    7.1243 C   0  0  0  0  0  0  0  0  0  0  0  0
   30.1469   12.5592    6.5236 O   0  0  0  0  0  0  0  0  0  0  0  0
  1  2  2  0
  2  3  1  0
  3  4  2  0
  4  5  1  0
  5  6  2  0
  5  7  1  0
  7  8  1  0
  9  8  1  1
  9 10  1  0
 10 11  1  0
 11 12  1  0
 12 13  1  0
 13 14  1  0
  6  1  1  0
  9 14  1  0
  9  4  1  0
A    1
 C1 
A    2
 C2 
A    3
 C3 
A    4
 C4 
A    5
 C5 
A    6
 C6 
A    7
 C7 
A    8
 C8 
A    9
 C9 
A   10
 C10
A   11
 N1 
A   12
 C11
A   13
 C12
A   14
 O1 
M  END
>  <ref_pdb>  (430) 
Ax0310a

>  <ref_mols>  (430) 
Ax0446a,Ax1080a,Ax0812a,Ax0719a,Ax1140a,Ax0528a,Ax0310a

>  <original SMILES>  (430) 
c1ccc2c(c1)CC[C@@]21CNCCO1

>  <rationale>  (430) 
info info set:3d;hbond:S87+S125; 

>  <experiment>  (430) 
3d

>  <cluster_label>  (430) 
3

>  <cluster_rank>  (430) 
91

>  <N_interactions>  (430) 
2

>  <∆∆G>  (430) 
-4.862149

>  <comRMSD>  (430) 
0.679654

>  <ROCS_TanimotoCombo>  (430) 
0.333

>  <ROCS_ShapeTanimoto>  (430) 
0.212

>  <ROCS_ColorTanimoto>  (430) 
0.121

$$$$
EN300_1725251
     RDKit          3D

 17 18  0  0  0  0  0  0  0  0999 V2000
   28.7951   13.9922    9.4026 C   0  0  0  0  0  0  0  0  0  0  0  0
   30.1451   14.0379    8.7134 C   0  0  0  0  0  0  0  0  0  0  0  0
   30.8861   12.8084    8.8426 O   0  0  0  0  0  0  0  0  0  0  0  0
   30.4052   11.7444    8.1462 C   0  0  0  0  0  0  0  0  0  0  0  0
   29.2319   11.6039    7.8840 O   0  0  0  0  0  0  0  0  0  0  0  0
   31.4864   10.7851    7.6846 C   0  0  2  0  0  0  0  0  0  0  0  0
   32.8781   11.3277    7.1186 C   0  0  0  0  0  0  0  0  0  0  0  0
   32.8951    9.9432    6.3421 C   0  0  2  0  0  0  0  0  0  0  0  0
   33.7060    9.7081    5.0748 C   0  0  0  0  0  0  0  0  0  0  0  0
   35.0959   10.1267    5.1060 N   0  0  0  0  0  0  0  0  0  0  0  0
   35.7766    9.7394    4.1403 N   0  0  0  0  0  4  0  0  0  0  0  0
   36.4288    9.3745    3.2774 N   0  0  0  0  0  2  0  0  0  0  0  0
   31.6704   10.8519    6.1417 C   0  0  0  0  0  0  0  0  0  0  0  0
   32.2422    8.7118    6.9024 O   0  0  0  0  0  0  0  0  0  0  0  0
   31.2519    9.2226    7.8066 C   0  0  0  0  0  0  0  0  0  0  0  0
   31.2882    8.3852    9.0147 C   0  0  0  0  0  0  0  0  0  0  0  0
   29.8824    8.6416    8.1252 C   0  0  0  0  0  0  0  0  0  0  0  0
  1  2  1  0
  2  3  1  0
  3  4  1  0
  4  5  2  0
  6  4  1  6
  6  7  1  0
  7  8  1  0
  8  9  1  6
  9 10  1  0
 10 11  2  0
 11 12  2  0
  8 13  1  0
  8 14  1  0
 14 15  1  0
 15 16  1  0
 15 17  1  0
 13  6  1  0
 15  6  1  0
M  CHG  2  11   1  12  -1
A    1
 C1 
A    2
 C2 
A    3
 O1 
A    4
 C3 
A    5
 O2 
A    6
 C4 
A    7
 C5 
A    8
 C6 
A    9
 C7 
A   10
 N1 
A   11
 N2 
A   12
 N3 
A   13
 C8 
A   14
 O3 
A   15
 C9 
A   16
 C10
A   17
 C11
M  END
>  <ref_pdb>  (431) 
Ax0310a

>  <ref_mols>  (431) 
Ax0446a,Ax1080a,Ax0812a,Ax0719a,Ax1140a,Ax0528a,Ax0310a

>  <original SMILES>  (431) 
CCOC(=O)[C@]12C[C@](CN=[N+]=[N-])(C1)OC2(C)C

>  <rationale>  (431) 
info info set:bb_densepocket;hydroph_interaction:P107+V124; saltbridge:H21; 

>  <experiment>  (431) 
bb_densepocket

>  <cluster_label>  (431) 
9

>  <cluster_rank>  (431) 
91

>  <N_interactions>  (431) 
3

>  <∆∆G>  (431) 
-0.175288

>  <comRMSD>  (431) 
0.894807

>  <ROCS_TanimotoCombo>  (431) 
0.755

>  <ROCS_ShapeTanimoto>  (431) 
0.267

>  <ROCS_ColorTanimoto>  (431) 
0.487

$$$$
EN300_801681
     RDKit          3D

 18 19  0  0  0  0  0  0  0  0999 V2000
   35.0420    8.1491    4.5984 C   0  0  0  0  0  0  0  0  0  0  0  0
   34.2385    9.3816    4.6910 C   0  0  0  0  0  0  0  0  0  0  0  0
   34.7321   10.2638    3.5337 C   0  0  0  0  0  0  0  0  0  0  0  0
   34.1459   11.6492    3.3139 C   0  0  0  0  0  0  0  0  0  0  0  0
   33.1024   11.9684    4.3436 C   0  0  0  0  0  0  0  0  0  0  0  0
   32.6964   11.0118    5.4337 C   0  0  0  0  0  0  0  0  0  0  0  0
   31.6221   11.7396    6.2283 C   0  0  0  0  0  0  0  0  0  0  0  0
   31.1278   10.8642    7.3466 C   0  0  0  0  0  0  0  0  0  0  0  0
   30.1264   11.3417    8.2094 N   0  0  0  0  0  0  0  0  0  0  0  0
   30.0852   12.6950    8.5692 N   0  0  0  0  0  0  0  0  0  0  0  0
   31.6689    9.5870    7.5178 C   0  0  0  0  0  0  0  0  0  0  0  0
   31.1211    8.8123    8.7185 C   0  0  0  0  0  0  0  0  0  0  0  0
   29.8917    8.3732    9.0687 C   0  0  0  0  0  0  0  0  0  0  0  0
   29.2873    8.6613   10.1299 C   0  0  0  0  0  0  0  0  0  0  0  0
   29.0619    8.8063    8.0743 C   0  0  0  0  0  0  0  0  0  0  0  0
   29.7895    6.9829    9.1521 C   0  0  0  0  0  0  0  0  0  0  0  0
   32.6729    9.0185    6.7065 N   0  0  0  0  0  0  0  0  0  0  0  0
   33.1986    9.7420    5.6505 C   0  0  0  0  0  0  0  0  0  0  0  0
  1  2  1  0
  2  3  2  0
  3  4  1  0
  4  5  2  0
  5  6  1  0
  6  7  2  0
  7  8  1  0
  8  9  1  0
  9 10  1  0
  8 11  2  0
 11 12  1  0
 12 13  1  0
 13 14  1  0
 13 15  1  0
 13 16  1  0
 11 17  1  0
 17 18  2  0
 18  2  1  0
 18  6  1  0
A    1
 C1 
A    2
 C2 
A    3
 C3 
A    4
 C4 
A    5
 C5 
A    6
 C6 
A    7
 C7 
A    8
 C8 
A    9
 N1 
A   10
 N2 
A   11
 C9 
A   12
 C10
A   13
 C11
A   14
 C12
A   15
 C13
A   16
 C14
A   17
 N3 
A   18
 C15
M  END
>  <ref_pdb>  (432) 
Ax0310a

>  <ref_mols>  (432) 
Ax0446a,Ax1080a,Ax0812a,Ax0719a,Ax1140a,Ax0528a,Ax0310a

>  <original SMILES>  (432) 
Cc1cccc2cc(NN)c(CC(C)(C)C)nc12

>  <rationale>  (432) 
info info set:bb_densepocket2;hbond:S125; hydroph_interaction:P107+V124+D109; 

>  <experiment>  (432) 
bb_densepocket2

>  <cluster_label>  (432) 
3

>  <cluster_rank>  (432) 
92

>  <N_interactions>  (432) 
5

>  <∆∆G>  (432) 
-2.27773

>  <comRMSD>  (432) 
0.690516

>  <ROCS_TanimotoCombo>  (432) 
0.648

>  <ROCS_ShapeTanimoto>  (432) 
0.256

>  <ROCS_ColorTanimoto>  (432) 
0.392

$$$$
Z86333678
     RDKit          3D

 25 27  0  0  0  0  0  0  0  0999 V2000
   33.0631   13.9888    8.7548 C   0  0  0  0  0  0  0  0  0  0  0  0
   31.9091   13.1703    8.6941 O   0  0  0  0  0  0  0  0  0  0  0  0
   30.6526   13.6650    8.4521 C   0  0  0  0  0  0  0  0  0  0  0  0
   29.8576   14.3874    9.5756 C   0  0  0  0  0  0  0  0  0  0  0  0
   28.4208   14.8269    8.9681 C   0  0  0  0  0  0  0  0  0  0  0  0
   27.4316   15.5295    9.7642 C   0  0  0  0  0  0  0  0  0  0  0  0
   26.6709   16.0614   10.3359 N   0  0  0  0  0  0  0  0  0  0  0  0
   28.1618   14.4973    7.6247 C   0  0  0  0  0  0  0  0  0  0  0  0
   28.9821   13.8540    6.7617 C   0  0  0  0  0  0  0  0  0  0  0  0
   30.1871   13.4684    7.1966 C   0  0  0  0  0  0  0  0  0  0  0  0
   30.9063   12.8775    6.2810 O   0  0  0  0  0  0  0  0  0  0  0  0
   31.3292   11.6349    6.6315 C   0  0  0  0  0  0  0  0  0  0  0  0
   30.6112   10.8908    7.4693 N   0  0  0  0  0  0  0  0  0  0  0  0
   31.0989    9.6640    7.7052 C   0  0  0  0  0  0  0  0  0  0  0  0
   30.3813    8.7713    8.6221 C   0  0  0  0  0  0  0  0  0  0  0  0
   31.1519    7.8329    9.1679 F   0  0  0  0  0  0  0  0  0  0  0  0
   29.2794    8.1521    8.1694 F   0  0  0  0  0  0  0  0  0  0  0  0
   29.9281    9.3679    9.6882 F   0  0  0  0  0  0  0  0  0  0  0  0
   32.2433    9.2006    7.1273 N   0  0  0  0  0  0  0  0  0  0  0  0
   32.9148   10.0170    6.3163 C   0  0  0  0  0  0  0  0  0  0  0  0
   34.1664    9.5815    5.6723 C   0  0  0  0  0  0  0  0  0  0  0  0
   34.9132   10.4021    4.8397 C   0  0  0  0  0  0  0  0  0  0  0  0
   34.4911   11.6961    4.5637 C   0  0  0  0  0  0  0  0  0  0  0  0
   33.3105   12.1823    5.1159 C   0  0  0  0  0  0  0  0  0  0  0  0
   32.4956   11.2805    6.0361 C   0  0  0  0  0  0  0  0  0  0  0  0
  1  2  1  0
  2  3  1  0
  3  4  2  0
  4  5  1  0
  5  6  1  0
  6  7  3  0
  5  8  2  0
  8  9  1  0
  9 10  2  0
 10 11  1  0
 11 12  1  0
 12 13  2  0
 13 14  1  0
 14 15  1  0
 15 16  1  0
 15 17  1  0
 15 18  1  0
 14 19  2  0
 19 20  1  0
 20 21  2  0
 21 22  1  0
 22 23  2  0
 23 24  1  0
 24 25  2  0
 10  3  1  0
 25 12  1  0
 25 20  1  0
A    1
 C1 
A    2
 O1 
A    3
 C2 
A    4
 C3 
A    5
 C4 
A    6
 C5 
A    7
 N1 
A    8
 C6 
A    9
 C7 
A   10
 C8 
A   11
 O2 
A   12
 C9 
A   13
 N2 
A   14
 C10
A   15
 C11
A   16
 F1 
A   17
 F2 
A   18
 F3 
A   19
 N3 
A   20
 C12
A   21
 C13
A   22
 C14
A   23
 C15
A   24
 C16
A   25
 C17
M  END
>  <ref_pdb>  (433) 
Ax0310a

>  <ref_mols>  (433) 
Ax0446a,Ax1080a,Ax0812a,Ax0719a,Ax1140a,Ax0528a,Ax0310a

>  <original SMILES>  (433) 
COc1cc(C#N)ccc1Oc1nc(C(F)(F)F)nc2ccccc12

>  <rationale>  (433) 
info info set:screening_whole;halogenbond:P107; hbond:G127; hydroph_interaction:P107; 

>  <experiment>  (433) 
screening_whole

>  <cluster_label>  (433) 
9

>  <cluster_rank>  (433) 
92

>  <N_interactions>  (433) 
3

>  <∆∆G>  (433) 
-0.652659

>  <comRMSD>  (433) 
0.599032

>  <ROCS_TanimotoCombo>  (433) 
0.455

>  <ROCS_ShapeTanimoto>  (433) 
0.279

>  <ROCS_ColorTanimoto>  (433) 
0.177

$$$$
EN300_37102247
     RDKit          3D

 25 27  0  0  0  0  0  0  0  0999 V2000
   33.0501   13.9386    4.3538 C   0  0  0  0  0  0  0  0  0  0  0  0
   33.8031   13.5561    5.6270 C   0  0  0  0  0  0  0  0  0  0  0  0
   33.4451   12.1072    5.9147 C   0  0  0  0  0  0  0  0  0  0  0  0
   34.3269   11.1692    5.0687 C   0  0  0  0  0  0  0  0  0  0  0  0
   33.9997    9.7364    5.3144 C   0  0  0  0  0  0  0  0  0  0  0  0
   32.9307    9.2588    6.2809 C   0  0  0  0  0  0  0  0  0  0  0  0
   32.2584   10.2794    6.9425 C   0  0  0  0  0  0  0  0  0  0  0  0
   32.4740   11.6460    6.7960 C   0  0  0  0  0  0  0  0  0  0  0  0
   31.6742   12.5503    7.5789 N   0  0  0  0  0  0  0  0  0  0  0  0
   32.3098   13.4514    8.5330 C   0  0  0  0  0  0  0  0  0  0  0  0
   31.6989   14.3365    9.1241 O   0  0  0  0  0  0  0  0  0  0  0  0
   33.7024   13.1730    8.7023 O   0  0  0  0  0  0  0  0  0  0  0  0
   34.5535   14.3075    8.7583 C   0  0  0  0  0  0  0  0  0  0  0  0
   35.8739   13.9440    9.4145 C   0  0  0  0  0  0  0  0  0  0  0  0
   33.6508   15.1924    9.6465 C   0  0  0  0  0  0  0  0  0  0  0  0
   34.7969   14.8377    7.3421 C   0  0  0  0  0  0  0  0  0  0  0  0
   30.3151   12.1517    7.9656 C   0  0  1  0  0  0  0  0  0  0  0  0
   29.2016   12.7140    7.0624 C   0  0  0  0  0  0  0  0  0  0  0  0
   29.3291   13.0705    5.9082 O   0  0  0  0  0  0  0  0  0  0  0  0
   27.9514   12.8016    7.7687 O   0  0  0  0  0  0  0  0  0  0  0  0
   30.2156   10.7198    8.4445 C   0  0  1  0  0  0  0  0  0  0  0  0
   28.9469    9.9286    8.6358 C   0  0  0  0  0  0  0  0  0  0  0  0
   29.3938    8.5594    8.2956 C   0  0  0  0  0  0  0  0  0  0  0  0
   30.6473    8.5529    7.8627 C   0  0  0  0  0  0  0  0  0  0  0  0
   31.2394    9.8283    7.8974 C   0  0  1  0  0  0  0  0  0  0  0  0
  1  2  1  0
  2  3  1  0
  3  4  2  0
  4  5  1  0
  5  6  2  0
  6  7  1  0
  7  8  2  0
  8  9  1  0
  9 10  1  0
 10 11  2  0
 10 12  1  0
 12 13  1  0
 13 14  1  0
 13 15  1  0
 13 16  1  0
  9 17  1  0
 17 18  1  6
 18 19  2  0
 18 20  1  0
 17 21  1  0
 21 22  1  6
 22 23  1  0
 23 24  2  0
 25 24  1  6
  8  3  1  0
 25 21  1  0
 25  7  1  0
A    1
 C1 
A    2
 C2 
A    3
 C3 
A    4
 C4 
A    5
 C5 
A    6
 C6 
A    7
 C7 
A    8
 C8 
A    9
 N1 
A   10
 C9 
A   11
 O1 
A   12
 O2 
A   13
 C10
A   14
 C11
A   15
 C12
A   16
 C13
A   17
 C14
A   18
 C15
A   19
 O3 
A   20
 O4 
A   21
 C16
A   22
 C17
A   23
 C18
A   24
 C19
A   25
 C20
M  END
>  <ref_pdb>  (434) 
Ax0310a

>  <ref_mols>  (434) 
Ax0446a,Ax1080a,Ax0812a,Ax0719a,Ax1140a,Ax0528a,Ax0310a

>  <original SMILES>  (434) 
CCc1cccc2c1N(C(=O)OC(C)(C)C)[C@@H](C(=O)O)[C@H]1CC=C[C@@H]21

>  <rationale>  (434) 
info info set:bb_whole;hbond:S87; hydroph_interaction:V124; saltbridge:H21; 

>  <experiment>  (434) 
bb_whole

>  <cluster_label>  (434) 
9

>  <cluster_rank>  (434) 
93

>  <N_interactions>  (434) 
3

>  <∆∆G>  (434) 
-4.096819

>  <comRMSD>  (434) 
0.880674

>  <ROCS_TanimotoCombo>  (434) 
0.412

>  <ROCS_ShapeTanimoto>  (434) 
0.262

>  <ROCS_ColorTanimoto>  (434) 
0.149

$$$$
Z3027255142
     RDKit          3D

 21 24  0  0  0  0  0  0  0  0999 V2000
   27.6948   13.6942    5.7231 C   0  0  0  0  0  0  0  0  0  0  0  0
   28.3203   13.9716    7.0506 C   0  0  0  0  0  0  0  0  0  0  0  0
   27.5698   14.4815    8.0873 C   0  0  0  0  0  0  0  0  0  0  0  0
   28.1332   14.7272    9.3254 C   0  0  0  0  0  0  0  0  0  0  0  0
   29.4805   14.4759    9.5620 C   0  0  0  0  0  0  0  0  0  0  0  0
   30.2501   13.9695    8.5256 C   0  0  0  0  0  0  0  0  0  0  0  0
   31.7359   13.6689    8.7131 C   0  0  0  0  0  0  0  0  0  0  0  0
   32.4040   14.4539    9.3789 O   0  0  0  0  0  0  0  0  0  0  0  0
   32.2484   12.5238    8.1460 N   0  0  0  0  0  0  0  0  0  0  0  0
   33.2566   12.3936    7.1374 C   0  0  0  0  0  0  0  0  0  0  0  0
   34.0885   13.3759    6.6293 C   0  0  0  0  0  0  0  0  0  0  0  0
   34.9922   13.0094    5.6238 C   0  0  0  0  0  0  0  0  0  0  0  0
   35.1279   11.7697    5.0914 N   0  0  0  0  0  0  0  0  0  0  0  0
   34.3102   10.8486    5.6129 C   0  0  0  0  0  0  0  0  0  0  0  0
   33.3782   11.0962    6.6205 C   0  0  0  0  0  0  0  0  0  0  0  0
   32.5959    9.9854    7.0446 N   0  0  0  0  0  0  0  0  0  0  0  0
   31.7763   10.3383    6.0181 C   0  0  0  0  0  0  0  0  0  0  0  0
   31.2202   11.5669    6.4160 C   0  0  0  0  0  0  0  0  0  0  0  0
   31.1392   11.6519    7.7654 C   0  0  1  0  0  0  0  0  0  0  0  0
   31.3699   10.1732    7.9013 C   0  0  0  0  0  0  0  0  0  0  0  0
   29.6655   13.7162    7.2707 C   0  0  0  0  0  0  0  0  0  0  0  0
  1  2  1  0
  2  3  2  0
  3  4  1  0
  4  5  2  0
  5  6  1  0
  6  7  1  0
  7  8  2  0
  7  9  1  0
  9 10  1  0
 10 11  2  0
 11 12  1  0
 12 13  2  0
 13 14  1  0
 14 15  2  0
 15 16  1  0
 16 17  1  0
 17 18  1  0
 19 18  1  6
 19 20  1  0
  6 21  2  0
 21  2  1  0
 19  9  1  0
 15 10  1  0
 20 16  1  0
A    1
 C1 
A    2
 C2 
A    3
 C3 
A    4
 C4 
A    5
 C5 
A    6
 C6 
A    7
 C7 
A    8
 O1 
A    9
 N1 
A   10
 C8 
A   11
 C9 
A   12
 C10
A   13
 N2 
A   14
 C11
A   15
 C12
A   16
 N3 
A   17
 C13
A   18
 C14
A   19
 C15
A   20
 C16
A   21
 C17
M  END
>  <ref_pdb>  (435) 
Ax0310a

>  <ref_mols>  (435) 
Ax0446a,Ax1080a,Ax0812a,Ax0719a,Ax1140a,Ax0528a,Ax0310a

>  <original SMILES>  (435) 
Cc1cccc(C(=O)N2c3ccncc3N3CC[C@H]2C3)c1

>  <rationale>  (435) 
info info set:screening_whole;hbond:S87; hydroph_interaction:P107+Y89+Y90; 

>  <experiment>  (435) 
screening_whole

>  <cluster_label>  (435) 
3

>  <cluster_rank>  (435) 
93

>  <N_interactions>  (435) 
6

>  <∆∆G>  (435) 
-0.040633

>  <comRMSD>  (435) 
0.866

>  <ROCS_TanimotoCombo>  (435) 
0.467

>  <ROCS_ShapeTanimoto>  (435) 
0.258

>  <ROCS_ColorTanimoto>  (435) 
0.209

$$$$
Z54614656
     RDKit          3D

 17 18  0  0  0  0  0  0  0  0999 V2000
   29.2441    8.7057    8.6640 C   0  0  0  0  0  0  0  0  0  0  0  0
   30.9900    8.2788    8.6315 S   0  0  0  0  0  0  0  0  0  0  0  0
   31.7330    9.3594    7.4094 C   0  0  0  0  0  0  0  0  0  0  0  0
   32.7225    8.7477    6.5781 N   0  0  0  0  0  0  0  0  0  0  0  0
   33.3426    9.4872    5.6316 C   0  0  0  0  0  0  0  0  0  0  0  0
   33.1125   10.8370    5.3743 C   0  0  0  0  0  0  0  0  0  0  0  0
   32.0703   11.4074    6.2813 C   0  0  0  0  0  0  0  0  0  0  0  0
   31.4127   10.6823    7.2577 C   0  0  0  0  0  0  0  0  0  0  0  0
   30.3820   11.3751    8.1048 C   0  0  0  0  0  0  0  0  0  0  0  0
   29.9340   10.6276    8.9287 O   0  0  0  0  0  0  0  0  0  0  0  0
   29.9527   12.7044    7.9708 N   0  0  0  0  0  0  0  0  0  0  0  0
   28.7169   13.1607    8.6147 C   0  0  0  0  0  0  0  0  0  0  0  0
   28.2159   14.2413    7.9398 C   0  0  0  0  0  0  0  0  0  0  0  0
   27.5309   13.9073    6.8265 C   0  0  0  0  0  0  0  0  0  0  0  0
   26.2793   13.2900    7.1273 C   0  0  0  0  0  0  0  0  0  0  0  0
   26.4495   12.2330    8.0060 C   0  0  0  0  0  0  0  0  0  0  0  0
   27.6562   12.0526    8.7267 C   0  0  0  0  0  0  0  0  0  0  0  0
  1  2  1  0
  2  3  1  0
  3  4  2  0
  4  5  1  0
  5  6  2  0
  6  7  1  0
  7  8  2  0
  8  9  1  0
  9 10  2  0
  9 11  1  0
 11 12  1  0
 12 13  1  0
 13 14  1  0
 14 15  1  0
 15 16  1  0
 16 17  1  0
  8  3  1  0
 17 12  1  0
A    1
 C1 
A    2
 S1 
A    3
 C2 
A    4
 N1 
A    5
 C3 
A    6
 C4 
A    7
 C5 
A    8
 C6 
A    9
 C7 
A   10
 O1 
A   11
 N2 
A   12
 C8 
A   13
 C9 
A   14
 C10
A   15
 C11
A   16
 C12
A   17
 C13
M  END
>  <ref_pdb>  (436) 
Ax0310a

>  <ref_mols>  (436) 
Ax0446a,Ax1080a,Ax0812a,Ax0719a,Ax1140a,Ax0528a,Ax0310a

>  <original SMILES>  (436) 
CSc1ncccc1C(=O)NC1CCCCC1

>  <rationale>  (436) 
info info set:screening_pocket;hbond:S87; hydroph_interaction:P107+Y89+Y90; 

>  <experiment>  (436) 
screening_pocket

>  <cluster_label>  (436) 
3

>  <cluster_rank>  (436) 
94

>  <N_interactions>  (436) 
5

>  <∆∆G>  (436) 
-6.759053

>  <comRMSD>  (436) 
0.642127

>  <ROCS_TanimotoCombo>  (436) 
0.644

>  <ROCS_ShapeTanimoto>  (436) 
0.224

>  <ROCS_ColorTanimoto>  (436) 
0.42

$$$$
EN300_27782354
     RDKit          3D

 17 18  0  0  0  0  0  0  0  0999 V2000
   30.9301   13.9478    8.8415 C   0  0  0  0  0  0  0  0  0  0  0  0
   31.4957   12.9803    7.9528 O   0  0  0  0  0  0  0  0  0  0  0  0
   30.8208   11.8008    7.9914 C   0  0  0  0  0  0  0  0  0  0  0  0
   29.7362   11.6656    8.4819 O   0  0  0  0  0  0  0  0  0  0  0  0
   31.6148   10.6883    7.3463 C   0  0  0  0  0  0  0  0  0  0  0  0
   32.8054   11.0001    6.1662 S   0  0  0  0  0  0  0  0  0  0  0  0
   33.1208    9.3283    6.0421 C   0  0  0  0  0  0  0  0  0  0  0  0
   34.0702    8.9056    5.1636 N   0  0  0  0  0  0  0  0  0  0  0  0
   34.9377    9.8180    4.6640 C   0  0  0  0  0  0  0  0  0  0  0  0
   34.8531   10.3573    3.2905 C   0  0  0  0  0  0  0  0  0  0  0  0
   35.9388    9.4430    3.3642 C   0  0  0  0  0  0  0  0  0  0  0  0
   32.3896    8.5759    6.8408 N   0  0  0  0  0  0  0  0  0  0  0  0
   31.5045    9.3334    7.6031 C   0  0  0  0  0  0  0  0  0  0  0  0
   30.6133    8.7617    8.5383 C   0  0  0  0  0  0  0  0  0  0  0  0
   30.1624    9.7113    9.3209 F   0  0  0  0  0  0  0  0  0  0  0  0
   29.5023    8.1970    8.0912 F   0  0  0  0  0  0  0  0  0  0  0  0
   31.1500    7.8491    9.3584 F   0  0  0  0  0  0  0  0  0  0  0  0
  1  2  1  0
  2  3  1  0
  3  4  2  0
  3  5  1  0
  5  6  1  0
  6  7  1  0
  7  8  1  0
  8  9  1  0
  9 10  1  0
 10 11  1  0
  7 12  2  0
 12 13  1  0
 13 14  1  0
 14 15  1  0
 14 16  1  0
 14 17  1  0
 13  5  2  0
 11  9  1  0
A    1
 C1 
A    2
 O1 
A    3
 C2 
A    4
 O2 
A    5
 C3 
A    6
 S1 
A    7
 C4 
A    8
 N1 
A    9
 C5 
A   10
 C6 
A   11
 C7 
A   12
 N2 
A   13
 C8 
A   14
 C9 
A   15
 F1 
A   16
 F2 
A   17
 F3 
M  END
>  <ref_pdb>  (437) 
Ax0310a

>  <ref_mols>  (437) 
Ax0446a,Ax1080a,Ax0812a,Ax0719a,Ax1140a,Ax0528a,Ax0310a

>  <original SMILES>  (437) 
COC(=O)c1sc(NC2CC2)nc1C(F)(F)F

>  <rationale>  (437) 
info info set:bb_densepocket2;halogenbond:P107; hbond:S105; 

>  <experiment>  (437) 
bb_densepocket2

>  <cluster_label>  (437) 
9

>  <cluster_rank>  (437) 
94

>  <N_interactions>  (437) 
2

>  <∆∆G>  (437) 
-0.22067

>  <comRMSD>  (437) 
0.606625

>  <ROCS_TanimotoCombo>  (437) 
0.607

>  <ROCS_ShapeTanimoto>  (437) 
0.249

>  <ROCS_ColorTanimoto>  (437) 
0.358

$$$$
Z3079948455
     RDKit          3D

 17 18  0  0  0  0  0  0  0  0999 V2000
   34.5222   10.1226    3.3739 C   0  0  0  0  0  0  0  0  0  0  0  0
   35.1103    9.5228    4.6213 C   0  0  0  0  0  0  0  0  0  0  0  0
   34.0994    8.7221    5.2832 N   0  0  0  0  0  0  0  0  0  0  0  0
   33.1607    9.4365    6.0603 C   0  0  0  0  0  0  0  0  0  0  0  0
   33.1885   10.9271    5.9494 C   0  0  0  0  0  0  0  0  0  0  0  0
   32.2826   11.9930    6.6736 C   0  0  0  0  0  0  0  0  0  0  0  0
   31.3248   11.0678    7.5574 C   0  0  0  0  0  0  0  0  0  0  0  0
   30.3875   11.7911    8.3124 N   0  0  0  0  0  0  0  0  0  0  0  0
   29.6952   13.0006    7.9565 C   0  0  0  0  0  0  0  0  0  0  0  0
   29.2071   13.0675    6.7095 N   0  0  0  0  0  0  0  0  0  0  0  0
   28.5560   14.1683    6.3473 C   0  0  0  0  0  0  0  0  0  0  0  0
   28.3276   15.2364    7.0994 N   0  0  0  0  0  0  0  0  0  0  0  0
   28.7771   15.2353    8.3112 C   0  0  0  0  0  0  0  0  0  0  0  0
   29.5325   14.0679    8.8511 C   0  0  0  0  0  0  0  0  0  0  0  0
   29.9833   14.2837   10.2894 C   0  0  0  0  0  0  0  0  0  0  0  0
   31.4254    9.6624    7.5551 C   0  0  0  0  0  0  0  0  0  0  0  0
   32.2725    8.8566    6.8718 N   0  0  0  0  0  0  0  0  0  0  0  0
  1  2  1  0
  2  3  1  0
  3  4  1  0
  4  5  2  0
  5  6  1  0
  6  7  2  0
  7  8  1  0
  8  9  1  0
  9 10  2  0
 10 11  1  0
 11 12  2  0
 12 13  1  0
 13 14  2  0
 14 15  1  0
  7 16  1  0
 16 17  2  0
 17  4  1  0
 14  9  1  0
A    1
 C1 
A    2
 C2 
A    3
 N1 
A    4
 C3 
A    5
 C4 
A    6
 C5 
A    7
 C6 
A    8
 N2 
A    9
 C7 
A   10
 N3 
A   11
 C8 
A   12
 N4 
A   13
 C9 
A   14
 C10
A   15
 C11
A   16
 C12
A   17
 N5 
M  END
>  <ref_pdb>  (438) 
Ax0310a

>  <ref_mols>  (438) 
Ax0446a,Ax1080a,Ax0812a,Ax0719a,Ax1140a,Ax0528a,Ax0310a

>  <original SMILES>  (438) 
CCNc1ccc(Nc2ncncc2C)cn1

>  <rationale>  (438) 
info info set:screening_pocket;hbond:S105+S125+G127; hydroph_interaction:T126; pistack:H21; 

>  <experiment>  (438) 
screening_pocket

>  <cluster_label>  (438) 
3

>  <cluster_rank>  (438) 
95

>  <N_interactions>  (438) 
5

>  <∆∆G>  (438) 
-5.099434

>  <comRMSD>  (438) 
0.509111

>  <ROCS_TanimotoCombo>  (438) 
0.676

>  <ROCS_ShapeTanimoto>  (438) 
0.239

>  <ROCS_ColorTanimoto>  (438) 
0.437

$$$$
Z2001753056
     RDKit          3D

 17 18  0  0  0  0  0  0  0  0999 V2000
   33.8063   12.8723    7.5257 C   0  0  0  0  0  0  0  0  0  0  0  0
   32.6004   12.1686    6.9973 C   0  0  0  0  0  0  0  0  0  0  0  0
   32.1121   12.7676    5.8575 C   0  0  0  0  0  0  0  0  0  0  0  0
   32.8100   10.6780    6.5516 C   0  0  0  0  0  0  0  0  0  0  0  0
   32.0510    9.6803    7.3009 N   0  0  0  0  0  0  0  0  0  0  0  0
   30.8916    9.9825    7.9584 C   0  0  0  0  0  0  0  0  0  0  0  0
   30.2288    9.1148    8.5257 O   0  0  0  0  0  0  0  0  0  0  0  0
   30.5506   11.3223    7.9197 C   0  0  0  0  0  0  0  0  0  0  0  0
   31.5899   12.2110    8.0568 N   0  0  0  0  0  0  0  0  0  0  0  0
   31.2730   13.4479    8.5621 C   0  0  0  0  0  0  0  0  0  0  0  0
   31.9944   14.1579    9.2608 O   0  0  0  0  0  0  0  0  0  0  0  0
   29.9152   13.9575    8.1953 C   0  0  0  0  0  0  0  0  0  0  0  0
   29.2939   14.8850    9.2123 C   0  0  0  0  0  0  0  0  0  0  0  0
   27.9137   15.3529    8.7906 C   0  0  0  0  0  0  0  0  0  0  0  0
   27.3065   14.9169    7.5259 N   0  0  0  0  0  0  0  0  0  0  0  0
   27.9494   14.1005    6.6989 C   0  0  0  0  0  0  0  0  0  0  0  0
   29.3322   13.5590    7.0015 C   0  0  0  0  0  0  0  0  0  0  0  0
  1  2  1  0
  2  3  1  0
  2  4  1  0
  4  5  1  0
  5  6  1  0
  6  7  2  0
  6  8  1  0
  8  9  1  0
  9 10  1  0
 10 11  2  0
 10 12  1  0
 12 13  2  0
 13 14  1  0
 14 15  2  0
 15 16  1  0
 16 17  2  0
  9  2  1  0
 17 12  1  0
A    1
 C1 
A    2
 C2 
A    3
 C3 
A    4
 C4 
A    5
 N1 
A    6
 C5 
A    7
 O1 
A    8
 C6 
A    9
 N2 
A   10
 C7 
A   11
 O2 
A   12
 C8 
A   13
 C9 
A   14
 C10
A   15
 N3 
A   16
 C11
A   17
 C12
M  END
>  <ref_pdb>  (439) 
Ax0310a

>  <ref_mols>  (439) 
Ax0446a,Ax1080a,Ax0812a,Ax0719a,Ax1140a,Ax0528a,Ax0310a

>  <original SMILES>  (439) 
CC1(C)CNC(=O)CN1C(=O)c1ccncc1

>  <rationale>  (439) 
info info set:3d;hbond:S87+S105; hydroph_interaction:P107+Y90; 

>  <experiment>  (439) 
3d

>  <cluster_label>  (439) 
3

>  <cluster_rank>  (439) 
96

>  <N_interactions>  (439) 
5

>  <∆∆G>  (439) 
-4.378565

>  <comRMSD>  (439) 
0.783719

>  <ROCS_TanimotoCombo>  (439) 
0.326

>  <ROCS_ShapeTanimoto>  (439) 
0.207

>  <ROCS_ColorTanimoto>  (439) 
0.119

$$$$
Z1160860493
     RDKit          3D

 15 16  0  0  0  0  0  0  0  0999 V2000
   28.3829   13.3764    8.8511 N   0  0  0  0  0  0  0  0  0  0  0  0
   29.4053   14.3407    7.9185 S   0  0  0  0  0  6  0  0  0  0  0  0
   30.1662   15.0565    8.9288 O   0  0  0  0  0  0  0  0  0  0  0  0
   28.5588   15.0067    6.9753 O   0  0  0  0  0  0  0  0  0  0  0  0
   30.4795   13.1337    7.0939 C   0  0  0  0  0  0  0  0  0  0  0  0
   30.2682   11.9589    7.9569 C   0  0  0  0  0  0  0  0  0  0  0  0
   31.0736   10.7879    7.5555 C   0  0  0  0  0  0  0  0  0  0  0  0
   32.1050   10.7683    6.4343 C   0  0  0  0  0  0  0  0  0  0  0  0
   32.1555   11.9065    5.7189 C   0  0  0  0  0  0  0  0  0  0  0  0
   31.4294   13.0418    5.9119 C   0  0  0  0  0  0  0  0  0  0  0  0
   31.8313   14.1378    4.4306 Br  0  0  0  0  0  0  0  0  0  0  0  0
   32.7208    9.7101    6.2859 N   0  0  0  0  0  0  0  0  0  0  0  0
   31.9796    9.0323    7.3268 C   0  0  0  0  0  0  0  0  0  0  0  0
   32.2227    7.7389    7.5882 O   0  0  0  0  0  0  0  0  0  0  0  0
   31.0549    9.6587    8.0479 N   0  0  0  0  0  0  0  0  0  0  0  0
  1  2  1  0
  2  3  2  0
  2  4  2  0
  2  5  1  0
  5  6  2  0
  6  7  1  0
  7  8  1  0
  8  9  1  0
  9 10  2  0
 10 11  1  0
  8 12  2  0
 12 13  1  0
 13 14  2  0
 13 15  1  0
 10  5  1  0
 15  7  2  0
A    1
 N1 
A    2
 S1 
A    3
 O1 
A    4
 O2 
A    5
 C1 
A    6
 C2 
A    7
 C3 
A    8
 C4 
A    9
 C5 
A   10
 C6 
A   11
BR1 
A   12
 N2 
A   13
 C7 
A   14
 O3 
A   15
 N3 
M  END
>  <ref_pdb>  (440) 
Ax0310a

>  <ref_mols>  (440) 
Ax0446a,Ax1080a,Ax0812a,Ax0719a,Ax1140a,Ax0528a,Ax0310a

>  <original SMILES>  (440) 
NS(=O)(=O)c1cc2c(cc1Br)=NC(=O)N=2

>  <rationale>  (440) 
info info set:3d;hbond:S87+S105+S125; hydroph_interaction:P107; 

>  <experiment>  (440) 
3d

>  <cluster_label>  (440) 
3

>  <cluster_rank>  (440) 
97

>  <N_interactions>  (440) 
5

>  <∆∆G>  (440) 
-0.480822

>  <comRMSD>  (440) 
0.828278

>  <ROCS_TanimotoCombo>  (440) 
0.34

>  <ROCS_ShapeTanimoto>  (440) 
0.197

>  <ROCS_ColorTanimoto>  (440) 
0.143

$$$$
EN300_801840
     RDKit          3D

 17 18  0  0  0  0  0  0  0  0999 V2000
   30.5675    7.5659    8.4548 C   0  0  0  0  0  0  0  0  0  0  0  0
   30.2253    8.9195    8.2788 C   0  0  0  0  0  0  0  0  0  0  0  0
   28.7673    8.9439    8.2321 C   0  0  0  0  0  0  0  0  0  0  0  0
   30.2339    9.2410    9.6077 C   0  0  0  0  0  0  0  0  0  0  0  0
   31.2005    9.7769    7.4837 C   0  0  0  0  0  0  0  0  0  0  0  0
   32.1602    9.0936    6.7757 N   0  0  0  0  0  0  0  0  0  0  0  0
   33.0417    9.8002    6.0414 C   0  0  0  0  0  0  0  0  0  0  0  0
   34.1068    9.1455    5.2182 C   0  0  0  0  0  0  0  0  0  0  0  0
   35.1027    9.8541    4.3962 C   0  0  0  0  0  0  0  0  0  0  0  0
   35.0187   11.2212    4.4090 C   0  0  0  0  0  0  0  0  0  0  0  0
   34.0336   11.8680    5.1660 C   0  0  0  0  0  0  0  0  0  0  0  0
   34.0647   13.5908    5.0695 Cl  0  0  0  0  0  0  0  0  0  0  0  0
   33.0479   11.1915    5.9765 C   0  0  0  0  0  0  0  0  0  0  0  0
   32.0742   11.8488    6.7162 C   0  0  0  0  0  0  0  0  0  0  0  0
   31.1344   11.1665    7.4797 C   0  0  0  0  0  0  0  0  0  0  0  0
   30.1561   11.8900    8.2125 N   0  0  0  0  0  0  0  0  0  0  0  0
   29.9331   13.2406    7.9143 N   0  0  0  0  0  0  0  0  0  0  0  0
  1  2  1  0
  2  3  1  0
  2  4  1  0
  2  5  1  0
  5  6  2  0
  6  7  1  0
  7  8  2  0
  8  9  1  0
  9 10  2  0
 10 11  1  0
 11 12  1  0
 11 13  2  0
 13 14  1  0
 14 15  2  0
 15 16  1  0
 16 17  1  0
 15  5  1  0
 13  7  1  0
A    1
 C1 
A    2
 C2 
A    3
 C3 
A    4
 C4 
A    5
 C5 
A    6
 N1 
A    7
 C6 
A    8
 C7 
A    9
 C8 
A   10
 C9 
A   11
 C10
A   12
CL1 
A   13
 C11
A   14
 C12
A   15
 C13
A   16
 N2 
A   17
 N3 
M  END
>  <ref_pdb>  (441) 
Ax0310a

>  <ref_mols>  (441) 
Ax0446a,Ax1080a,Ax0812a,Ax0719a,Ax1140a,Ax0528a,Ax0310a

>  <original SMILES>  (441) 
CC(C)(C)c1nc2cccc(Cl)c2cc1NN

>  <rationale>  (441) 
info info set:bb_densepocket2;hbond:S87+S125; hydroph_interaction:D109; 

>  <experiment>  (441) 
bb_densepocket2

>  <cluster_label>  (441) 
3

>  <cluster_rank>  (441) 
98

>  <N_interactions>  (441) 
4

>  <∆∆G>  (441) 
-5.422053

>  <comRMSD>  (441) 
0.54021

>  <ROCS_TanimotoCombo>  (441) 
0.624

>  <ROCS_ShapeTanimoto>  (441) 
0.287

>  <ROCS_ColorTanimoto>  (441) 
0.336

$$$$
Z1569171509
     RDKit          3D

 18 20  0  0  0  0  0  0  0  0999 V2000
   32.2474   15.0806    9.8241 C   0  0  0  0  0  0  0  0  0  0  0  0
   31.6270   14.0050    9.0949 O   0  0  0  0  0  0  0  0  0  0  0  0
   30.3144   14.1792    8.6858 C   0  0  0  0  0  0  0  0  0  0  0  0
   29.4517   14.9978    9.3739 C   0  0  0  0  0  0  0  0  0  0  0  0
   28.1318   15.1941    8.9615 C   0  0  0  0  0  0  0  0  0  0  0  0
   27.6698   14.5481    7.8280 C   0  0  0  0  0  0  0  0  0  0  0  0
   28.5155   13.7296    7.1523 C   0  0  0  0  0  0  0  0  0  0  0  0
   29.8072   13.5289    7.5422 C   0  0  0  0  0  0  0  0  0  0  0  0
   30.5302   12.5965    6.6490 C   0  0  0  0  0  0  0  0  0  0  0  0
   31.3966   11.7806    7.4565 N   0  0  0  0  0  0  0  0  0  0  0  0
   30.6913   10.6240    8.0717 C   0  0  0  0  0  0  0  0  0  0  0  0
   31.1720    9.2498    7.7384 C   0  0  0  0  0  0  0  0  0  0  0  0
   31.9266    9.1792    6.5246 O   0  0  0  0  0  0  0  0  0  0  0  0
   32.9471   10.1595    6.2636 C   0  0  0  0  0  0  0  0  0  0  0  0
   32.6850   11.5606    6.8311 C   0  0  0  0  0  0  0  0  0  0  0  0
   32.8991   12.5730    5.6464 C   0  0  0  0  0  0  0  0  0  0  0  0
   34.3678   12.5655    6.1024 C   0  0  0  0  0  0  0  0  0  0  0  0
   33.6481   12.6419    7.4403 C   0  0  0  0  0  0  0  0  0  0  0  0
  1  2  1  0
  2  3  1  0
  3  4  2  0
  4  5  1  0
  5  6  2  0
  6  7  1  0
  7  8  2  0
  8  9  1  0
  9 10  1  0
 10 11  1  0
 11 12  1  0
 12 13  1  0
 13 14  1  0
 14 15  1  0
 15 16  1  0
 16 17  1  0
 17 18  1  0
  8  3  1  0
 15 10  1  0
 18 15  1  0
A    1
 C1 
A    2
 O1 
A    3
 C2 
A    4
 C3 
A    5
 C4 
A    6
 C5 
A    7
 C6 
A    8
 C7 
A    9
 C8 
A   10
 N1 
A   11
 C9 
A   12
 C10
A   13
 O2 
A   14
 C11
A   15
 C12
A   16
 C13
A   17
 C14
A   18
 C15
M  END
>  <ref_pdb>  (442) 
Ax0310a

>  <ref_mols>  (442) 
Ax0446a,Ax1080a,Ax0812a,Ax0719a,Ax1140a,Ax0528a,Ax0310a

>  <original SMILES>  (442) 
COc1ccccc1CN1CCOCC12CCC2

>  <rationale>  (442) 
info info set:3d;hbond:S87+G127; hydroph_interaction:Y89+Y90; 

>  <experiment>  (442) 
3d

>  <cluster_label>  (442) 
3

>  <cluster_rank>  (442) 
99

>  <N_interactions>  (442) 
4

>  <∆∆G>  (442) 
-3.597087

>  <comRMSD>  (442) 
0.833586

>  <ROCS_TanimotoCombo>  (442) 
0.376

>  <ROCS_ShapeTanimoto>  (442) 
0.226

>  <ROCS_ColorTanimoto>  (442) 
0.15

$$$$
Z785974974
     RDKit          3D

 18 19  0  0  0  0  0  0  0  0999 V2000
   31.0924   15.3228    9.8360 C   0  0  0  0  0  0  0  0  0  0  0  0
   29.8466   14.7559    9.2076 C   0  0  0  0  0  0  0  0  0  0  0  0
   28.9765   14.3100   10.3513 C   0  0  0  0  0  0  0  0  0  0  0  0
   28.8048   15.4341    8.5492 C   0  0  0  0  0  0  0  0  0  0  0  0
   28.7557   15.2631    7.1430 O   0  0  0  0  0  0  0  0  0  0  0  0
   28.6354   13.8991    6.7871 C   0  0  0  0  0  0  0  0  0  0  0  0
   29.1070   13.0501    7.7835 C   0  0  0  0  0  0  0  0  0  0  0  0
   30.1731   13.7088    8.3785 N   0  0  0  0  0  0  0  0  0  0  0  0
   31.4230   13.0894    8.2191 C   0  0  0  0  0  0  0  0  0  0  0  0
   32.5960   13.6286    8.6934 O   0  0  0  0  0  0  0  0  0  0  0  0
   31.6493   11.8341    7.6507 C   0  0  0  0  0  0  0  0  0  0  0  0
   31.0345   10.7175    8.2422 C   0  0  0  0  0  0  0  0  0  0  0  0
   31.2421    9.4510    7.7994 C   0  0  0  0  0  0  0  0  0  0  0  0
   30.4660    8.1746    8.6168 Cl  0  0  0  0  0  0  0  0  0  0  0  0
   32.1373    9.2558    6.6471 C   0  0  0  0  0  0  0  0  0  0  0  0
   32.7656   10.4682    6.0010 C   0  0  0  0  0  0  0  0  0  0  0  0
   32.4897   11.7061    6.5395 C   0  0  0  0  0  0  0  0  0  0  0  0
   33.0539   12.7801    5.9759 F   0  0  0  0  0  0  0  0  0  0  0  0
  1  2  1  0
  2  3  1  0
  2  4  1  0
  4  5  1  0
  5  6  1  0
  6  7  1  0
  7  8  1  0
  8  9  1  0
  9 10  2  0
  9 11  1  0
 11 12  2  0
 12 13  1  0
 13 14  1  0
 13 15  2  0
 15 16  1  0
 16 17  2  0
 17 18  1  0
  8  2  1  0
 17 11  1  0
A    1
 C1 
A    2
 C2 
A    3
 C3 
A    4
 C4 
A    5
 O1 
A    6
 C5 
A    7
 C6 
A    8
 N1 
A    9
 C7 
A   10
 O2 
A   11
 C8 
A   12
 C9 
A   13
 C10
A   14
CL1 
A   15
 C11
A   16
 C12
A   17
 C13
A   18
 F1 
M  END
>  <ref_pdb>  (443) 
Ax0310a

>  <ref_mols>  (443) 
Ax0446a,Ax1080a,Ax0812a,Ax0719a,Ax1140a,Ax0528a,Ax0310a

>  <original SMILES>  (443) 
CC1(C)COCCN1C(=O)c1cc(Cl)ccc1F

>  <rationale>  (443) 
info info set:3d;hbond:S87+G127; hydroph_interaction:P107+Y90; 

>  <experiment>  (443) 
3d

>  <cluster_label>  (443) 
3

>  <cluster_rank>  (443) 
100

>  <N_interactions>  (443) 
4

>  <∆∆G>  (443) 
-6.345817

>  <comRMSD>  (443) 
0.764193

>  <ROCS_TanimotoCombo>  (443) 
0.326

>  <ROCS_ShapeTanimoto>  (443) 
0.218

>  <ROCS_ColorTanimoto>  (443) 
0.109

$$$$
EN300_318531
     RDKit          3D

 19 21  0  0  0  0  0  0  0  0999 V2000
   35.3418   10.8224    4.7692 O   0  0  0  0  0  0  0  0  0  0  0  0
   34.4327   11.3502    5.3964 C   0  0  0  0  0  0  0  0  0  0  0  0
   34.3486   12.6903    5.4950 O   0  0  0  0  0  0  0  0  0  0  0  0
   33.3514   10.5967    6.1298 C   0  0  0  0  0  0  0  0  0  0  0  0
   33.3480    9.1064    6.0653 C   0  0  0  0  0  0  0  0  0  0  0  0
   32.2936    8.6321    6.8180 O   0  0  0  0  0  0  0  0  0  0  0  0
   31.6722    9.7481    7.3108 C   0  0  0  0  0  0  0  0  0  0  0  0
   30.4132    9.7463    8.2294 C   0  0  0  0  0  0  0  0  0  0  0  0
   29.9177    8.7720    8.7679 O   0  0  0  0  0  0  0  0  0  0  0  0
   29.9429   11.0053    8.3519 N   0  0  0  0  0  0  0  0  0  0  0  0
   30.5953   12.0374    7.9185 C   0  0  0  0  0  0  0  0  0  0  0  0
   29.9875   13.3482    8.1395 C   0  0  0  0  0  0  0  0  0  0  0  0
   30.6212   14.1472    9.2481 C   0  0  0  0  0  0  0  0  0  0  0  0
   29.9899   15.4981    9.4247 C   0  0  0  0  0  0  0  0  0  0  0  0
   28.8236   15.8133    8.4582 C   0  0  0  0  0  0  0  0  0  0  0  0
   28.3008   15.0452    7.4908 N   0  0  0  0  0  0  0  0  0  0  0  0
   28.8385   13.8458    7.3052 C   0  0  0  0  0  0  0  0  0  0  0  0
   31.8098   12.0744    7.2948 N   0  0  0  0  0  0  0  0  0  0  0  0
   32.2773   10.9145    6.9133 C   0  0  0  0  0  0  0  0  0  0  0  0
  1  2  2  0
  2  3  1  0
  2  4  1  0
  4  5  2  0
  5  6  1  0
  6  7  1  0
  7  8  1  0
  8  9  2  0
  8 10  1  0
 10 11  2  0
 11 12  1  0
 12 13  2  0
 13 14  1  0
 14 15  2  0
 15 16  1  0
 16 17  2  0
 11 18  1  0
 18 19  1  0
 19  4  1  0
 19  7  2  0
 17 12  1  0
A    1
 O1 
A    2
 C1 
A    3
 O2 
A    4
 C2 
A    5
 C3 
A    6
 O3 
A    7
 C4 
A    8
 C5 
A    9
 O4 
A   10
 N1 
A   11
 C6 
A   12
 C7 
A   13
 C8 
A   14
 C9 
A   15
 C10
A   16
 N2 
A   17
 C11
A   18
 N3 
A   19
 C12
M  END
>  <ref_pdb>  (444) 
Ax0310a

>  <ref_mols>  (444) 
Ax0446a,Ax1080a,Ax0812a,Ax0719a,Ax1140a,Ax0528a,Ax0310a

>  <original SMILES>  (444) 
O=C(O)c1coc2c(=O)nc(-c3cccnc3)[nH]c12

>  <rationale>  (444) 
info info set:bb_whole;hbond:S87+S105+S125+G127; hydroph_interaction:Y90; pistack:H21; 

>  <experiment>  (444) 
bb_whole

>  <cluster_label>  (444) 
3

>  <cluster_rank>  (444) 
101

>  <N_interactions>  (444) 
6

>  <∆∆G>  (444) 
-4.321073

>  <comRMSD>  (444) 
0.503603

>  <ROCS_TanimotoCombo>  (444) 
0.417

>  <ROCS_ShapeTanimoto>  (444) 
0.255

>  <ROCS_ColorTanimoto>  (444) 
0.161

$$$$
EN300_233478
     RDKit          3D

 15 16  0  0  0  0  0  0  0  0999 V2000
   28.5024   14.1785    9.9167 N   0  0  0  0  0  0  0  0  0  0  0  0
   29.4284   14.8386    8.7010 S   0  0  0  0  0  6  0  0  0  0  0  0
   30.6820   15.1782    9.3416 O   0  0  0  0  0  0  0  0  0  0  0  0
   28.6239   15.8263    8.0316 O   0  0  0  0  0  0  0  0  0  0  0  0
   29.7079   13.4698    7.6073 C   0  0  0  0  0  0  0  0  0  0  0  0
   30.9972   12.7775    7.9085 C   0  0  0  0  0  0  0  0  0  0  0  0
   31.0460   11.4996    7.1558 C   0  0  2  0  0  0  0  0  0  0  0  0
   30.9122   10.1879    7.8812 C   0  0  0  0  0  0  0  0  0  0  0  0
   31.8009    8.9698    7.4633 C   0  0  0  0  0  0  0  0  0  0  0  0
   32.7104    9.9377    6.5387 C   0  0  0  0  0  0  0  0  0  0  0  0
   33.9611    9.5292    5.8038 C   0  0  0  0  0  0  0  0  0  0  0  0
   34.6871   10.4437    5.0558 C   0  0  0  0  0  0  0  0  0  0  0  0
   34.2199   11.7529    5.0043 C   0  0  0  0  0  0  0  0  0  0  0  0
   33.0538   12.1731    5.6591 C   0  0  0  0  0  0  0  0  0  0  0  0
   32.3039   11.2624    6.4167 C   0  0  0  0  0  0  0  0  0  0  0  0
  1  2  1  0
  2  3  2  0
  2  4  2  0
  2  5  1  0
  5  6  1  0
  7  6  1  1
  7  8  1  0
  8  9  1  0
  9 10  1  0
 10 11  2  0
 11 12  1  0
 12 13  2  0
 13 14  1  0
 14 15  2  0
 15  7  1  0
 15 10  1  0
A    1
 N1 
A    2
 S1 
A    3
 O1 
A    4
 O2 
A    5
 C1 
A    6
 C2 
A    7
 C3 
A    8
 C4 
A    9
 C5 
A   10
 C6 
A   11
 C7 
A   12
 C8 
A   13
 C9 
A   14
 C10
A   15
 C11
M  END
>  <ref_pdb>  (445) 
Ax0310a

>  <ref_mols>  (445) 
Ax0446a,Ax1080a,Ax0812a,Ax0719a,Ax1140a,Ax0528a,Ax0310a

>  <original SMILES>  (445) 
NS(=O)(=O)CC[C@@H]1CCc2ccccc21

>  <rationale>  (445) 
info info set:sulfonimide_whole;hbond:S87+S125+Y90; hydroph_interaction:P107; 

>  <experiment>  (445) 
sulfonimide_whole

>  <cluster_label>  (445) 
3

>  <cluster_rank>  (445) 
102

>  <N_interactions>  (445) 
4

>  <∆∆G>  (445) 
-4.856045

>  <comRMSD>  (445) 
0.662096

>  <ROCS_TanimotoCombo>  (445) 
0.361

>  <ROCS_ShapeTanimoto>  (445) 
0.207

>  <ROCS_ColorTanimoto>  (445) 
0.154

$$$$
EN300_7541714
     RDKit          3D

 14 14  0  0  0  0  0  0  0  0999 V2000
   33.1455   12.9281    4.5378 C   0  0  0  0  0  0  0  0  0  0  0  0
   32.8619   13.2283    5.9793 C   0  0  2  0  0  0  0  0  0  0  0  0
   33.8972   13.7690    6.7669 C   0  0  0  0  0  0  0  0  0  0  0  0
   33.6432   13.8848    8.5513 S   0  0  0  0  0  6  0  0  0  0  0  0
   34.9401   14.8072    9.0627 N   0  0  0  0  0  0  0  0  0  0  0  0
   33.9230   12.6568    9.1411 O   0  0  0  0  0  0  0  0  0  0  0  0
   32.4263   14.5466    8.9631 O   0  0  0  0  0  0  0  0  0  0  0  0
   32.2775   11.9877    6.6094 C   0  0  0  0  0  0  0  0  0  0  0  0
   31.1257   12.0159    7.5655 C   0  0  0  0  0  0  0  0  0  0  0  0
   30.6444   10.8242    8.0957 C   0  0  0  0  0  0  0  0  0  0  0  0
   31.2765    9.5658    7.7053 C   0  0  0  0  0  0  0  0  0  0  0  0
   32.3376    9.6074    6.8175 C   0  0  0  0  0  0  0  0  0  0  0  0
   32.9210    8.4990    6.4549 F   0  0  0  0  0  0  0  0  0  0  0  0
   32.8338   10.7673    6.2791 C   0  0  0  0  0  0  0  0  0  0  0  0
  2  1  1  6
  2  3  1  0
  3  4  1  0
  4  5  1  0
  4  6  2  0
  4  7  2  0
  2  8  1  0
  8  9  2  0
  9 10  1  0
 10 11  2  0
 11 12  1  0
 12 13  1  0
 12 14  2  0
 14  8  1  0
A    1
 C1 
A    2
 C2 
A    3
 C3 
A    4
 S1 
A    5
 N1 
A    6
 O1 
A    7
 O2 
A    8
 C4 
A    9
 C5 
A   10
 C6 
A   11
 C7 
A   12
 C8 
A   13
 F1 
A   14
 C9 
M  END
>  <ref_pdb>  (446) 
Ax0310a

>  <ref_mols>  (446) 
Ax0446a,Ax1080a,Ax0812a,Ax0719a,Ax1140a,Ax0528a,Ax0310a

>  <original SMILES>  (446) 
C[C@H](CS(N)(=O)=O)c1cccc(F)c1

>  <rationale>  (446) 
info info set:sulfonimide_whole;halogenbond:S105; hbond:S87+G127+E85; 

>  <experiment>  (446) 
sulfonimide_whole

>  <cluster_label>  (446) 
3

>  <cluster_rank>  (446) 
103

>  <N_interactions>  (446) 
4

>  <∆∆G>  (446) 
-4.825183

>  <comRMSD>  (446) 
0.305714

>  <ROCS_TanimotoCombo>  (446) 
0.392

>  <ROCS_ShapeTanimoto>  (446) 
0.195

>  <ROCS_ColorTanimoto>  (446) 
0.197

$$$$
EN300_27729540
     RDKit          3D

 15 15  0  0  0  0  0  0  0  0999 V2000
   30.3548    7.8186   10.5433 C   0  0  0  0  0  0  0  0  0  0  0  0
   30.0330    8.3646    9.2787 C   0  0  0  0  0  0  0  0  0  0  0  0
   29.0391    9.4882    9.1195 C   0  0  0  0  0  0  0  0  0  0  0  0
   29.4526    7.4576    8.5895 C   0  0  0  0  0  0  0  0  0  0  0  0
   31.1997    8.7072    8.5309 O   0  0  0  0  0  0  0  0  0  0  0  0
   31.1884    9.9799    8.0982 C   0  0  0  0  0  0  0  0  0  0  0  0
   30.5684   10.9099    8.5736 O   0  0  0  0  0  0  0  0  0  0  0  0
   32.0997   10.2038    6.8970 C   0  0  0  0  0  0  0  0  0  0  0  0
   31.8784   11.6152    6.3789 C   0  0  0  0  0  0  0  0  0  0  0  0
   32.6248   12.0180    5.2891 C   0  0  0  0  0  0  0  0  0  0  0  0
   32.4642   13.5760    4.5951 Cl  0  0  0  0  0  0  0  0  0  0  0  0
   33.6077   10.9889    4.7244 C   0  0  0  0  0  0  0  0  0  0  0  0
   33.6902    9.5936    5.3970 C   0  0  0  0  0  0  0  0  0  0  0  0
   34.5801    8.6538    4.9009 N   0  0  0  0  0  0  0  0  0  0  0  0
   32.9395    9.2626    6.4360 N   0  0  0  0  0  0  0  0  0  0  0  0
  1  2  1  0
  2  3  1  0
  2  4  1  0
  2  5  1  0
  5  6  1  0
  6  7  2  0
  6  8  1  0
  8  9  2  0
  9 10  1  0
 10 11  1  0
 10 12  2  0
 12 13  1  0
 13 14  1  0
 13 15  2  0
 15  8  1  0
A    1
 C1 
A    2
 C2 
A    3
 C3 
A    4
 C4 
A    5
 O1 
A    6
 C5 
A    7
 O2 
A    8
 C6 
A    9
 C7 
A   10
 C8 
A   11
CL1 
A   12
 C9 
A   13
 C10
A   14
 N1 
A   15
 N2 
M  END
>  <ref_pdb>  (447) 
Ax0310a

>  <ref_mols>  (447) 
Ax0446a,Ax1080a,Ax0812a,Ax0719a,Ax1140a,Ax0528a,Ax0310a

>  <original SMILES>  (447) 
CC(C)(C)OC(=O)c1cc(Cl)cc(N)n1

>  <rationale>  (447) 
info info set:bb_densepocket2;hbond:S105; hydroph_interaction:V124+D109; 

>  <experiment>  (447) 
bb_densepocket2

>  <cluster_label>  (447) 
3

>  <cluster_rank>  (447) 
104

>  <N_interactions>  (447) 
3

>  <∆∆G>  (447) 
-4.195255

>  <comRMSD>  (447) 
0.738487

>  <ROCS_TanimotoCombo>  (447) 
0.642

>  <ROCS_ShapeTanimoto>  (447) 
0.217

>  <ROCS_ColorTanimoto>  (447) 
0.425

$$$$
Z992347082
     RDKit          3D

 15 16  0  0  0  0  0  0  0  0999 V2000
   30.4369    8.6342    8.3971 C   0  0  0  0  0  0  0  0  0  0  0  0
   31.1904    9.7653    7.7755 C   0  0  0  0  0  0  0  0  0  0  0  0
   32.2230    9.3893    6.6938 C   0  0  0  0  0  0  0  0  0  0  0  0
   32.8264   10.7833    6.2658 C   0  0  0  0  0  0  0  0  0  0  0  0
   32.5082   12.1520    6.7768 C   0  0  0  0  0  0  0  0  0  0  0  0
   33.1940   13.1848    6.2340 F   0  0  0  0  0  0  0  0  0  0  0  0
   31.5419   12.1934    7.7670 C   0  0  0  0  0  0  0  0  0  0  0  0
   31.1677   13.4026    8.3748 C   0  0  0  0  0  0  0  0  0  0  0  0
   31.9903   14.1598    8.8762 O   0  0  0  0  0  0  0  0  0  0  0  0
   29.7174   13.5863    8.3457 N   0  0  0  0  0  0  0  0  0  0  0  0
   29.1329   14.7363    8.9866 C   0  0  0  0  0  0  0  0  0  0  0  0
   28.2044   15.1559    8.0820 C   0  0  0  0  0  0  0  0  0  0  0  0
   28.0242   14.1127    7.0233 C   0  0  0  0  0  0  0  0  0  0  0  0
   28.8970   13.0487    7.2559 C   0  0  0  0  0  0  0  0  0  0  0  0
   30.9132   11.0442    8.2214 C   0  0  0  0  0  0  0  0  0  0  0  0
  1  2  1  0
  2  3  2  0
  3  4  1  0
  4  5  2  0
  5  6  1  0
  5  7  1  0
  7  8  1  0
  8  9  2  0
  8 10  1  0
 10 11  1  0
 11 12  1  0
 12 13  1  0
 13 14  1  0
  7 15  2  0
 15  2  1  0
 14 10  1  0
A    1
 C1 
A    2
 C2 
A    3
 C3 
A    4
 C4 
A    5
 C5 
A    6
 F1 
A    7
 C6 
A    8
 C7 
A    9
 O1 
A   10
 N1 
A   11
 C8 
A   12
 C9 
A   13
 C10
A   14
 C11
A   15
 C12
M  END
>  <ref_pdb>  (448) 
Ax0310a

>  <ref_mols>  (448) 
Ax0446a,Ax1080a,Ax0812a,Ax0719a,Ax1140a,Ax0528a,Ax0310a

>  <original SMILES>  (448) 
Cc1ccc(F)c(C(=O)N2CCCC2)c1

>  <rationale>  (448) 
info info set:3d;hbond:S87; hydroph_interaction:Y89+V124; 

>  <experiment>  (448) 
3d

>  <cluster_label>  (448) 
3

>  <cluster_rank>  (448) 
105

>  <N_interactions>  (448) 
3

>  <∆∆G>  (448) 
-10.215752

>  <comRMSD>  (448) 
0.650826

>  <ROCS_TanimotoCombo>  (448) 
0.311

>  <ROCS_ShapeTanimoto>  (448) 
0.213

>  <ROCS_ColorTanimoto>  (448) 
0.098

$$$$
Z1436302305
     RDKit          3D

 18 19  0  0  0  0  0  0  0  0999 V2000
   30.4708    7.9990    8.5596 C   0  0  0  0  0  0  0  0  0  0  0  0
   31.2271    9.0344    7.8253 C   0  0  0  0  0  0  0  0  0  0  0  0
   32.1681    8.8466    6.8691 C   0  0  0  0  0  0  0  0  0  0  0  0
   32.8151    9.9935    6.2562 C   0  0  0  0  0  0  0  0  0  0  0  0
   32.5246   11.2896    6.6110 C   0  0  0  0  0  0  0  0  0  0  0  0
   33.1522   12.3172    6.0257 F   0  0  0  0  0  0  0  0  0  0  0  0
   31.5513   11.4712    7.6125 C   0  0  0  0  0  0  0  0  0  0  0  0
   31.2202   12.6984    8.0504 C   0  0  0  0  0  0  0  0  0  0  0  0
   32.0387   13.2965    8.7217 O   0  0  0  0  0  0  0  0  0  0  0  0
   30.0048   13.1905    7.7403 N   0  0  0  0  0  0  0  0  0  0  0  0
   29.4984   14.2992    8.5795 C   0  0  0  0  0  0  0  0  0  0  0  0
   30.5769   14.8761    9.4454 C   0  0  0  0  0  0  0  0  0  0  0  0
   31.7862   14.7683    9.2508 O   0  0  0  0  0  0  0  0  0  0  0  0
   30.1803   15.5491   10.5369 O   0  0  0  0  0  0  0  0  0  0  0  0
   28.6931   15.2788    7.6671 C   0  0  0  0  0  0  0  0  0  0  0  0
   27.5024   14.5030    8.1272 C   0  0  0  0  0  0  0  0  0  0  0  0
   28.1246   13.9540    9.2452 C   0  0  0  0  0  0  0  0  0  0  0  0
   30.8829   10.4245    8.2282 C   0  0  0  0  0  0  0  0  0  0  0  0
  1  2  1  0
  2  3  2  0
  3  4  1  0
  4  5  2  0
  5  6  1  0
  5  7  1  0
  7  8  1  0
  8  9  2  0
  8 10  1  0
 10 11  1  0
 11 12  1  0
 12 13  2  0
 12 14  1  0
 11 15  1  0
 15 16  1  0
 16 17  1  0
  7 18  2  0
 18  2  1  0
 17 11  1  0
A    1
 C1 
A    2
 C2 
A    3
 C3 
A    4
 C4 
A    5
 C5 
A    6
 F1 
A    7
 C6 
A    8
 C7 
A    9
 O1 
A   10
 N1 
A   11
 C8 
A   12
 C9 
A   13
 O2 
A   14
 O3 
A   15
 C10
A   16
 C11
A   17
 C12
A   18
 C13
M  END
>  <ref_pdb>  (449) 
Ax0310a

>  <ref_mols>  (449) 
Ax0446a,Ax1080a,Ax0812a,Ax0719a,Ax1140a,Ax0528a,Ax0310a

>  <original SMILES>  (449) 
Cc1ccc(F)c(C(=O)NC2(C(=O)O)CCC2)c1

>  <rationale>  (449) 
info info set:3d;hbond:S87+G127; hydroph_interaction:Y89+V124; 

>  <experiment>  (449) 
3d

>  <cluster_label>  (449) 
3

>  <cluster_rank>  (449) 
106

>  <N_interactions>  (449) 
4

>  <∆∆G>  (449) 
-6.177546

>  <comRMSD>  (449) 
0.736592

>  <ROCS_TanimotoCombo>  (449) 
0.333

>  <ROCS_ShapeTanimoto>  (449) 
0.222

>  <ROCS_ColorTanimoto>  (449) 
0.111

$$$$
EN300_1619017
     RDKit          3D

 15 16  0  0  0  0  0  0  0  0999 V2000
   34.8523   14.8654    8.9794 N   0  0  0  0  0  0  0  0  0  0  0  0
   33.5603   13.8889    8.5570 S   0  0  0  0  0  6  0  0  0  0  0  0
   33.9955   12.6977    9.1551 O   0  0  0  0  0  0  0  0  0  0  0  0
   32.3423   14.5222    9.0152 O   0  0  0  0  0  0  0  0  0  0  0  0
   33.7205   13.6974    6.7747 C   0  0  0  0  0  0  0  0  0  0  0  0
   32.5820   12.9673    6.1146 C   0  0  0  0  0  0  0  0  0  0  0  0
   32.2692   11.6955    6.5589 C   0  0  0  0  0  0  0  0  0  0  0  0
   33.1448   10.7094    6.3583 N   0  0  0  0  0  0  0  0  0  0  0  0
   32.5777    9.5833    6.9210 O   0  0  0  0  0  0  0  0  0  0  0  0
   31.3754    9.9085    7.4438 C   0  0  0  0  0  0  0  0  0  0  0  0
   30.4403    8.9630    8.1561 C   0  0  0  0  0  0  0  0  0  0  0  0
   29.1708    9.5858    8.6196 C   0  0  0  0  0  0  0  0  0  0  0  0
   28.9228   10.9417    8.3847 C   0  0  0  0  0  0  0  0  0  0  0  0
   29.7928   11.8297    7.7308 C   0  0  0  0  0  0  0  0  0  0  0  0
   31.1128   11.2473    7.2336 C   0  0  0  0  0  0  0  0  0  0  0  0
  1  2  1  0
  2  3  2  0
  2  4  2  0
  2  5  1  0
  5  6  1  0
  6  7  1  0
  7  8  2  0
  8  9  1  0
  9 10  1  0
 10 11  2  0
 11 12  1  0
 12 13  2  0
 13 14  1  0
 14 15  2  0
 15  7  1  0
 15 10  1  0
A    1
 N1 
A    2
 S1 
A    3
 O1 
A    4
 O2 
A    5
 C1 
A    6
 C2 
A    7
 C3 
A    8
 N2 
A    9
 O3 
A   10
 C4 
A   11
 C5 
A   12
 C6 
A   13
 C7 
A   14
 C8 
A   15
 C9 
M  END
>  <ref_pdb>  (450) 
Ax0310a

>  <ref_mols>  (450) 
Ax0446a,Ax1080a,Ax0812a,Ax0719a,Ax1140a,Ax0528a,Ax0310a

>  <original SMILES>  (450) 
NS(=O)(=O)CCc1noc2ccccc12

>  <rationale>  (450) 
info info set:sulfonimide_whole;hbond:S87+G127+E85; 

>  <experiment>  (450) 
sulfonimide_whole

>  <cluster_label>  (450) 
3

>  <cluster_rank>  (450) 
107

>  <N_interactions>  (450) 
3

>  <∆∆G>  (450) 
-5.7784

>  <comRMSD>  (450) 
0.38115

>  <ROCS_TanimotoCombo>  (450) 
0.377

>  <ROCS_ShapeTanimoto>  (450) 
0.21

>  <ROCS_ColorTanimoto>  (450) 
0.167

$$$$
Z1444397255
     RDKit          3D

 17 18  0  0  0  0  0  0  0  0999 V2000
   28.4626   14.7751    8.2208 C   0  0  0  0  0  0  0  0  0  0  0  0
   28.5686   13.3776    8.1610 C   0  0  0  0  0  0  0  0  0  0  0  0
   29.7059   12.8256    7.5618 C   0  0  0  0  0  0  0  0  0  0  0  0
   30.3224   13.3577    6.6541 O   0  0  0  0  0  0  0  0  0  0  0  0
   30.0684   11.6136    8.0981 N   0  0  0  0  0  0  0  0  0  0  0  0
   31.3656   11.0735    7.7548 C   0  0  0  0  0  0  0  0  0  0  0  0
   31.3567    9.5726    8.1999 C   0  0  0  0  0  0  0  0  0  0  0  0
   32.0308    8.6709    7.7126 O   0  0  0  0  0  0  0  0  0  0  0  0
   30.4919    9.2372    9.1700 O   0  0  0  0  0  0  0  0  0  0  0  0
   31.5457   10.6793    6.3088 C   0  0  0  0  0  0  0  0  0  0  0  0
   32.8955   11.1242    5.9172 C   0  0  0  0  0  0  0  0  0  0  0  0
   33.6440   10.6666    4.8142 C   0  0  0  0  0  0  0  0  0  0  0  0
   34.8893   11.2210    4.5554 C   0  0  0  0  0  0  0  0  0  0  0  0
   35.3646   12.2185    5.3842 C   0  0  0  0  0  0  0  0  0  0  0  0
   34.6225   12.6605    6.4769 C   0  0  0  0  0  0  0  0  0  0  0  0
   33.3861   12.0756    6.7376 C   0  0  0  0  0  0  0  0  0  0  0  0
   32.4001   12.2997    7.8439 C   0  0  0  0  0  0  0  0  0  0  0  0
  1  2  1  0
  2  3  1  0
  3  4  2  0
  3  5  1  0
  5  6  1  0
  6  7  1  0
  7  8  2  0
  7  9  1  0
  6 10  1  0
 10 11  1  0
 11 12  2  0
 12 13  1  0
 13 14  2  0
 14 15  1  0
 15 16  2  0
 16 17  1  0
 17  6  1  0
 16 11  1  0
A    1
 C1 
A    2
 C2 
A    3
 C3 
A    4
 O1 
A    5
 N1 
A    6
 C4 
A    7
 C5 
A    8
 O2 
A    9
 O3 
A   10
 C6 
A   11
 C7 
A   12
 C8 
A   13
 C9 
A   14
 C10
A   15
 C11
A   16
 C12
A   17
 C13
M  END
>  <ref_pdb>  (451) 
Ax0310a

>  <ref_mols>  (451) 
Ax0446a,Ax1080a,Ax0812a,Ax0719a,Ax1140a,Ax0528a,Ax0310a

>  <original SMILES>  (451) 
CCC(=O)NC1(C(=O)O)Cc2ccccc2C1

>  <rationale>  (451) 
info info set:3d;hbond:S87+S105+S125; hydroph_interaction:P107; 

>  <experiment>  (451) 
3d

>  <cluster_label>  (451) 
3

>  <cluster_rank>  (451) 
108

>  <N_interactions>  (451) 
5

>  <∆∆G>  (451) 
-2.446347

>  <comRMSD>  (451) 
0.741264

>  <ROCS_TanimotoCombo>  (451) 
0.349

>  <ROCS_ShapeTanimoto>  (451) 
0.222

>  <ROCS_ColorTanimoto>  (451) 
0.126

$$$$
EN300_29863
     RDKit          3D

 17 18  0  0  0  0  0  0  0  0999 V2000
   35.3013   14.4749    9.0734 N   0  0  0  0  0  0  0  0  0  0  0  0
   33.7936   14.0326    8.5582 S   0  0  0  0  0  6  0  0  0  0  0  0
   33.5943   12.6485    8.7897 O   0  0  0  0  0  0  0  0  0  0  0  0
   32.9054   14.9496    9.2494 O   0  0  0  0  0  0  0  0  0  0  0  0
   33.9150   14.2360    6.7544 C   0  0  0  0  0  0  0  0  0  0  0  0
   34.3238   13.0595    5.9464 C   0  0  0  0  0  0  0  0  0  0  0  0
   33.2930   12.2407    5.8393 N   0  0  0  0  0  0  0  0  0  0  0  0
   32.0535   12.4284    6.4912 C   0  0  0  0  0  0  0  0  0  0  0  0
   31.3220   13.3569    6.6637 O   0  0  0  0  0  0  0  0  0  0  0  0
   31.7596   11.0729    6.9591 C   0  0  0  0  0  0  0  0  0  0  0  0
   30.6093   10.7259    7.8747 C   0  0  0  0  0  0  0  0  0  0  0  0
   30.5593    9.2678    8.1465 C   0  0  0  0  0  0  0  0  0  0  0  0
   31.6486    8.4062    7.4628 C   0  0  0  0  0  0  0  0  0  0  0  0
   32.6124    8.8907    6.6779 C   0  0  0  0  0  0  0  0  0  0  0  0
   32.6487   10.2772    6.4386 C   0  0  0  0  0  0  0  0  0  0  0  0
   33.5755   10.9019    5.6804 C   0  0  0  0  0  0  0  0  0  0  0  0
   34.4600   10.3620    5.0495 O   0  0  0  0  0  0  0  0  0  0  0  0
  1  2  1  0
  2  3  2  0
  2  4  2  0
  2  5  1  0
  5  6  1  0
  6  7  1  0
  7  8  1  0
  8  9  2  0
  8 10  1  0
 10 11  2  0
 11 12  1  0
 12 13  2  0
 13 14  1  0
 14 15  2  0
 15 16  1  0
 16 17  2  0
 16  7  1  0
 15 10  1  0
A    1
 N1 
A    2
 S1 
A    3
 O1 
A    4
 O2 
A    5
 C1 
A    6
 C2 
A    7
 N2 
A    8
 C3 
A    9
 O3 
A   10
 C4 
A   11
 C5 
A   12
 C6 
A   13
 C7 
A   14
 C8 
A   15
 C9 
A   16
 C10
A   17
 O4 
M  END
>  <ref_pdb>  (452) 
Ax0310a

>  <ref_mols>  (452) 
Ax0446a,Ax1080a,Ax0812a,Ax0719a,Ax1140a,Ax0528a,Ax0310a

>  <original SMILES>  (452) 
NS(=O)(=O)CCN1C(=O)c2ccccc2C1=O

>  <rationale>  (452) 
info info set:sulfonimide_whole;hbond:S87+G127+E85; 

>  <experiment>  (452) 
sulfonimide_whole

>  <cluster_label>  (452) 
3

>  <cluster_rank>  (452) 
109

>  <N_interactions>  (452) 
3

>  <∆∆G>  (452) 
-5.327474

>  <comRMSD>  (452) 
0.905498

>  <ROCS_TanimotoCombo>  (452) 
0.39

>  <ROCS_ShapeTanimoto>  (452) 
0.223

>  <ROCS_ColorTanimoto>  (452) 
0.167

$$$$
Z1269974243
     RDKit          3D

 23 25  0  0  0  0  0  0  0  0999 V2000
   29.8106    8.2210    8.4152 C   0  0  0  0  0  0  0  0  0  0  0  0
   31.1096    8.8802    8.6522 C   0  0  0  0  0  0  0  0  0  0  0  0
   31.8289    9.6087    7.4608 C   0  0  0  0  0  0  0  0  0  0  0  0
   31.6855   11.1191    7.2683 C   0  0  0  0  0  0  0  0  0  0  0  0
   30.8583   12.0470    8.1507 C   0  0  0  0  0  0  0  0  0  0  0  0
   31.3746   12.9727    8.7519 O   0  0  0  0  0  0  0  0  0  0  0  0
   29.5557   11.7469    8.1519 N   0  0  0  0  0  0  0  0  0  0  0  0
   28.4988   12.6573    8.5456 C   0  0  0  0  0  0  0  0  0  0  0  0
   28.7739   14.0124    8.4397 C   0  0  0  0  0  0  0  0  0  0  0  0
   28.4726   14.7706    7.2362 C   0  0  0  0  0  0  0  0  0  0  0  0
   27.8727   13.9602    6.1021 C   0  0  0  0  0  0  0  0  0  0  0  0
   28.7796   16.0234    7.3521 N   0  0  0  0  0  0  0  0  0  0  0  0
   29.3041   16.1631    8.6195 O   0  0  0  0  0  0  0  0  0  0  0  0
   29.3087   14.9123    9.2966 C   0  0  0  0  0  0  0  0  0  0  0  0
   29.8119   14.8519   10.5953 C   0  0  0  0  0  0  0  0  0  0  0  0
   32.3668   11.8291    6.2040 C   0  0  0  0  0  0  0  0  0  0  0  0
   33.1703   10.9655    5.2968 C   0  0  0  0  0  0  0  0  0  0  0  0
   33.7630   11.8500    4.1802 C   0  0  0  0  0  0  0  0  0  0  0  0
   34.5236   10.8043    3.4018 C   0  0  0  0  0  0  0  0  0  0  0  0
   34.6543    9.4697    3.6250 C   0  0  0  0  0  0  0  0  0  0  0  0
   34.0652    8.8738    4.6542 C   0  0  0  0  0  0  0  0  0  0  0  0
   33.2869    9.5749    5.5382 C   0  0  0  0  0  0  0  0  0  0  0  0
   32.6629    8.8706    6.6062 O   0  0  0  0  0  0  0  0  0  0  0  0
  1  2  1  0
  2  3  1  0
  3  4  2  0
  4  5  1  0
  5  6  2  0
  5  7  1  0
  7  8  1  0
  8  9  1  0
  9 10  1  0
 10 11  1  0
 10 12  2  0
 12 13  1  0
 13 14  1  0
 14 15  1  0
  4 16  1  0
 16 17  1  0
 17 18  2  0
 18 19  1  0
 19 20  2  0
 20 21  1  0
 21 22  2  0
 22 23  1  0
 23  3  1  0
 14  9  2  0
 22 17  1  0
A    1
 C1 
A    2
 C2 
A    3
 C3 
A    4
 C4 
A    5
 C5 
A    6
 O1 
A    7
 N1 
A    8
 C6 
A    9
 C7 
A   10
 C8 
A   11
 C9 
A   12
 N2 
A   13
 O2 
A   14
 C10
A   15
 C11
A   16
 C12
A   17
 C13
A   18
 C14
A   19
 C15
A   20
 C16
A   21
 C17
A   22
 C18
A   23
 O3 
M  END
>  <ref_pdb>  (453) 
Ax0310a

>  <ref_mols>  (453) 
Ax0446a,Ax1080a,Ax0812a,Ax0719a,Ax1140a,Ax0528a,Ax0310a

>  <original SMILES>  (453) 
CCC1=C(C(=O)NCc2c(C)noc2C)Cc2ccccc2O1

>  <rationale>  (453) 
info info set:screening_pocket;hbond:S87+G127+Y90; hydroph_interaction:P107+Y89+Y90+V124; pistack:H21; 

>  <experiment>  (453) 
screening_pocket

>  <cluster_label>  (453) 
3

>  <cluster_rank>  (453) 
110

>  <N_interactions>  (453) 
8

>  <∆∆G>  (453) 
-4.115412

>  <comRMSD>  (453) 
0.658883

>  <ROCS_TanimotoCombo>  (453) 
0.644

>  <ROCS_ShapeTanimoto>  (453) 
0.265

>  <ROCS_ColorTanimoto>  (453) 
0.378

$$$$
EN300_307186
     RDKit          3D

 15 16  0  0  0  0  0  0  0  0999 V2000
   30.3851    9.2046    8.5083 C   0  0  0  0  0  0  0  0  0  0  0  0
   31.3739    9.9602    7.6079 C   0  0  0  0  0  0  0  0  0  0  0  0
   32.3943    9.2382    6.8746 N   0  0  0  0  0  0  0  0  0  0  0  0
   33.1268   10.1425    6.1795 N   0  0  0  0  0  0  0  0  0  0  0  0
   34.1243    9.6751    5.4248 C   0  0  0  0  0  0  0  0  0  0  0  0
   34.8870   10.6076    4.6873 C   0  0  0  0  0  0  0  0  0  0  0  0
   36.2842   10.2955    3.5209 Br  0  0  0  0  0  0  0  0  0  0  0  0
   34.4113   12.0614    4.9335 C   0  0  0  0  0  0  0  0  0  0  0  0
   33.3137   12.5616    5.7587 N   0  0  0  0  0  0  0  0  0  0  0  0
   32.7144   11.5150    6.3507 C   0  0  0  0  0  0  0  0  0  0  0  0
   31.5436   11.3204    7.2905 C   0  0  0  0  0  0  0  0  0  0  0  0
   30.6905   12.8108    7.7465 S   0  0  0  0  0  6  0  0  0  0  0  0
   29.2301   12.4517    8.4551 N   0  0  0  0  0  0  0  0  0  0  0  0
   30.3933   13.3983    6.4644 O   0  0  0  0  0  0  0  0  0  0  0  0
   31.5276   13.4968    8.7123 O   0  0  0  0  0  0  0  0  0  0  0  0
  1  2  1  0
  2  3  2  0
  3  4  1  0
  4  5  1  0
  5  6  2  0
  6  7  1  0
  6  8  1  0
  8  9  2  0
  9 10  1  0
 10 11  2  0
 11 12  1  0
 12 13  1  0
 12 14  2  0
 12 15  2  0
 11  2  1  0
 10  4  1  0
A    1
 C1 
A    2
 C2 
A    3
 N1 
A    4
 N2 
A    5
 C3 
A    6
 C4 
A    7
BR1 
A    8
 C5 
A    9
 N3 
A   10
 C6 
A   11
 C7 
A   12
 S1 
A   13
 N4 
A   14
 O1 
A   15
 O2 
M  END
>  <ref_pdb>  (454) 
Ax0310a

>  <ref_mols>  (454) 
Ax0446a,Ax1080a,Ax0812a,Ax0719a,Ax1140a,Ax0528a,Ax0310a

>  <original SMILES>  (454) 
Cc1nn2cc(Br)cnc2c1S(N)(=O)=O

>  <rationale>  (454) 
info info set:sulfonimide_whole;hbond:S87+S125; 

>  <experiment>  (454) 
sulfonimide_whole

>  <cluster_label>  (454) 
3

>  <cluster_rank>  (454) 
111

>  <N_interactions>  (454) 
2

>  <∆∆G>  (454) 
-7.146046

>  <comRMSD>  (454) 
0.574686

>  <ROCS_TanimotoCombo>  (454) 
0.363

>  <ROCS_ShapeTanimoto>  (454) 
0.21

>  <ROCS_ColorTanimoto>  (454) 
0.153

$$$$
Z168233872
     RDKit          3D

 16 17  0  0  0  0  0  0  0  0999 V2000
   30.3707    8.9542    8.2438 C   0  0  0  0  0  0  0  0  0  0  0  0
   31.1891    9.8850    7.6215 C   0  0  0  0  0  0  0  0  0  0  0  0
   32.2831    9.5945    6.8509 C   0  0  0  0  0  0  0  0  0  0  0  0
   32.8664   10.7340    6.4007 C   0  0  0  0  0  0  0  0  0  0  0  0
   33.9927   10.8408    5.6027 C   0  0  0  0  0  0  0  0  0  0  0  0
   32.0746   11.7057    6.9319 N   0  0  0  0  0  0  0  0  0  0  0  0
   32.2075   13.1125    6.8033 C   0  0  0  0  0  0  0  0  0  0  0  0
   31.6543   13.6426    8.0725 C   0  0  0  0  0  0  0  0  0  0  0  0
   32.3682   13.9623    9.0202 O   0  0  0  0  0  0  0  0  0  0  0  0
   30.2004   13.7528    8.0477 N   0  0  0  0  0  0  0  0  0  0  0  0
   29.3601   13.4077    6.8752 C   0  0  0  0  0  0  0  0  0  0  0  0
   27.8916   13.4682    7.1650 C   0  0  0  0  0  0  0  0  0  0  0  0
   27.5525   14.7439    7.9358 C   0  0  0  0  0  0  0  0  0  0  0  0
   28.1117   14.2078    9.2422 C   0  0  0  0  0  0  0  0  0  0  0  0
   29.5926   14.4249    9.1995 C   0  0  0  0  0  0  0  0  0  0  0  0
   31.0365   11.2114    7.6793 N   0  0  0  0  0  0  0  0  0  0  0  0
  1  2  1  0
  2  3  1  0
  3  4  2  0
  4  5  1  0
  4  6  1  0
  6  7  1  0
  7  8  1  0
  8  9  2  0
  8 10  1  0
 10 11  1  0
 11 12  1  0
 12 13  1  0
 13 14  1  0
 14 15  1  0
  6 16  1  0
 16  2  2  0
 15 10  1  0
A    1
 C1 
A    2
 C2 
A    3
 C3 
A    4
 C4 
A    5
 C5 
A    6
 N1 
A    7
 C6 
A    8
 C7 
A    9
 O1 
A   10
 N2 
A   11
 C8 
A   12
 C9 
A   13
 C10
A   14
 C11
A   15
 C12
A   16
 N3 
M  END
>  <ref_pdb>  (455) 
Ax0310a

>  <ref_mols>  (455) 
Ax0446a,Ax1080a,Ax0812a,Ax0719a,Ax1140a,Ax0528a,Ax0310a

>  <original SMILES>  (455) 
Cc1cc(C)n(CC(=O)N2CCCCC2)n1

>  <rationale>  (455) 
info info set:3d;hbond:S87+G127; hydroph_interaction:Y89; 

>  <experiment>  (455) 
3d

>  <cluster_label>  (455) 
3

>  <cluster_rank>  (455) 
112

>  <N_interactions>  (455) 
3

>  <∆∆G>  (455) 
-8.986291

>  <comRMSD>  (455) 
0.727148

>  <ROCS_TanimotoCombo>  (455) 
0.328

>  <ROCS_ShapeTanimoto>  (455) 
0.199

>  <ROCS_ColorTanimoto>  (455) 
0.129

$$$$
EN300_1154637
     RDKit          3D

 16 17  0  0  0  0  0  0  0  0999 V2000
   30.8842    8.1776    9.1340 C   0  0  0  0  0  0  0  0  0  0  0  0
   30.2212    9.1409    8.2944 C   0  0  0  0  0  0  0  0  0  0  0  0
   28.7934    9.4742    8.6821 C   0  0  0  0  0  0  0  0  0  0  0  0
   30.9082   10.4837    8.1553 C   0  0  0  0  0  0  0  0  0  0  0  0
   30.4385   11.4796    8.6619 O   0  0  0  0  0  0  0  0  0  0  0  0
   32.0320   10.5783    7.3985 N   0  0  0  0  0  0  0  0  0  0  0  0
   32.3386    9.4529    6.5717 C   0  0  0  0  0  0  0  0  0  0  0  0
   33.4622    9.7713    5.4753 C   0  0  1  0  0  0  0  0  0  0  0  0
   34.5383    8.8225    5.2786 N   0  0  0  0  0  0  0  0  0  0  0  0
   33.3807   10.6994    4.5175 C   0  0  0  0  0  0  0  0  0  0  0  0
   33.6019   11.2641    5.9555 C   0  0  2  0  0  0  0  0  0  0  0  0
   34.5977   12.3325    5.5937 C   0  0  0  0  0  0  0  0  0  0  0  0
   34.8533   13.1613    6.6178 F   0  0  0  0  0  0  0  0  0  0  0  0
   35.7384   11.8005    5.1018 F   0  0  0  0  0  0  0  0  0  0  0  0
   34.0533   13.0760    4.6022 F   0  0  0  0  0  0  0  0  0  0  0  0
   32.4212   11.7581    6.7079 C   0  0  0  0  0  0  0  0  0  0  0  0
  1  2  1  0
  2  3  1  0
  2  4  1  0
  4  5  2  0
  4  6  1  0
  6  7  1  0
  7  8  1  0
  8  9  1  6
  8 10  1  0
 10 11  1  0
 11 12  1  6
 12 13  1  0
 12 14  1  0
 12 15  1  0
 11 16  1  0
 16  6  1  0
 11  8  1  0
A    1
 C1 
A    2
 C2 
A    3
 C3 
A    4
 C4 
A    5
 O1 
A    6
 N1 
A    7
 C5 
A    8
 C6 
A    9
 N2 
A   10
 C7 
A   11
 C8 
A   12
 C9 
A   13
 F1 
A   14
 F2 
A   15
 F3 
A   16
 C10
M  END
>  <ref_pdb>  (456) 
Ax0310a

>  <ref_mols>  (456) 
Ax0446a,Ax1080a,Ax0812a,Ax0719a,Ax1140a,Ax0528a,Ax0310a

>  <original SMILES>  (456) 
CC(C)C(=O)N1C[C@@]2(N)C[C@@]2(C(F)(F)F)C1

>  <rationale>  (456) 
info info set:bb_densepocket2;hbond:S105; hydroph_interaction:P107+V124; 

>  <experiment>  (456) 
bb_densepocket2

>  <cluster_label>  (456) 
3

>  <cluster_rank>  (456) 
113

>  <N_interactions>  (456) 
3

>  <∆∆G>  (456) 
-5.4255

>  <comRMSD>  (456) 
0.754502

>  <ROCS_TanimotoCombo>  (456) 
0.655

>  <ROCS_ShapeTanimoto>  (456) 
0.239

>  <ROCS_ColorTanimoto>  (456) 
0.416

$$$$
Z3522296777
     RDKit          3D

 13 15  0  0  0  0  0  0  0  0999 V2000
   30.2785   13.6018    9.1859 N   0  0  0  0  0  0  0  0  0  0  0  0
   30.9235   13.1262    7.9667 C   0  0  2  0  0  0  0  0  0  0  0  0
   30.1202   12.4852    6.9613 C   0  0  0  0  0  0  0  0  0  0  0  0
   31.1545   11.6471    7.5573 C   0  0  2  0  0  0  0  0  0  0  0  0
   30.5285   10.4166    8.1948 C   0  0  0  0  0  0  0  0  0  0  0  0
   31.1892    9.0931    7.8160 C   0  0  0  0  0  0  0  0  0  0  0  0
   31.9711    9.0862    6.6201 O   0  0  0  0  0  0  0  0  0  0  0  0
   32.7034   10.0407    6.3616 C   0  0  0  0  0  0  0  0  0  0  0  0
   33.9564    9.6868    5.5517 C   0  0  0  0  0  0  0  0  0  0  0  0
   34.8313   10.7346    5.2129 C   0  0  0  0  0  0  0  0  0  0  0  0
   34.5059   12.0070    5.6328 C   0  0  0  0  0  0  0  0  0  0  0  0
   33.3651   12.4715    6.3979 C   0  0  0  0  0  0  0  0  0  0  0  0
   32.4084   11.3514    6.7686 C   0  0  0  0  0  0  0  0  0  0  0  0
  2  1  1  1
  2  3  1  0
  4  3  1  6
  4  5  1  0
  5  6  1  0
  6  7  1  0
  7  8  1  0
  8  9  2  0
  9 10  1  0
 10 11  2  0
 11 12  1  0
 12 13  2  0
  4  2  1  0
 13  8  1  0
 13  4  1  0
A    1
 N1 
A    2
 C1 
A    3
 C2 
A    4
 C3 
A    5
 C4 
A    6
 C5 
A    7
 O1 
A    8
 C6 
A    9
 C7 
A   10
 C8 
A   11
 C9 
A   12
 C10
A   13
 C11
M  END
>  <ref_pdb>  (457) 
Ax0310a

>  <ref_mols>  (457) 
Ax0446a,Ax1080a,Ax0812a,Ax0719a,Ax1140a,Ax0528a,Ax0310a

>  <original SMILES>  (457) 
N[C@@H]1C[C@]12CCOc1ccccc12

>  <rationale>  (457) 
info info set:3d;hbond:S87+S125; hydroph_interaction:P107; 

>  <experiment>  (457) 
3d

>  <cluster_label>  (457) 
3

>  <cluster_rank>  (457) 
114

>  <N_interactions>  (457) 
3

>  <∆∆G>  (457) 
-5.418967

>  <comRMSD>  (457) 
0.55904

>  <ROCS_TanimotoCombo>  (457) 
0.324

>  <ROCS_ShapeTanimoto>  (457) 
0.205

>  <ROCS_ColorTanimoto>  (457) 
0.12

$$$$
Z1507416588
     RDKit          3D

 17 19  0  0  0  0  0  0  0  0999 V2000
   34.4321   13.3088    5.8336 O   0  0  0  0  0  0  0  0  0  0  0  0
   33.7546   12.2850    5.0721 S   0  0  0  0  0  6  0  0  0  0  0  0
   33.0631   12.5680    3.8335 O   0  0  0  0  0  0  0  0  0  0  0  0
   34.8143   10.8560    4.9149 C   0  0  0  0  0  0  0  0  0  0  0  0
   34.1505    9.5027    5.2792 C   0  0  0  0  0  0  0  0  0  0  0  0
   32.9987   10.0573    6.1377 C   0  0  0  0  0  0  0  0  0  0  0  0
   32.1805    9.0914    7.0217 C   0  0  0  0  0  0  0  0  0  0  0  0
   31.0558    9.7779    7.7625 C   0  0  0  0  0  0  0  0  0  0  0  0
   30.8152   11.2579    7.5999 C   0  0  0  0  0  0  0  0  0  0  0  0
   29.7086   11.9140    8.2416 N   0  0  0  0  0  0  0  0  0  0  0  0
   28.6326   12.2996    7.4218 C   0  0  0  0  0  0  0  0  0  0  0  0
   28.0268   13.7004    7.7424 C   0  0  0  0  0  0  0  0  0  0  0  0
   29.0562   14.6835    7.5338 C   0  0  0  0  0  0  0  0  0  0  0  0
   28.9280   15.3577    8.6085 C   0  0  0  0  0  0  0  0  0  0  0  0
   28.1181   14.3535    9.1911 C   0  0  0  0  0  0  0  0  0  0  0  0
   31.6379   12.0203    6.7967 C   0  0  0  0  0  0  0  0  0  0  0  0
   32.6844   11.4155    6.1044 C   0  0  0  0  0  0  0  0  0  0  0  0
  1  2  2  0
  2  3  2  0
  2  4  1  0
  4  5  1  0
  5  6  1  0
  6  7  2  0
  7  8  1  0
  8  9  2  0
  9 10  1  0
 10 11  1  0
 11 12  1  0
 12 13  1  0
 13 14  1  0
 14 15  1  0
  9 16  1  0
 16 17  2  0
 17  2  1  0
 17  6  1  0
 15 12  1  0
A    1
 O1 
A    2
 S1 
A    3
 O2 
A    4
 C1 
A    5
 C2 
A    6
 C3 
A    7
 C4 
A    8
 C5 
A    9
 C6 
A   10
 N1 
A   11
 C7 
A   12
 C8 
A   13
 C9 
A   14
 C10
A   15
 C11
A   16
 C12
A   17
 C13
M  END
>  <ref_pdb>  (458) 
Ax0310a

>  <ref_mols>  (458) 
Ax0446a,Ax1080a,Ax0812a,Ax0719a,Ax1140a,Ax0528a,Ax0310a

>  <original SMILES>  (458) 
O=S1(=O)CCc2ccc(NCC3CCC3)cc21

>  <rationale>  (458) 
info info set:3d;hbond:S125; hydroph_interaction:Y90; 

>  <experiment>  (458) 
3d

>  <cluster_label>  (458) 
3

>  <cluster_rank>  (458) 
115

>  <N_interactions>  (458) 
2

>  <∆∆G>  (458) 
-6.333098

>  <comRMSD>  (458) 
0.717882

>  <ROCS_TanimotoCombo>  (458) 
0.357

>  <ROCS_ShapeTanimoto>  (458) 
0.223

>  <ROCS_ColorTanimoto>  (458) 
0.134

$$$$
EN300_679990
     RDKit          3D

 16 17  0  0  0  0  0  0  0  0999 V2000
   31.1874    8.3956    9.0591 C   0  0  0  0  0  0  0  0  0  0  0  0
   30.7362    9.0577    8.0188 C   0  0  0  0  0  0  0  0  0  0  0  0
   29.5878    8.3557    8.1982 C   0  0  0  0  0  0  0  0  0  0  0  0
   30.3850   10.5226    8.2715 C   0  0  0  0  0  0  0  0  0  0  0  0
   31.3929   11.5338    7.8496 C   0  0  2  0  0  0  0  0  0  0  0  0
   30.6061   13.1605    7.7352 S   0  0  0  0  0  6  0  0  0  0  0  0
   29.2297   13.0930    8.6663 N   0  0  0  0  0  0  0  0  0  0  0  0
   31.4438   14.0992    8.4413 O   0  0  0  0  0  0  0  0  0  0  0  0
   30.1526   13.3501    6.3823 O   0  0  0  0  0  0  0  0  0  0  0  0
   32.4410   11.1820    6.9139 C   0  0  0  0  0  0  0  0  0  0  0  0
   33.3344   12.1785    6.4842 C   0  0  0  0  0  0  0  0  0  0  0  0
   34.3595   11.8587    5.6086 C   0  0  0  0  0  0  0  0  0  0  0  0
   34.4843   10.5429    5.1697 C   0  0  0  0  0  0  0  0  0  0  0  0
   33.5864    9.5594    5.6081 C   0  0  0  0  0  0  0  0  0  0  0  0
   32.5480    9.8720    6.4913 C   0  0  0  0  0  0  0  0  0  0  0  0
   31.6815    8.8412    6.8970 O   0  0  0  0  0  0  0  0  0  0  0  0
  1  2  1  0
  2  3  1  0
  2  4  1  0
  4  5  1  0
  5  6  1  6
  6  7  1  0
  6  8  2  0
  6  9  2  0
  5 10  1  0
 10 11  2  0
 11 12  1  0
 12 13  2  0
 13 14  1  0
 14 15  2  0
 15 16  1  0
 16  2  1  0
 15 10  1  0
A    1
 C1 
A    2
 C2 
A    3
 C3 
A    4
 C4 
A    5
 C5 
A    6
 S1 
A    7
 N1 
A    8
 O1 
A    9
 O2 
A   10
 C6 
A   11
 C7 
A   12
 C8 
A   13
 C9 
A   14
 C10
A   15
 C11
A   16
 O3 
M  END
>  <ref_pdb>  (459) 
Ax0310a

>  <ref_mols>  (459) 
Ax0446a,Ax1080a,Ax0812a,Ax0719a,Ax1140a,Ax0528a,Ax0310a

>  <original SMILES>  (459) 
CC1(C)C[C@H](S(N)(=O)=O)c2ccccc2O1

>  <rationale>  (459) 
info info set:sulfonimide_whole;hbond:S87+S125; hydroph_interaction:V124; 

>  <experiment>  (459) 
sulfonimide_whole

>  <cluster_label>  (459) 
3

>  <cluster_rank>  (459) 
116

>  <N_interactions>  (459) 
3

>  <∆∆G>  (459) 
-4.979774

>  <comRMSD>  (459) 
0.762126

>  <ROCS_TanimotoCombo>  (459) 
0.391

>  <ROCS_ShapeTanimoto>  (459) 
0.216

>  <ROCS_ColorTanimoto>  (459) 
0.176

$$$$
EN300_349369
     RDKit          3D

 20 21  0  0  0  0  0  0  0  0999 V2000
   35.1019   13.5300    8.7853 N   0  0  0  0  0  0  0  0  0  0  0  0
   33.7487   14.0291    7.9935 S   0  0  0  0  0  6  0  0  0  0  0  0
   34.2518   14.7304    6.8308 O   0  0  0  0  0  0  0  0  0  0  0  0
   32.9529   14.6411    9.0378 O   0  0  0  0  0  0  0  0  0  0  0  0
   32.7858   12.6509    7.4559 C   0  0  0  0  0  0  0  0  0  0  0  0
   33.2159   12.0623    6.1520 C   0  0  1  0  0  0  0  0  0  0  0  0
   34.4174   12.2396    5.5028 C   0  0  0  0  0  0  0  0  0  0  0  0
   34.8662   11.0510    4.9823 C   0  0  0  0  0  0  0  0  0  0  0  0
   34.0320    9.9969    5.3486 C   0  0  0  0  0  0  0  0  0  0  0  0
   33.1682   10.5750    6.2501 N   0  0  0  0  0  0  0  0  0  0  0  0
   32.0594    9.9716    6.8858 C   0  0  0  0  0  0  0  0  0  0  0  0
   31.9988    8.8132    7.3107 O   0  0  0  0  0  0  0  0  0  0  0  0
   31.0882   10.9056    6.9229 O   0  0  0  0  0  0  0  0  0  0  0  0
   30.2496   10.9748    8.0517 C   0  0  0  0  0  0  0  0  0  0  0  0
   29.5791   12.2231    8.0214 C   0  0  0  0  0  0  0  0  0  0  0  0
   28.3715   12.4242    7.1621 C   0  0  0  0  0  0  0  0  0  0  0  0
   27.7102   13.6249    7.1299 C   0  0  0  0  0  0  0  0  0  0  0  0
   28.2396   14.7371    8.0021 C   0  0  0  0  0  0  0  0  0  0  0  0
   29.4618   14.5231    8.8659 C   0  0  0  0  0  0  0  0  0  0  0  0
   30.0666   13.2811    8.8229 C   0  0  0  0  0  0  0  0  0  0  0  0
  1  2  1  0
  2  3  2  0
  2  4  2  0
  2  5  1  0
  6  5  1  1
  6  7  1  0
  7  8  1  0
  8  9  1  0
  9 10  1  0
 10 11  1  0
 11 12  2  0
 11 13  1  0
 13 14  1  0
 14 15  1  0
 15 16  2  0
 16 17  1  0
 17 18  2  0
 18 19  1  0
 19 20  2  0
 10  6  1  0
 20 15  1  0
A    1
 N1 
A    2
 S1 
A    3
 O1 
A    4
 O2 
A    5
 C1 
A    6
 C2 
A    7
 C3 
A    8
 C4 
A    9
 C5 
A   10
 N2 
A   11
 C6 
A   12
 O3 
A   13
 O4 
A   14
 C7 
A   15
 C8 
A   16
 C9 
A   17
 C10
A   18
 C11
A   19
 C12
A   20
 C13
M  END
>  <ref_pdb>  (460) 
Ax0310a

>  <ref_mols>  (460) 
Ax0446a,Ax1080a,Ax0812a,Ax0719a,Ax1140a,Ax0528a,Ax0310a

>  <original SMILES>  (460) 
NS(=O)(=O)C[C@H]1CCCN1C(=O)OCc1ccccc1

>  <rationale>  (460) 
info info set:sulfonimide_whole;hbond:S87+G127+E85; hydroph_interaction:P107+Y89; 

>  <experiment>  (460) 
sulfonimide_whole

>  <cluster_label>  (460) 
3

>  <cluster_rank>  (460) 
117

>  <N_interactions>  (460) 
5

>  <∆∆G>  (460) 
-4.525711

>  <comRMSD>  (460) 
0.694219

>  <ROCS_TanimotoCombo>  (460) 
0.357

>  <ROCS_ShapeTanimoto>  (460) 
0.237

>  <ROCS_ColorTanimoto>  (460) 
0.119

$$$$
EN300_71961
     RDKit          3D

 17 18  0  0  0  0  0  0  0  0999 V2000
   35.0638   12.9690    6.5038 N   0  0  0  0  0  0  0  0  0  0  0  0
   34.2973   11.9014    5.4721 S   0  0  0  0  0  6  0  0  0  0  0  0
   35.1766   10.7687    5.2840 O   0  0  0  0  0  0  0  0  0  0  0  0
   33.9360   12.7809    4.4080 O   0  0  0  0  0  0  0  0  0  0  0  0
   32.8507   11.4396    6.4128 C   0  0  0  0  0  0  0  0  0  0  0  0
   32.6009    9.9924    6.6875 C   0  0  0  0  0  0  0  0  0  0  0  0
   31.4666    9.6601    7.4320 C   0  0  0  0  0  0  0  0  0  0  0  0
   30.6093   10.6696    7.8838 C   0  0  0  0  0  0  0  0  0  0  0  0
   30.8573   12.0403    7.5986 C   0  0  0  0  0  0  0  0  0  0  0  0
   29.8873   12.9530    8.1026 N   0  0  0  0  0  0  0  0  0  0  0  0
   28.6015   13.0013    7.5510 C   0  0  0  0  0  0  0  0  0  0  0  0
   27.9506   12.1991    6.9200 O   0  0  0  0  0  0  0  0  0  0  0  0
   28.0645   14.3378    7.8532 C   0  0  0  0  0  0  0  0  0  0  0  0
   29.0499   15.1325    8.6216 C   0  0  0  0  0  0  0  0  0  0  0  0
   30.2322   14.1523    8.7567 C   0  0  0  0  0  0  0  0  0  0  0  0
   31.2507   14.4913    9.3405 O   0  0  0  0  0  0  0  0  0  0  0  0
   31.9811   12.4138    6.8695 C   0  0  0  0  0  0  0  0  0  0  0  0
  1  2  1  0
  2  3  2  0
  2  4  2  0
  2  5  1  0
  5  6  2  0
  6  7  1  0
  7  8  2  0
  8  9  1  0
  9 10  1  0
 10 11  1  0
 11 12  2  0
 11 13  1  0
 13 14  2  0
 14 15  1  0
 15 16  2  0
  9 17  2  0
 17  5  1  0
 15 10  1  0
A    1
 N1 
A    2
 S1 
A    3
 O1 
A    4
 O2 
A    5
 C1 
A    6
 C2 
A    7
 C3 
A    8
 C4 
A    9
 C5 
A   10
 N2 
A   11
 C6 
A   12
 O3 
A   13
 C7 
A   14
 C8 
A   15
 C9 
A   16
 O4 
A   17
 C10
M  END
>  <ref_pdb>  (461) 
Ax0310a

>  <ref_mols>  (461) 
Ax0446a,Ax1080a,Ax0812a,Ax0719a,Ax1140a,Ax0528a,Ax0310a

>  <original SMILES>  (461) 
NS(=O)(=O)c1cccc(N2C(=O)C=CC2=O)c1

>  <rationale>  (461) 
info info set:sulfonimide_whole;hbond:S87+G127; hydroph_interaction:Y90; 

>  <experiment>  (461) 
sulfonimide_whole

>  <cluster_label>  (461) 
3

>  <cluster_rank>  (461) 
118

>  <N_interactions>  (461) 
3

>  <∆∆G>  (461) 
-6.177032

>  <comRMSD>  (461) 
0.767117

>  <ROCS_TanimotoCombo>  (461) 
0.355

>  <ROCS_ShapeTanimoto>  (461) 
0.219

>  <ROCS_ColorTanimoto>  (461) 
0.136

$$$$
EN300_7010838
     RDKit          3D

 16 17  0  0  0  0  0  0  0  0999 V2000
   27.7193   14.1738    7.4071 C   0  0  0  0  0  0  0  0  0  0  0  0
   28.4600   14.6184    8.6624 C   0  0  0  0  0  0  0  0  0  0  0  0
   27.6781   14.4922    9.9538 C   0  0  0  0  0  0  0  0  0  0  0  0
   28.8103   16.0862    8.4953 C   0  0  0  0  0  0  0  0  0  0  0  0
   29.7108   13.9305    8.7978 O   0  0  0  0  0  0  0  0  0  0  0  0
   30.1357   13.1355    7.8117 C   0  0  0  0  0  0  0  0  0  0  0  0
   30.2139   13.4280    6.6388 O   0  0  0  0  0  0  0  0  0  0  0  0
   30.4858   11.9394    8.3225 N   0  0  0  0  0  0  0  0  0  0  0  0
   31.5038   11.1573    7.6826 C   0  0  2  0  0  0  0  0  0  0  0  0
   31.4513    9.6199    7.7998 C   0  0  0  0  0  0  0  0  0  0  0  0
   32.6485    9.3083    7.0909 O   0  0  0  0  0  0  0  0  0  0  0  0
   32.9228   10.5472    6.3689 C   0  0  2  0  0  0  0  0  0  0  0  0
   33.7910   10.3241    5.1580 C   0  0  0  0  0  0  0  0  0  0  0  0
   35.1439   10.6744    5.4159 O   0  0  0  0  0  0  0  0  0  0  0  0
   32.8753   11.8441    7.2596 C   0  0  0  0  0  0  0  0  0  0  0  0
   31.5412   11.2127    6.1733 C   0  0  0  0  0  0  0  0  0  0  0  0
  1  2  1  0
  2  3  1  0
  2  4  1  0
  2  5  1  0
  5  6  1  0
  6  7  2  0
  6  8  1  0
  9  8  1  1
  9 10  1  0
 10 11  1  0
 11 12  1  0
 12 13  1  6
 13 14  1  0
 12 15  1  0
 12 16  1  0
 15  9  1  0
 16  9  1  0
A    1
 C1 
A    2
 C2 
A    3
 C3 
A    4
 C4 
A    5
 O1 
A    6
 C5 
A    7
 O2 
A    8
 N1 
A    9
 C6 
A   10
 C7 
A   11
 O3 
A   12
 C8 
A   13
 C9 
A   14
 O4 
A   15
 C10
A   16
 C11
M  END
>  <ref_pdb>  (462) 
Ax0310a

>  <ref_mols>  (462) 
Ax0446a,Ax1080a,Ax0812a,Ax0719a,Ax1140a,Ax0528a,Ax0310a

>  <original SMILES>  (462) 
CC(C)(C)OC(=O)N[C@]12CO[C@](CO)(C1)C2

>  <rationale>  (462) 
info info set:bb_whole;hbond:S87+S125+G127; hydroph_interaction:P107+Y89+Y90; 

>  <experiment>  (462) 
bb_whole

>  <cluster_label>  (462) 
3

>  <cluster_rank>  (462) 
119

>  <N_interactions>  (462) 
7

>  <∆∆G>  (462) 
-4.39499

>  <comRMSD>  (462) 
0.581422

>  <ROCS_TanimotoCombo>  (462) 
0.415

>  <ROCS_ShapeTanimoto>  (462) 
0.212

>  <ROCS_ColorTanimoto>  (462) 
0.202

$$$$
EN300_1600115
     RDKit          3D

  9  9  0  0  0  0  0  0  0  0999 V2000
   29.3694    7.9218    8.4874 C   0  0  0  0  0  0  0  0  0  0  0  0
   30.5539    8.9336    9.2243 S   0  0  0  0  0  0  0  0  0  0  0  0
   31.3945    9.6556    7.8359 C   0  0  0  0  0  0  0  0  0  0  0  0
   32.1957    8.8490    7.0989 N   0  0  0  0  0  0  0  0  0  0  0  0
   32.8428    9.4177    6.0666 C   0  0  0  0  0  0  0  0  0  0  0  0
   32.7630   10.8745    5.6398 C   0  0  0  0  0  0  0  0  0  0  0  0
   31.9052   11.5607    6.4853 C   0  0  0  0  0  0  0  0  0  0  0  0
   31.2227   11.0108    7.5599 C   0  0  0  0  0  0  0  0  0  0  0  0
   30.4133   11.8402    8.3026 O   0  0  0  0  0  0  0  0  0  0  0  0
  1  2  1  0
  2  3  1  0
  3  4  2  0
  4  5  1  0
  5  6  2  0
  6  7  1  0
  7  8  2  0
  8  9  1  0
  8  3  1  0
A    1
 C1 
A    2
 S1 
A    3
 C2 
A    4
 N1 
A    5
 C3 
A    6
 C4 
A    7
 C5 
A    8
 C6 
A    9
 O1 
M  END
>  <ref_pdb>  (463) 
Ax0310a

>  <ref_mols>  (463) 
Ax0446a,Ax1080a,Ax0812a,Ax0719a,Ax1140a,Ax0528a,Ax0310a

>  <original SMILES>  (463) 
CSc1ncccc1O

>  <rationale>  (463) 
info info set:bb_densepocket2;hbond:S125+G127; hydroph_interaction:P107; 

>  <experiment>  (463) 
bb_densepocket2

>  <cluster_label>  (463) 
3

>  <cluster_rank>  (463) 
120

>  <N_interactions>  (463) 
3

>  <∆∆G>  (463) 
-5.048704

>  <comRMSD>  (463) 
0.533257

>  <ROCS_TanimotoCombo>  (463) 
0.644

>  <ROCS_ShapeTanimoto>  (463) 
0.181

>  <ROCS_ColorTanimoto>  (463) 
0.463

$$$$
EN300_15394
     RDKit          3D

 11 11  0  0  0  0  0  0  0  0999 V2000
   34.2588   11.6598    5.3619 C   0  0  0  0  0  0  0  0  0  0  0  0
   33.1167   10.9598    5.9107 N   0  0  0  0  0  0  0  0  0  0  0  0
   33.1278    9.6015    6.0015 C   0  0  0  0  0  0  0  0  0  0  0  0
   34.0143    8.9123    5.2288 N   0  0  0  0  0  0  0  0  0  0  0  0
   32.3364    8.9309    6.7794 N   0  0  0  0  0  0  0  0  0  0  0  0
   31.4095    9.5833    7.5442 C   0  0  0  0  0  0  0  0  0  0  0  0
   30.5519    8.8220    8.3260 N   0  0  0  0  0  0  0  0  0  0  0  0
   31.2998   10.9296    7.5500 C   0  0  0  0  0  0  0  0  0  0  0  0
   30.3822   11.7245    8.2583 N   0  0  0  0  0  0  0  0  0  0  0  0
   32.2614   11.6846    6.6987 C   0  0  0  0  0  0  0  0  0  0  0  0
   32.2384   12.9133    6.7557 O   0  0  0  0  0  0  0  0  0  0  0  0
  1  2  1  0
  2  3  1  0
  3  4  1  0
  3  5  2  0
  5  6  1  0
  6  7  1  0
  6  8  2  0
  8  9  1  0
  8 10  1  0
 10 11  2  0
 10  2  1  0
A    1
 C1 
A    2
 N1 
A    3
 C2 
A    4
 N2 
A    5
 N3 
A    6
 C3 
A    7
 N4 
A    8
 C4 
A    9
 N5 
A   10
 C5 
A   11
 O1 
M  END
>  <ref_pdb>  (464) 
Ax0310a

>  <ref_mols>  (464) 
Ax0446a,Ax1080a,Ax0812a,Ax0719a,Ax1140a,Ax0528a,Ax0310a

>  <original SMILES>  (464) 
Cn1c(N)nc(N)c(N)c1=O

>  <rationale>  (464) 
info info set:bb_densepocket2;hbond:S105+S125+G127; 

>  <experiment>  (464) 
bb_densepocket2

>  <cluster_label>  (464) 
3

>  <cluster_rank>  (464) 
121

>  <N_interactions>  (464) 
4

>  <∆∆G>  (464) 
-4.646147

>  <comRMSD>  (464) 
0.2728

>  <ROCS_TanimotoCombo>  (464) 
0.631

>  <ROCS_ShapeTanimoto>  (464) 
0.229

>  <ROCS_ColorTanimoto>  (464) 
0.402

$$$$
EN300_26181469
     RDKit          3D

 25 28  0  0  0  0  0  0  0  0999 V2000
   32.2199   14.3320    9.6586 C   0  0  0  0  0  0  0  0  0  0  0  0
   31.6567   13.7108    8.5646 O   0  0  0  0  0  0  0  0  0  0  0  0
   30.3543   13.9616    8.3646 C   0  0  0  0  0  0  0  0  0  0  0  0
   29.4811   14.5556    9.2365 C   0  0  0  0  0  0  0  0  0  0  0  0
   28.1432   14.7859    8.9418 C   0  0  0  0  0  0  0  0  0  0  0  0
   27.3459   15.3770    9.8384 C   0  0  0  0  0  0  0  0  0  0  0  0
   27.4665   15.0747   10.9878 O   0  0  0  0  0  0  0  0  0  0  0  0
   27.6999   14.3097    7.5599 C   0  0  0  0  0  0  0  0  0  0  0  0
   28.6335   13.7305    6.7490 C   0  0  0  0  0  0  0  0  0  0  0  0
   29.9305   13.5650    7.1371 C   0  0  0  0  0  0  0  0  0  0  0  0
   30.8453   13.0208    6.3296 O   0  0  0  0  0  0  0  0  0  0  0  0
   31.2760   11.7713    6.6619 C   0  0  0  0  0  0  0  0  0  0  0  0
   30.5820   10.9724    7.4900 N   0  0  0  0  0  0  0  0  0  0  0  0
   31.0635    9.7389    7.7161 C   0  0  0  0  0  0  0  0  0  0  0  0
   30.3142    8.8833    8.6555 C   0  0  0  0  0  0  0  0  0  0  0  0
   32.1607    9.2180    7.1691 N   0  0  0  0  0  0  0  0  0  0  0  0
   32.8126   10.0723    6.3711 C   0  0  0  0  0  0  0  0  0  0  0  0
   34.2514    9.6269    5.5610 S   0  0  0  0  0  0  0  0  0  0  0  0
   34.4517   11.1780    4.9084 C   0  0  0  0  0  0  0  0  0  0  0  0
   33.3956   11.9703    5.2723 C   0  0  0  0  0  0  0  0  0  0  0  0
   32.4504   11.3629    6.0945 C   0  0  0  0  0  0  0  0  0  0  0  0
   33.3742   13.3762    4.7788 C   0  0  0  0  0  0  0  0  0  0  0  0
   34.7980   13.9601    4.8221 C   0  0  0  0  0  0  0  0  0  0  0  0
   35.8254   13.1236    4.0216 C   0  0  0  0  0  0  0  0  0  0  0  0
   35.6151   11.5894    4.0636 C   0  0  0  0  0  0  0  0  0  0  0  0
  1  2  1  0
  2  3  1  0
  3  4  2  0
  4  5  1  0
  5  6  1  0
  6  7  2  0
  5  8  2  0
  8  9  1  0
  9 10  2  0
 10 11  1  0
 11 12  1  0
 12 13  2  0
 13 14  1  0
 14 15  1  0
 14 16  2  0
 16 17  1  0
 17 18  1  0
 18 19  1  0
 19 20  2  0
 20 21  1  0
 20 22  1  0
 22 23  1  0
 23 24  1  0
 24 25  1  0
 10  3  1  0
 21 12  1  0
 21 17  2  0
 25 19  1  0
A    1
 C1 
A    2
 O1 
A    3
 C2 
A    4
 C3 
A    5
 C4 
A    6
 C5 
A    7
 O2 
A    8
 C6 
A    9
 C7 
A   10
 C8 
A   11
 O3 
A   12
 C9 
A   13
 N1 
A   14
 C10
A   15
 C11
A   16
 N2 
A   17
 C12
A   18
 S1 
A   19
 C13
A   20
 C14
A   21
 C15
A   22
 C16
A   23
 C17
A   24
 C18
A   25
 C19
M  END
>  <ref_pdb>  (465) 
Ax0310a

>  <ref_mols>  (465) 
Ax0446a,Ax1080a,Ax0812a,Ax0719a,Ax1140a,Ax0528a,Ax0310a

>  <original SMILES>  (465) 
COc1cc(C=O)ccc1Oc1nc(C)nc2sc3c(c12)CCCC3

>  <rationale>  (465) 
info info set:bb_whole;hbond:S87; hydroph_interaction:P107+Y89+V124; 

>  <experiment>  (465) 
bb_whole

>  <cluster_label>  (465) 
3

>  <cluster_rank>  (465) 
122

>  <N_interactions>  (465) 
4

>  <∆∆G>  (465) 
-6.756559

>  <comRMSD>  (465) 
0.567245

>  <ROCS_TanimotoCombo>  (465) 
0.438

>  <ROCS_ShapeTanimoto>  (465) 
0.262

>  <ROCS_ColorTanimoto>  (465) 
0.176

$$$$
Z1065888114
     RDKit          3D

 14 14  0  0  0  0  0  0  0  0999 V2000
   30.3050    8.7827    8.9250 C   0  0  0  0  0  0  0  0  0  0  0  0
   31.2476    9.4750    7.9536 C   0  0  0  0  0  0  0  0  0  0  0  0
   32.0347    8.7460    7.1831 N   0  0  0  0  0  0  0  0  0  0  0  0
   32.7641    9.6447    6.4331 O   0  0  0  0  0  0  0  0  0  0  0  0
   32.4077   10.9146    6.7669 C   0  0  0  0  0  0  0  0  0  0  0  0
   33.0925   11.9116    6.0783 C   0  0  0  0  0  0  0  0  0  0  0  0
   31.4342   10.8655    7.7363 C   0  0  0  0  0  0  0  0  0  0  0  0
   30.7378   11.8563    8.4131 N   0  0  0  0  0  0  0  0  0  0  0  0
   30.7602   13.4596    8.0761 S   0  0  0  0  0  6  0  0  0  0  0  0
   32.0182   14.0876    8.6701 O   0  0  0  0  0  0  0  0  0  0  0  0
   30.7434   13.4879    6.6367 O   0  0  0  0  0  0  0  0  0  0  0  0
   29.2677   14.1059    8.8348 C   0  0  0  0  0  0  0  0  0  0  0  0
   28.3543   12.9628    8.7134 C   0  0  0  0  0  0  0  0  0  0  0  0
   28.5965   15.2648    8.1065 C   0  0  0  0  0  0  0  0  0  0  0  0
  1  2  1  0
  2  3  2  0
  3  4  1  0
  4  5  1  0
  5  6  1  0
  5  7  2  0
  7  8  1  0
  8  9  1  0
  9 10  2  0
  9 11  2  0
  9 12  1  0
 12 13  1  0
 12 14  1  0
  7  2  1  0
A    1
 C1 
A    2
 C2 
A    3
 N1 
A    4
 O1 
A    5
 C3 
A    6
 C4 
A    7
 C5 
A    8
 N2 
A    9
 S1 
A   10
 O2 
A   11
 O3 
A   12
 C6 
A   13
 C7 
A   14
 C8 
M  END
>  <ref_pdb>  (466) 
Ax0310a

>  <ref_mols>  (466) 
Ax0446a,Ax1080a,Ax0812a,Ax0719a,Ax1140a,Ax0528a,Ax0310a

>  <original SMILES>  (466) 
Cc1noc(C)c1NS(=O)(=O)C(C)C

>  <rationale>  (466) 
info info set:3d;hbond:S87+S125+G127; hydroph_interaction:Y89+V124; 

>  <experiment>  (466) 
3d

>  <cluster_label>  (466) 
3

>  <cluster_rank>  (466) 
123

>  <N_interactions>  (466) 
5

>  <∆∆G>  (466) 
-7.814352

>  <comRMSD>  (466) 
0.554903

>  <ROCS_TanimotoCombo>  (466) 
0.334

>  <ROCS_ShapeTanimoto>  (466) 
0.196

>  <ROCS_ColorTanimoto>  (466) 
0.139

$$$$
Z1824566820
     RDKit          3D

 17 19  0  0  0  0  0  0  0  0999 V2000
   29.8982   14.4541    9.4766 C   0  0  0  0  0  0  0  0  0  0  0  0
   29.8036   14.1788    7.9882 C   0  0  0  0  0  0  0  0  0  0  0  0
   28.5998   14.6675    7.3424 O   0  0  0  0  0  0  0  0  0  0  0  0
   30.8378   13.5435    7.3509 N   0  0  0  0  0  0  0  0  0  0  0  0
   32.0010   13.5162    8.0539 C   0  0  0  0  0  0  0  0  0  0  0  0
   33.2719   13.2446    7.2308 C   0  0  0  0  0  0  0  0  0  0  0  0
   32.7071   12.4079    6.0936 C   0  0  0  0  0  0  0  0  0  0  0  0
   31.8651   13.2455    5.4060 C   0  0  0  0  0  0  0  0  0  0  0  0
   30.6370   13.1381    6.0629 C   0  0  0  0  0  0  0  0  0  0  0  0
   33.5463   11.8674    5.1349 N   0  0  0  0  0  0  0  0  0  0  0  0
   34.1809   10.8219    5.7278 C   0  0  0  0  0  0  0  0  0  0  0  0
   33.5624    9.5718    5.8014 C   0  0  0  0  0  0  0  0  0  0  0  0
   32.4811    9.9659    6.6036 C   0  0  0  0  0  0  0  0  0  0  0  0
   31.6390    9.1108    7.4139 N   0  0  0  0  0  0  0  0  0  0  0  0
   30.7598    9.9919    7.9766 C   0  0  0  0  0  0  0  0  0  0  0  0
   30.9849   11.2474    7.5991 N   0  0  0  0  0  0  0  0  0  0  0  0
   32.0422   11.2415    6.7645 C   0  0  0  0  0  0  0  0  0  0  0  0
  1  2  1  0
  2  3  2  0
  2  4  1  0
  4  5  1  0
  5  6  1  0
  6  7  1  0
  7  8  1  0
  8  9  1  0
  7 10  1  0
 10 11  1  0
 11 12  1  0
 12 13  1  0
 13 14  1  0
 14 15  1  0
 15 16  2  0
 16 17  1  0
  9  4  1  0
 17 13  2  0
 17  7  1  0
A    1
 C1 
A    2
 C2 
A    3
 O1 
A    4
 N1 
A    5
 C3 
A    6
 C4 
A    7
 C5 
A    8
 C6 
A    9
 C7 
A   10
 N2 
A   11
 C8 
A   12
 C9 
A   13
 C10
A   14
 N3 
A   15
 C11
A   16
 N4 
A   17
 C12
M  END
>  <ref_pdb>  (467) 
Ax0310a

>  <ref_mols>  (467) 
Ax0446a,Ax1080a,Ax0812a,Ax0719a,Ax1140a,Ax0528a,Ax0310a

>  <original SMILES>  (467) 
CC(=O)N1CCC2(CC1)NCCc1[nH]cnc12

>  <rationale>  (467) 
info info set:3d;hbond:S87+G127; hydroph_interaction:P107; 

>  <experiment>  (467) 
3d

>  <cluster_label>  (467) 
3

>  <cluster_rank>  (467) 
124

>  <N_interactions>  (467) 
3

>  <∆∆G>  (467) 
-2.136438

>  <comRMSD>  (467) 
0.896008

>  <ROCS_TanimotoCombo>  (467) 
0.341

>  <ROCS_ShapeTanimoto>  (467) 
0.212

>  <ROCS_ColorTanimoto>  (467) 
0.129

$$$$
EN300_125404
     RDKit          3D

 16 17  0  0  0  0  0  0  0  0999 V2000
   35.1829   14.8591    9.1329 N   0  0  0  0  0  0  0  0  0  0  0  0
   33.7862   14.0332    8.7721 S   0  0  0  0  0  6  0  0  0  0  0  0
   34.0916   12.7610    9.2717 O   0  0  0  0  0  0  0  0  0  0  0  0
   32.6539   14.7991    9.2415 O   0  0  0  0  0  0  0  0  0  0  0  0
   33.8495   13.8498    7.0182 C   0  0  0  0  0  0  0  0  0  0  0  0
   35.0698   14.4334    6.3492 C   0  0  0  0  0  0  0  0  0  0  0  0
   35.2058   14.3111    4.8622 C   0  0  0  0  0  0  0  0  0  0  0  0
   34.0871   13.5982    4.1375 C   0  0  0  0  0  0  0  0  0  0  0  0
   32.9401   13.0410    4.6695 C   0  0  0  0  0  0  0  0  0  0  0  0
   32.7369   13.1350    6.2072 C   0  0  0  0  0  0  0  0  0  0  0  0
   31.5601   12.5963    6.9987 C   0  0  0  0  0  0  0  0  0  0  0  0
   31.6768   11.1981    7.0775 N   0  0  0  0  0  0  0  0  0  0  0  0
   32.4643   10.4479    6.1889 C   0  0  0  0  0  0  0  0  0  0  0  0
   32.3951    9.0176    6.5521 C   0  0  0  0  0  0  0  0  0  0  0  0
   31.5839    8.8984    7.6200 N   0  0  0  0  0  0  0  0  0  0  0  0
   31.1887   10.2241    7.8830 C   0  0  0  0  0  0  0  0  0  0  0  0
  1  2  1  0
  2  3  2  0
  2  4  2  0
  2  5  1  0
  5  6  2  0
  6  7  1  0
  7  8  2  0
  8  9  1  0
  9 10  2  0
 10 11  1  0
 11 12  1  0
 12 13  1  0
 13 14  2  0
 14 15  1  0
 15 16  2  0
 10  5  1  0
 16 12  1  0
A    1
 N1 
A    2
 S1 
A    3
 O1 
A    4
 O2 
A    5
 C1 
A    6
 C2 
A    7
 C3 
A    8
 C4 
A    9
 C5 
A   10
 C6 
A   11
 C7 
A   12
 N2 
A   13
 C8 
A   14
 C9 
A   15
 N3 
A   16
 C10
M  END
>  <ref_pdb>  (468) 
Ax0310a

>  <ref_mols>  (468) 
Ax0446a,Ax1080a,Ax0812a,Ax0719a,Ax1140a,Ax0528a,Ax0310a

>  <original SMILES>  (468) 
NS(=O)(=O)c1ccccc1Cn1ccnc1

>  <rationale>  (468) 
info info set:sulfonimide_whole;hbond:S87+G127+E85; 

>  <experiment>  (468) 
sulfonimide_whole

>  <cluster_label>  (468) 
3

>  <cluster_rank>  (468) 
125

>  <N_interactions>  (468) 
3

>  <∆∆G>  (468) 
-6.588822

>  <comRMSD>  (468) 
0.68092

>  <ROCS_TanimotoCombo>  (468) 
0.348

>  <ROCS_ShapeTanimoto>  (468) 
0.187

>  <ROCS_ColorTanimoto>  (468) 
0.161

$$$$
EN300_28234088
     RDKit          3D

 16 17  0  0  0  0  0  0  0  0999 V2000
   30.3125    9.3610    8.6104 C   0  0  0  0  0  0  0  0  0  0  0  0
   31.1041    9.9684    7.5892 N   0  0  0  0  0  0  0  0  0  0  0  0
   31.4419   11.3766    7.5623 C   0  0  0  0  0  0  0  0  0  0  0  0
   32.6691   11.3914    6.7197 C   0  0  0  0  0  0  0  0  0  0  0  0
   33.4227   12.3997    6.3394 C   0  0  0  0  0  0  0  0  0  0  0  0
   33.0983   13.6784    6.8120 N   0  0  0  0  0  0  0  0  0  0  0  0
   33.1486   13.8193    8.5207 S   0  0  0  0  0  6  0  0  0  0  0  0
   34.4233   15.0026    8.7995 C   0  0  0  0  0  0  0  0  0  0  0  0
   31.8800   14.3795    8.9303 O   0  0  0  0  0  0  0  0  0  0  0  0
   33.6611   12.6626    9.1066 O   0  0  0  0  0  0  0  0  0  0  0  0
   34.5174   12.1807    5.4966 C   0  0  0  0  0  0  0  0  0  0  0  0
   34.8227   10.8761    5.0598 C   0  0  0  0  0  0  0  0  0  0  0  0
   34.0409    9.8080    5.4887 C   0  0  0  0  0  0  0  0  0  0  0  0
   32.9875   10.1190    6.3244 C   0  0  0  0  0  0  0  0  0  0  0  0
   32.0449    9.2391    6.9699 C   0  0  0  0  0  0  0  0  0  0  0  0
   32.1702    8.0778    6.9949 O   0  0  0  0  0  0  0  0  0  0  0  0
  1  2  1  0
  2  3  1  0
  3  4  1  0
  4  5  2  0
  5  6  1  0
  6  7  1  0
  7  8  1  0
  7  9  2  0
  7 10  2  0
  5 11  1  0
 11 12  2  0
 12 13  1  0
 13 14  2  0
 14 15  1  0
 15 16  2  0
 15  2  1  0
 14  4  1  0
A    1
 C1 
A    2
 N1 
A    3
 C2 
A    4
 C3 
A    5
 C4 
A    6
 N2 
A    7
 S1 
A    8
 C5 
A    9
 O1 
A   10
 O2 
A   11
 C6 
A   12
 C7 
A   13
 C8 
A   14
 C9 
A   15
 C10
A   16
 O3 
M  END
>  <ref_pdb>  (469) 
Ax0310a

>  <ref_mols>  (469) 
Ax0446a,Ax1080a,Ax0812a,Ax0719a,Ax1140a,Ax0528a,Ax0310a

>  <original SMILES>  (469) 
CN1Cc2c(NS(C)(=O)=O)cccc2C1=O

>  <rationale>  (469) 
info info set:sulfonimide_whole;hbond:S87+G127; 

>  <experiment>  (469) 
sulfonimide_whole

>  <cluster_label>  (469) 
3

>  <cluster_rank>  (469) 
126

>  <N_interactions>  (469) 
2

>  <∆∆G>  (469) 
-7.667505

>  <comRMSD>  (469) 
0.388422

>  <ROCS_TanimotoCombo>  (469) 
0.369

>  <ROCS_ShapeTanimoto>  (469) 
0.213

>  <ROCS_ColorTanimoto>  (469) 
0.156

$$$$
EN300_1275599
     RDKit          3D

 14 15  0  0  0  0  0  0  0  0999 V2000
   29.0085   13.1317    8.8636 N   0  0  0  0  0  0  0  0  0  0  0  0
   30.4003   13.3516    7.9687 S   0  0  0  0  0  6  0  0  0  0  0  0
   31.3114   14.1152    8.8037 O   0  0  0  0  0  0  0  0  0  0  0  0
   29.9391   13.7745    6.6749 O   0  0  0  0  0  0  0  0  0  0  0  0
   31.1239   11.7755    7.6494 C   0  0  0  0  0  0  0  0  0  0  0  0
   30.7435   10.4970    8.1667 C   0  0  0  0  0  0  0  0  0  0  0  0
   31.5218    9.5400    7.6817 N   0  0  0  0  0  0  0  0  0  0  0  0
   32.4285   10.1041    6.8447 C   0  0  0  0  0  0  0  0  0  0  0  0
   33.5417    9.3173    6.0432 C   0  0  0  0  0  0  0  0  0  0  0  0
   34.2565   10.3112    5.3234 C   0  0  0  0  0  0  0  0  0  0  0  0
   34.0429   11.6634    5.3092 C   0  0  0  0  0  0  0  0  0  0  0  0
   35.0912   12.6225    4.3347 Cl  0  0  0  0  0  0  0  0  0  0  0  0
   33.0395   12.2718    6.0331 C   0  0  0  0  0  0  0  0  0  0  0  0
   32.2201   11.4887    6.8098 C   0  0  0  0  0  0  0  0  0  0  0  0
  1  2  1  0
  2  3  2  0
  2  4  2  0
  2  5  1  0
  5  6  2  0
  6  7  1  0
  7  8  1  0
  8  9  2  0
  9 10  1  0
 10 11  2  0
 11 12  1  0
 11 13  1  0
 13 14  2  0
 14  5  1  0
 14  8  1  0
A    1
 N1 
A    2
 S1 
A    3
 O1 
A    4
 O2 
A    5
 C1 
A    6
 C2 
A    7
 N2 
A    8
 C3 
A    9
 C4 
A   10
 C5 
A   11
 C6 
A   12
CL1 
A   13
 C7 
A   14
 C8 
M  END
>  <ref_pdb>  (470) 
Ax0310a

>  <ref_mols>  (470) 
Ax0446a,Ax1080a,Ax0812a,Ax0719a,Ax1140a,Ax0528a,Ax0310a

>  <original SMILES>  (470) 
NS(=O)(=O)c1c[nH]c2ccc(Cl)cc12

>  <rationale>  (470) 
info info set:sulfonimide_whole;hbond:S87+S125; 

>  <experiment>  (470) 
sulfonimide_whole

>  <cluster_label>  (470) 
3

>  <cluster_rank>  (470) 
127

>  <N_interactions>  (470) 
2

>  <∆∆G>  (470) 
-5.597615

>  <comRMSD>  (470) 
0.559998

>  <ROCS_TanimotoCombo>  (470) 
0.358

>  <ROCS_ShapeTanimoto>  (470) 
0.193

>  <ROCS_ColorTanimoto>  (470) 
0.165

$$$$
EN300_378532
     RDKit          3D

 14 15  0  0  0  0  0  0  0  0999 V2000
   30.6646   12.7033    8.6718 N   0  0  0  0  0  0  0  0  0  0  0  0
   32.0720   13.6018    8.5850 S   0  0  0  0  0  6  0  0  0  0  0  0
   31.6113   14.8746    9.0748 O   0  0  0  0  0  0  0  0  0  0  0  0
   33.2338   12.9718    9.1528 O   0  0  0  0  0  0  0  0  0  0  0  0
   32.3023   13.4150    6.8239 C   0  0  0  0  0  0  0  0  0  0  0  0
   32.7983   12.0745    6.4889 C   0  0  0  0  0  0  0  0  0  0  0  0
   33.9995   11.9239    5.6505 C   0  0  0  0  0  0  0  0  0  0  0  0
   34.4936   10.6712    5.3106 C   0  0  0  0  0  0  0  0  0  0  0  0
   33.8372    9.5330    5.7792 C   0  0  0  0  0  0  0  0  0  0  0  0
   32.7075    9.6370    6.5806 C   0  0  0  0  0  0  0  0  0  0  0  0
   32.0226    8.5982    7.0930 N   0  0  0  0  0  0  0  0  0  0  0  0
   30.7813    9.2240    7.9757 S   0  0  0  0  0  0  0  0  0  0  0  0
   31.0953   10.8169    7.7016 N   0  0  0  0  0  0  0  0  0  0  0  0
   32.1899   10.8769    6.9293 C   0  0  0  0  0  0  0  0  0  0  0  0
  1  2  1  0
  2  3  2  0
  2  4  2  0
  2  5  1  0
  5  6  1  0
  6  7  2  0
  7  8  1  0
  8  9  2  0
  9 10  1  0
 10 11  2  0
 11 12  1  0
 12 13  1  0
 13 14  2  0
 14  6  1  0
 14 10  1  0
A    1
 N1 
A    2
 S1 
A    3
 O1 
A    4
 O2 
A    5
 C1 
A    6
 C2 
A    7
 C3 
A    8
 C4 
A    9
 C5 
A   10
 C6 
A   11
 N2 
A   12
 S2 
A   13
 N3 
A   14
 C7 
M  END
>  <ref_pdb>  (471) 
Ax0310a

>  <ref_mols>  (471) 
Ax0446a,Ax1080a,Ax0812a,Ax0719a,Ax1140a,Ax0528a,Ax0310a

>  <original SMILES>  (471) 
NS(=O)(=O)Cc1cccc2nsnc12

>  <rationale>  (471) 
info info set:sulfonimide_whole;hbond:S87+S125+G127; 

>  <experiment>  (471) 
sulfonimide_whole

>  <cluster_label>  (471) 
3

>  <cluster_rank>  (471) 
128

>  <N_interactions>  (471) 
3

>  <∆∆G>  (471) 
-3.786056

>  <comRMSD>  (471) 
0.664621

>  <ROCS_TanimotoCombo>  (471) 
0.375

>  <ROCS_ShapeTanimoto>  (471) 
0.19

>  <ROCS_ColorTanimoto>  (471) 
0.185

$$$$
EN300_37104684
     RDKit          3D

 15 15  0  0  0  0  0  0  0  0999 V2000
   35.4012   15.1691    6.8939 C   0  0  0  0  0  0  0  0  0  0  0  0
   34.7999   13.8562    6.7810 C   0  0  2  0  0  0  0  0  0  0  0  0
   34.2054   13.7424    5.4355 C   0  0  0  0  0  0  0  0  0  0  0  0
   33.0499   12.9428    5.4445 O   0  0  0  0  0  0  0  0  0  0  0  0
   33.3736   11.5637    5.4513 C   0  0  0  0  0  0  0  0  0  0  0  0
   32.3715   10.9161    6.4366 C   0  0  0  0  0  0  0  0  0  0  0  0
   32.6212    9.4167    6.7303 C   0  0  0  0  0  0  0  0  0  0  0  0
   31.5686    8.8711    7.7529 C   0  0  0  0  0  0  0  0  0  0  0  0
   30.5644    9.8864    8.2072 C   0  0  0  0  0  0  0  0  0  0  0  0
   30.4764   11.1733    7.8383 C   0  0  0  0  0  0  0  0  0  0  0  0
   31.3598   11.6997    6.9661 C   0  0  0  0  0  0  0  0  0  0  0  0
   33.6877   13.7626    8.2031 S   0  0  0  0  0  6  0  0  0  0  0  0
   34.0920   15.0791    9.1785 N   0  0  0  0  0  0  0  0  0  0  0  0
   32.3145   13.9264    7.8229 O   0  0  0  0  0  0  0  0  0  0  0  0
   34.0366   12.7228    9.0776 O   0  0  0  0  0  0  0  0  0  0  0  0
  2  1  1  6
  2  3  1  0
  3  4  1  0
  4  5  1  0
  5  6  1  0
  6  7  2  0
  7  8  1  0
  8  9  2  0
  9 10  1  0
 10 11  2  0
  2 12  1  0
 12 13  1  0
 12 14  2  0
 12 15  2  0
 11  6  1  0
A    1
 C1 
A    2
 C2 
A    3
 C3 
A    4
 O1 
A    5
 C4 
A    6
 C5 
A    7
 C6 
A    8
 C7 
A    9
 C8 
A   10
 C9 
A   11
 C10
A   12
 S1 
A   13
 N1 
A   14
 O2 
A   15
 O3 
M  END
>  <ref_pdb>  (472) 
Ax0310a

>  <ref_mols>  (472) 
Ax0446a,Ax1080a,Ax0812a,Ax0719a,Ax1140a,Ax0528a,Ax0310a

>  <original SMILES>  (472) 
C[C@H](COCc1ccccc1)S(N)(=O)=O

>  <rationale>  (472) 
info info set:sulfonimide_whole;hbond:S87+G127+E85; hydroph_interaction:P107+E85; 

>  <experiment>  (472) 
sulfonimide_whole

>  <cluster_label>  (472) 
3

>  <cluster_rank>  (472) 
129

>  <N_interactions>  (472) 
5

>  <∆∆G>  (472) 
-5.983429

>  <comRMSD>  (472) 
0.833775

>  <ROCS_TanimotoCombo>  (472) 
0.361

>  <ROCS_ShapeTanimoto>  (472) 
0.182

>  <ROCS_ColorTanimoto>  (472) 
0.179

$$$$
Z56813601
     RDKit          3D

 26 30  0  0  0  0  0  0  0  0999 V2000
   30.2528    9.0064    9.4815 C   0  0  0  0  0  0  0  0  0  0  0  0
   30.1544    8.6870    8.0691 C   0  0  0  0  0  0  0  0  0  0  0  0
   31.1375    9.5771    7.3898 C   0  0  0  0  0  0  0  0  0  0  0  0
   30.7521   10.8603    7.4858 N   0  0  0  0  0  0  0  0  0  0  0  0
   31.5807   11.8277    6.9215 C   0  0  0  0  0  0  0  0  0  0  0  0
   31.2764   13.1622    6.9356 O   0  0  0  0  0  0  0  0  0  0  0  0
   30.2416   13.5384    7.6708 C   0  0  0  0  0  0  0  0  0  0  0  0
   28.8619   13.2662    7.1990 C   0  0  0  0  0  0  0  0  0  0  0  0
   27.6737   13.7243    8.0523 C   0  0  0  0  0  0  0  0  0  0  0  0
   28.0188   14.4423    9.3749 C   0  0  0  0  0  0  0  0  0  0  0  0
   29.5167   14.6260    9.6730 C   0  0  0  0  0  0  0  0  0  0  0  0
   29.8520   15.3499   10.9772 C   0  0  0  0  0  0  0  0  0  0  0  0
   31.3289   15.5906   11.2763 C   0  0  0  0  0  0  0  0  0  0  0  0
   32.2768   15.0317   10.2341 C   0  0  0  0  0  0  0  0  0  0  0  0
   31.9288   14.3852    9.1338 N   0  0  0  0  0  0  0  0  0  0  0  0
   30.5545   14.1880    8.8419 C   0  0  0  0  0  0  0  0  0  0  0  0
   32.7481   11.4738    6.3138 C   0  0  0  0  0  0  0  0  0  0  0  0
   33.7762   12.1738    5.7237 C   0  0  0  0  0  0  0  0  0  0  0  0
   34.7746   11.4131    5.2142 C   0  0  0  0  0  0  0  0  0  0  0  0
   34.4376    9.7615    5.4246 S   0  0  0  0  0  0  0  0  0  0  0  0
   32.9990   10.1274    6.2554 C   0  0  0  0  0  0  0  0  0  0  0  0
   32.2577    9.1620    6.7577 N   0  0  0  0  0  0  0  0  0  0  0  0
   35.9795   11.9884    4.5724 C   0  0  0  0  0  0  0  0  0  0  0  0
   36.4503   13.2218    5.3711 C   0  0  0  0  0  0  0  0  0  0  0  0
   35.3439   14.1506    5.8491 C   0  0  0  0  0  0  0  0  0  0  0  0
   33.8988   13.6569    5.6077 C   0  0  0  0  0  0  0  0  0  0  0  0
  1  2  1  0
  2  3  1  0
  3  4  2  0
  4  5  1  0
  5  6  1  0
  6  7  1  0
  7  8  2  0
  8  9  1  0
  9 10  2  0
 10 11  1  0
 11 12  2  0
 12 13  1  0
 13 14  2  0
 14 15  1  0
 15 16  2  0
  5 17  2  0
 17 18  1  0
 18 19  2  0
 19 20  1  0
 20 21  1  0
 21 22  2  0
 19 23  1  0
 23 24  1  0
 24 25  1  0
 25 26  1  0
 22  3  1  0
 16  7  1  0
 21 17  1  0
 16 11  1  0
 26 18  1  0
A    1
 C1 
A    2
 C2 
A    3
 C3 
A    4
 N1 
A    5
 C4 
A    6
 O1 
A    7
 C5 
A    8
 C6 
A    9
 C7 
A   10
 C8 
A   11
 C9 
A   12
 C10
A   13
 C11
A   14
 C12
A   15
 N2 
A   16
 C13
A   17
 C14
A   18
 C15
A   19
 C16
A   20
 S1 
A   21
 C17
A   22
 N3 
A   23
 C18
A   24
 C19
A   25
 C20
A   26
 C21
M  END
>  <ref_pdb>  (473) 
Ax0310a

>  <ref_mols>  (473) 
Ax0446a,Ax1080a,Ax0812a,Ax0719a,Ax1140a,Ax0528a,Ax0310a

>  <original SMILES>  (473) 
CCc1nc(Oc2cccc3cccnc23)c2c3c(sc2n1)CCCC3

>  <rationale>  (473) 
info info set:screening_whole;hbond:S87; hydroph_interaction:Y90+V124+T126+V84; pistack:H21; 

>  <experiment>  (473) 
screening_whole

>  <cluster_label>  (473) 
3

>  <cluster_rank>  (473) 
130

>  <N_interactions>  (473) 
6

>  <∆∆G>  (473) 
-6.936863

>  <comRMSD>  (473) 
0.69827

>  <ROCS_TanimotoCombo>  (473) 
0.459

>  <ROCS_ShapeTanimoto>  (473) 
0.26

>  <ROCS_ColorTanimoto>  (473) 
0.199

$$$$
EN300_7439787
     RDKit          3D

 13 13  0  0  0  0  0  0  0  0999 V2000
   34.4802   15.0595    8.9073 N   0  0  0  0  0  0  0  0  0  0  0  0
   33.5654   13.7464    8.4556 S   0  0  0  0  0  6  0  0  0  0  0  0
   32.1844   14.1161    8.6382 O   0  0  0  0  0  0  0  0  0  0  0  0
   34.1743   12.7489    9.2359 O   0  0  0  0  0  0  0  0  0  0  0  0
   34.0064   13.5193    6.7258 C   0  0  0  0  0  0  0  0  0  0  0  0
   33.0257   12.6611    5.9566 C   0  0  0  0  0  0  0  0  0  0  0  0
   32.3719   11.6052    6.6058 C   0  0  0  0  0  0  0  0  0  0  0  0
   31.3035   11.8346    7.4545 C   0  0  0  0  0  0  0  0  0  0  0  0
   30.6067   10.8639    8.1401 C   0  0  0  0  0  0  0  0  0  0  0  0
   31.1056    9.5019    7.8930 C   0  0  0  0  0  0  0  0  0  0  0  0
   30.3839    8.1768    8.6698 Cl  0  0  0  0  0  0  0  0  0  0  0  0
   32.1374    9.2290    7.0652 N   0  0  0  0  0  0  0  0  0  0  0  0
   32.7445   10.2706    6.4435 C   0  0  0  0  0  0  0  0  0  0  0  0
  1  2  1  0
  2  3  2  0
  2  4  2  0
  2  5  1  0
  5  6  1  0
  6  7  1  0
  7  8  2  0
  8  9  1  0
  9 10  2  0
 10 11  1  0
 10 12  1  0
 12 13  2  0
 13  7  1  0
A    1
 N1 
A    2
 S1 
A    3
 O1 
A    4
 O2 
A    5
 C1 
A    6
 C2 
A    7
 C3 
A    8
 C4 
A    9
 C5 
A   10
 C6 
A   11
CL1 
A   12
 N2 
A   13
 C7 
M  END
>  <ref_pdb>  (474) 
Ax0310a

>  <ref_mols>  (474) 
Ax0446a,Ax1080a,Ax0812a,Ax0719a,Ax1140a,Ax0528a,Ax0310a

>  <original SMILES>  (474) 
NS(=O)(=O)CCc1ccc(Cl)nc1

>  <rationale>  (474) 
info info set:sulfonimide_whole;hbond:S87+G127+E85; 

>  <experiment>  (474) 
sulfonimide_whole

>  <cluster_label>  (474) 
3

>  <cluster_rank>  (474) 
131

>  <N_interactions>  (474) 
3

>  <∆∆G>  (474) 
-5.12522

>  <comRMSD>  (474) 
0.361327

>  <ROCS_TanimotoCombo>  (474) 
0.376

>  <ROCS_ShapeTanimoto>  (474) 
0.182

>  <ROCS_ColorTanimoto>  (474) 
0.193

$$$$
EN300_186849
     RDKit          3D

 17 18  0  0  0  0  0  0  0  0999 V2000
   30.3125    9.1147    9.5507 C   0  0  0  0  0  0  0  0  0  0  0  0
   29.7599    9.1395    8.2745 C   0  0  0  0  0  0  0  0  0  0  0  0
   28.8859   10.3170    8.5974 C   0  0  0  0  0  0  0  0  0  0  0  0
   28.9671    7.9674    8.3438 C   0  0  0  0  0  0  0  0  0  0  0  0
   30.7907    9.5615    7.3966 O   0  0  0  0  0  0  0  0  0  0  0  0
   31.0797   10.8560    7.6899 C   0  0  0  0  0  0  0  0  0  0  0  0
   30.4404   11.6712    8.6456 O   0  0  0  0  0  0  0  0  0  0  0  0
   32.0627   11.3200    6.9548 N   0  0  0  0  0  0  0  0  0  0  0  0
   32.3264   12.7181    6.8008 C   0  0  0  0  0  0  0  0  0  0  0  0
   33.5291   13.0488    5.8850 C   0  0  0  0  0  0  0  0  0  0  0  0
   33.8340   11.5197    5.5973 C   0  0  0  0  0  0  0  0  0  0  0  0
   34.9246   10.9902    4.7311 C   0  0  0  0  0  0  0  0  0  0  0  0
   34.9773    9.6607    4.5510 C   0  0  0  0  0  0  0  0  0  0  0  0
   34.0545    8.8287    5.1584 N   0  0  0  0  0  0  0  0  0  0  0  0
   33.1042    9.2306    6.1021 C   0  0  0  0  0  0  0  0  0  0  0  0
   32.4608    8.4078    6.7512 O   0  0  0  0  0  0  0  0  0  0  0  0
   32.9794   10.6386    6.2324 C   0  0  0  0  0  0  0  0  0  0  0  0
  1  2  1  0
  2  3  1  0
  2  4  1  0
  2  5  1  0
  5  6  1  0
  6  7  2  0
  6  8  1  0
  8  9  1  0
  9 10  2  0
 10 11  1  0
 11 12  1  0
 12 13  2  0
 13 14  1  0
 14 15  1  0
 15 16  2  0
 15 17  1  0
 17  8  1  0
 17 11  2  0
A    1
 C1 
A    2
 C2 
A    3
 C3 
A    4
 C4 
A    5
 O1 
A    6
 C5 
A    7
 O2 
A    8
 N1 
A    9
 C6 
A   10
 C7 
A   11
 C8 
A   12
 C9 
A   13
 C10
A   14
 N2 
A   15
 C11
A   16
 O3 
A   17
 C12
M  END
>  <ref_pdb>  (475) 
Ax0310a

>  <ref_mols>  (475) 
Ax0446a,Ax1080a,Ax0812a,Ax0719a,Ax1140a,Ax0528a,Ax0310a

>  <original SMILES>  (475) 
CC(C)(C)OC(=O)n1ccc2cc[nH]c(=O)c21

>  <rationale>  (475) 
info info set:bb_densepocket2;hbond:S105+G127; hydroph_interaction:D109; 

>  <experiment>  (475) 
bb_densepocket2

>  <cluster_label>  (475) 
3

>  <cluster_rank>  (475) 
132

>  <N_interactions>  (475) 
3

>  <∆∆G>  (475) 
-0.61785

>  <comRMSD>  (475) 
0.677063

>  <ROCS_TanimotoCombo>  (475) 
0.64

>  <ROCS_ShapeTanimoto>  (475) 
0.263

>  <ROCS_ColorTanimoto>  (475) 
0.377

$$$$
EN300_1709182
     RDKit          3D

 13 14  0  0  0  0  0  0  0  0999 V2000
   29.2605   13.1500    8.8007 N   0  0  0  0  0  0  0  0  0  0  0  0
   30.6550   13.3077    7.9068 S   0  0  0  0  0  6  0  0  0  0  0  0
   30.1205   13.7261    6.6387 O   0  0  0  0  0  0  0  0  0  0  0  0
   31.5722   14.0725    8.7334 O   0  0  0  0  0  0  0  0  0  0  0  0
   31.2603   11.6719    7.6355 C   0  0  0  0  0  0  0  0  0  0  0  0
   30.6694   10.5810    8.2270 N   0  0  0  0  0  0  0  0  0  0  0  0
   31.1326    9.3349    7.9094 C   0  0  0  0  0  0  0  0  0  0  0  0
   32.1362    9.0874    7.1175 N   0  0  0  0  0  0  0  0  0  0  0  0
   32.7576   10.1700    6.5774 C   0  0  0  0  0  0  0  0  0  0  0  0
   33.7880   10.1943    5.7829 N   0  0  0  0  0  0  0  0  0  0  0  0
   33.9653   11.5496    5.5460 C   0  0  0  0  0  0  0  0  0  0  0  0
   33.1251   12.3748    6.1164 N   0  0  0  0  0  0  0  0  0  0  0  0
   32.3098   11.5335    6.8260 C   0  0  0  0  0  0  0  0  0  0  0  0
  1  2  1  0
  2  3  2  0
  2  4  2  0
  2  5  1  0
  5  6  1  0
  6  7  1  0
  7  8  2  0
  8  9  1  0
  9 10  2  0
 10 11  1  0
 11 12  2  0
 12 13  1  0
 13  5  2  0
 13  9  1  0
A    1
 N1 
A    2
 S1 
A    3
 O1 
A    4
 O2 
A    5
 C1 
A    6
 N2 
A    7
 C2 
A    8
 N3 
A    9
 C3 
A   10
 N4 
A   11
 C4 
A   12
 N5 
A   13
 C5 
M  END
>  <ref_pdb>  (476) 
Ax0310a

>  <ref_mols>  (476) 
Ax0446a,Ax1080a,Ax0812a,Ax0719a,Ax1140a,Ax0528a,Ax0310a

>  <original SMILES>  (476) 
NS(=O)(=O)c1[nH]cnc2ncnc1-2

>  <rationale>  (476) 
info info set:sulfonimide_whole;hbond:S87+S105+S125; 

>  <experiment>  (476) 
sulfonimide_whole

>  <cluster_label>  (476) 
3

>  <cluster_rank>  (476) 
133

>  <N_interactions>  (476) 
3

>  <∆∆G>  (476) 
-2.189032

>  <comRMSD>  (476) 
0.449797

>  <ROCS_TanimotoCombo>  (476) 
0.373

>  <ROCS_ShapeTanimoto>  (476) 
0.202

>  <ROCS_ColorTanimoto>  (476) 
0.171

$$$$
Z56996453
     RDKit          3D

 18 19  0  0  0  0  0  0  0  0999 V2000
   30.3088    8.9776    8.9987 C   0  0  0  0  0  0  0  0  0  0  0  0
   31.2268    9.5657    7.9909 C   0  0  0  0  0  0  0  0  0  0  0  0
   31.8087    8.7725    7.0689 C   0  0  0  0  0  0  0  0  0  0  0  0
   32.6580    9.3180    6.1167 C   0  0  0  0  0  0  0  0  0  0  0  0
   32.9505   10.6328    6.0890 C   0  0  0  0  0  0  0  0  0  0  0  0
   33.7982   11.1337    5.1119 C   0  0  0  0  0  0  0  0  0  0  0  0
   32.4082   11.4171    7.0248 C   0  0  0  0  0  0  0  0  0  0  0  0
   32.8086   13.0951    7.0902 S   0  0  0  0  0  6  0  0  0  0  0  0
   33.7853   13.3680    6.0615 O   0  0  0  0  0  0  0  0  0  0  0  0
   33.0823   13.2799    8.5038 O   0  0  0  0  0  0  0  0  0  0  0  0
   31.2680   13.3791    6.5699 N   0  0  0  0  0  0  0  0  0  0  0  0
   30.2923   13.7689    7.4886 C   0  0  0  0  0  0  0  0  0  0  0  0
   28.9207   14.1122    7.0312 C   0  0  0  0  0  0  0  0  0  0  0  0
   27.9857   14.5169    7.9193 C   0  0  0  0  0  0  0  0  0  0  0  0
   28.3798   14.6036    9.3649 C   0  0  0  0  0  0  0  0  0  0  0  0
   29.8253   14.2215    9.6960 C   0  0  0  0  0  0  0  0  0  0  0  0
   30.7396   13.8208    8.7726 N   0  0  0  0  0  0  0  0  0  0  0  0
   31.5235   10.9151    7.9686 C   0  0  0  0  0  0  0  0  0  0  0  0
  1  2  1  0
  2  3  2  0
  3  4  1  0
  4  5  2  0
  5  6  1  0
  5  7  1  0
  7  8  1  0
  8  9  2  0
  8 10  2  0
  8 11  1  0
 11 12  1  0
 12 13  2  0
 13 14  1  0
 14 15  2  0
 15 16  1  0
 16 17  2  0
  7 18  2  0
 18  2  1  0
 17 12  1  0
A    1
 C1 
A    2
 C2 
A    3
 C3 
A    4
 C4 
A    5
 C5 
A    6
 C6 
A    7
 C7 
A    8
 S1 
A    9
 O1 
A   10
 O2 
A   11
 N1 
A   12
 C8 
A   13
 C9 
A   14
 C10
A   15
 C11
A   16
 C12
A   17
 N2 
A   18
 C13
M  END
>  <ref_pdb>  (477) 
Ax0310a

>  <ref_mols>  (477) 
Ax0446a,Ax1080a,Ax0812a,Ax0719a,Ax1140a,Ax0528a,Ax0310a

>  <original SMILES>  (477) 
Cc1ccc(C)c(S(=O)(=O)Nc2ccccn2)c1

>  <rationale>  (477) 
info info set:3d;hbond:S87+G127; hydroph_interaction:Y90+V124; 

>  <experiment>  (477) 
3d

>  <cluster_label>  (477) 
3

>  <cluster_rank>  (477) 
134

>  <N_interactions>  (477) 
4

>  <∆∆G>  (477) 
-8.032002

>  <comRMSD>  (477) 
0.950284

>  <ROCS_TanimotoCombo>  (477) 
0.327

>  <ROCS_ShapeTanimoto>  (477) 
0.205

>  <ROCS_ColorTanimoto>  (477) 
0.121

$$$$
EN300_743925
     RDKit          3D

 15 15  0  0  0  0  0  0  0  0999 V2000
   29.8102    8.1016    8.4927 C   0  0  0  0  0  0  0  0  0  0  0  0
   30.3718    9.4131    8.8812 C   0  0  0  0  0  0  0  0  0  0  0  0
   31.2758    9.8874    7.7898 C   0  0  0  0  0  0  0  0  0  0  0  0
   32.1506    8.9262    7.0217 C   0  0  0  0  0  0  0  0  0  0  0  0
   33.1882    9.2405    5.8521 C   0  0  0  0  0  0  0  0  0  0  0  0
   33.0975   10.7990    5.6652 C   0  0  0  0  0  0  0  0  0  0  0  0
   32.2371   11.8507    6.3930 C   0  0  0  0  0  0  0  0  0  0  0  0
   31.2963   11.3588    7.4972 C   0  0  0  0  0  0  0  0  0  0  0  0
   30.4661   12.1939    8.2389 N   0  0  0  0  0  0  0  0  0  0  0  0
   29.6513   13.1262    7.7058 C   0  0  0  0  0  0  0  0  0  0  0  0
   29.8206   13.6769    6.6284 O   0  0  0  0  0  0  0  0  0  0  0  0
   28.4719   13.4419    8.6044 C   0  0  0  0  0  0  0  0  0  0  0  0
   28.7822   14.5875    9.5129 C   0  0  0  0  0  0  0  0  0  0  0  0
   29.3932   15.5891    8.7666 O   0  0  0  0  0  0  0  0  0  0  0  0
   28.6641   15.7490    7.6053 C   0  0  0  0  0  0  0  0  0  0  0  0
  1  2  3  0
  2  3  1  0
  3  4  2  0
  4  5  1  0
  5  6  2  0
  6  7  1  0
  7  8  2  0
  8  9  1  0
  9 10  1  0
 10 11  2  0
 10 12  1  0
 12 13  1  0
 13 14  1  0
 14 15  1  0
  8  3  1  0
A    1
 C1 
A    2
 C2 
A    3
 C3 
A    4
 C4 
A    5
 C5 
A    6
 C6 
A    7
 C7 
A    8
 C8 
A    9
 N1 
A   10
 C9 
A   11
 O1 
A   12
 C10
A   13
 C11
A   14
 O2 
A   15
 C12
M  END
>  <ref_pdb>  (478) 
Ax0310a

>  <ref_mols>  (478) 
Ax0446a,Ax1080a,Ax0812a,Ax0719a,Ax1140a,Ax0528a,Ax0310a

>  <original SMILES>  (478) 
C#Cc1ccccc1NC(=O)CCOC

>  <rationale>  (478) 
info info set:bb_densepocket2;hbond:S87+S125; hydroph_interaction:P107+V124; 

>  <experiment>  (478) 
bb_densepocket2

>  <cluster_label>  (478) 
3

>  <cluster_rank>  (478) 
135

>  <N_interactions>  (478) 
4

>  <∆∆G>  (478) 
-6.53101

>  <comRMSD>  (478) 
0.7916

>  <ROCS_TanimotoCombo>  (478) 
0.637

>  <ROCS_ShapeTanimoto>  (478) 
0.222

>  <ROCS_ColorTanimoto>  (478) 
0.414

$$$$
Z27753260
     RDKit          3D

 18 19  0  0  0  0  0  0  0  0999 V2000
   30.2049    9.4629    8.7040 C   0  0  0  0  0  0  0  0  0  0  0  0
   31.1927   10.0246    7.8081 C   0  0  0  0  0  0  0  0  0  0  0  0
   31.9468    9.0778    7.0652 C   0  0  0  0  0  0  0  0  0  0  0  0
   32.8739    9.6538    6.2564 C   0  0  0  0  0  0  0  0  0  0  0  0
   33.0777   11.1135    6.1609 C   0  0  0  0  0  0  0  0  0  0  0  0
   34.3103   11.7947    5.1190 S   0  0  0  0  0  6  0  0  0  0  0  0
   33.3783   12.2537    3.6889 C   0  0  0  0  0  0  0  0  0  0  0  0
   35.2243   10.7277    4.7792 O   0  0  0  0  0  0  0  0  0  0  0  0
   34.7626   13.0065    5.7631 O   0  0  0  0  0  0  0  0  0  0  0  0
   32.3189   11.9592    6.8870 C   0  0  0  0  0  0  0  0  0  0  0  0
   31.3587   11.4654    7.7287 C   0  0  0  0  0  0  0  0  0  0  0  0
   30.6317   12.5815    8.4615 C   0  0  0  0  0  0  0  0  0  0  0  0
   31.2895   13.3047    9.1844 O   0  0  0  0  0  0  0  0  0  0  0  0
   29.3361   12.8831    8.2831 N   0  0  0  0  0  0  0  0  0  0  0  0
   28.8691   13.0319    6.9219 C   0  0  0  0  0  0  0  0  0  0  0  0
   28.3276   14.4405    6.8177 C   0  0  0  0  0  0  0  0  0  0  0  0
   28.1986   14.9753    8.2357 C   0  0  0  0  0  0  0  0  0  0  0  0
   28.7438   13.8867    9.1423 C   0  0  0  0  0  0  0  0  0  0  0  0
  1  2  1  0
  2  3  2  0
  3  4  1  0
  4  5  2  0
  5  6  1  0
  6  7  1  0
  6  8  2  0
  6  9  2  0
  5 10  1  0
 10 11  2  0
 11 12  1  0
 12 13  2  0
 12 14  1  0
 14 15  1  0
 15 16  1  0
 16 17  1  0
 17 18  1  0
 11  2  1  0
 18 14  1  0
A    1
 C1 
A    2
 C2 
A    3
 C3 
A    4
 C4 
A    5
 C5 
A    6
 S1 
A    7
 C6 
A    8
 O1 
A    9
 O2 
A   10
 C7 
A   11
 C8 
A   12
 C9 
A   13
 O3 
A   14
 N1 
A   15
 C10
A   16
 C11
A   17
 C12
A   18
 C13
M  END
>  <ref_pdb>  (479) 
Ax0310a

>  <ref_mols>  (479) 
Ax0446a,Ax1080a,Ax0812a,Ax0719a,Ax1140a,Ax0528a,Ax0310a

>  <original SMILES>  (479) 
Cc1ccc(S(C)(=O)=O)cc1C(=O)N1CCCC1

>  <rationale>  (479) 
info info set:3d;hbond:G127; hydroph_interaction:Y89; 

>  <experiment>  (479) 
3d

>  <cluster_label>  (479) 
3

>  <cluster_rank>  (479) 
136

>  <N_interactions>  (479) 
2

>  <∆∆G>  (479) 
-8.914821

>  <comRMSD>  (479) 
0.74957

>  <ROCS_TanimotoCombo>  (479) 
0.338

>  <ROCS_ShapeTanimoto>  (479) 
0.225

>  <ROCS_ColorTanimoto>  (479) 
0.113

$$$$
EN300_18139596
     RDKit          3D

 25 28  0  0  0  0  0  0  0  0999 V2000
   31.8318   15.7357   10.2517 C   0  0  0  0  0  0  0  0  0  0  0  0
   30.6574   16.3003    9.7529 O   0  0  0  0  0  0  0  0  0  0  0  0
   29.8591   15.3973    9.0181 C   0  0  0  0  0  0  0  0  0  0  0  0
   28.7687   16.0239    8.1918 C   0  0  0  0  0  0  0  0  0  0  0  0
   27.9126   15.0675    7.3924 C   0  0  0  0  0  0  0  0  0  0  0  0
   28.1625   13.6438    7.4440 C   0  0  0  0  0  0  0  0  0  0  0  0
   29.2844   13.2585    8.3155 C   0  0  0  0  0  0  0  0  0  0  0  0
   29.4969   11.9311    8.3310 N   0  0  0  0  0  0  0  0  0  0  0  0
   30.5373   11.3067    7.7965 C   0  0  0  0  0  0  0  0  0  0  0  0
   31.5896   11.8367    7.0828 N   0  0  0  0  0  0  0  0  0  0  0  0
   32.4499   10.8868    6.7008 C   0  0  0  0  0  0  0  0  0  0  0  0
   33.6364   11.2234    5.9623 C   0  0  0  0  0  0  0  0  0  0  0  0
   34.2782   12.5381    5.9054 C   0  0  0  0  0  0  0  0  0  0  0  0
   35.4327   12.7085    5.1662 C   0  0  0  0  0  0  0  0  0  0  0  0
   35.9472   11.6138    4.4923 C   0  0  0  0  0  0  0  0  0  0  0  0
   35.3985   10.3808    4.5052 N   0  0  0  0  0  0  0  0  0  0  0  0
   34.2674   10.2188    5.2345 C   0  0  0  0  0  0  0  0  0  0  0  0
   32.3236    9.6155    6.9546 N   0  0  0  0  0  0  0  0  0  0  0  0
   31.2809    9.2939    7.6354 C   0  0  0  0  0  0  0  0  0  0  0  0
   31.0876    7.9444    7.9355 C   0  0  0  0  0  0  0  0  0  0  0  0
   30.0215    7.5312    8.6283 C   0  0  0  0  0  0  0  0  0  0  0  0
   29.0337    8.5284    9.0872 C   0  0  0  0  0  0  0  0  0  0  0  0
   29.2350    9.7698    8.7992 C   0  0  0  0  0  0  0  0  0  0  0  0
   30.3533   10.1020    8.0823 C   0  0  0  0  0  0  0  0  0  0  0  0
   30.0816   14.0752    9.0570 C   0  0  0  0  0  0  0  0  0  0  0  0
  1  2  1  0
  2  3  1  0
  3  4  2  0
  4  5  1  0
  5  6  2  0
  6  7  1  0
  7  8  1  0
  8  9  1  0
  9 10  2  0
 10 11  1  0
 11 12  1  0
 12 13  2  0
 13 14  1  0
 14 15  2  0
 15 16  1  0
 16 17  2  0
 11 18  2  0
 18 19  1  0
 19 20  2  0
 20 21  1  0
 21 22  2  0
 22 23  1  0
 23 24  2  0
  7 25  2  0
 25  3  1  0
 24  9  1  0
 17 12  1  0
 24 19  1  0
A    1
 C1 
A    2
 O1 
A    3
 C2 
A    4
 C3 
A    5
 C4 
A    6
 C5 
A    7
 C6 
A    8
 N1 
A    9
 C7 
A   10
 N2 
A   11
 C8 
A   12
 C9 
A   13
 C10
A   14
 C11
A   15
 C12
A   16
 N3 
A   17
 C13
A   18
 N4 
A   19
 C14
A   20
 C15
A   21
 C16
A   22
 C17
A   23
 C18
A   24
 C19
A   25
 C20
M  END
>  <ref_pdb>  (480) 
Ax0310a

>  <ref_mols>  (480) 
Ax0446a,Ax1080a,Ax0812a,Ax0719a,Ax1140a,Ax0528a,Ax0310a

>  <original SMILES>  (480) 
COc1cccc(Nc2nc(-c3cccnc3)nc3ccccc23)c1

>  <rationale>  (480) 
info info set:bb_whole;hbond:S87+S105+G127; hydroph_interaction:Y89+Y90+V124+D109; pistack:H21; 

>  <experiment>  (480) 
bb_whole

>  <cluster_label>  (480) 
3

>  <cluster_rank>  (480) 
137

>  <N_interactions>  (480) 
8

>  <∆∆G>  (480) 
-2.341968

>  <comRMSD>  (480) 
0.734534

>  <ROCS_TanimotoCombo>  (480) 
0.418

>  <ROCS_ShapeTanimoto>  (480) 
0.258

>  <ROCS_ColorTanimoto>  (480) 
0.16

$$$$
EN300_27755159
     RDKit          3D

 19 21  0  0  0  0  0  0  0  0999 V2000
   30.1467   10.5490    8.7658 O   0  0  0  0  0  0  0  0  0  0  0  0
   30.7892   11.3160    8.0768 C   0  0  0  0  0  0  0  0  0  0  0  0
   30.5681   12.6361    7.7947 N   0  0  0  0  0  0  0  0  0  0  0  0
   29.5306   13.4204    8.2508 C   0  0  0  0  0  0  0  0  0  0  0  0
   28.4186   13.7294    7.5014 C   0  0  0  0  0  0  0  0  0  0  0  0
   27.4349   14.5123    8.0584 C   0  0  0  0  0  0  0  0  0  0  0  0
   27.5441   14.9873    9.3464 C   0  0  0  0  0  0  0  0  0  0  0  0
   28.6571   14.6785   10.1020 C   0  0  0  0  0  0  0  0  0  0  0  0
   29.6471   13.9046    9.5452 C   0  0  0  0  0  0  0  0  0  0  0  0
   32.0219   10.8770    7.3439 C   0  0  2  0  0  0  0  0  0  0  0  0
   31.9621   11.0712    5.8434 C   0  0  0  0  0  0  0  0  0  0  0  0
   33.4406   10.6999    5.9195 C   0  0  2  0  0  0  0  0  0  0  0  0
   34.3266   10.7781    4.7349 C   0  0  0  0  0  0  0  0  0  0  0  0
   34.9832   11.9498    4.6898 F   0  0  0  0  0  0  0  0  0  0  0  0
   35.2232    9.7760    4.7524 F   0  0  0  0  0  0  0  0  0  0  0  0
   33.6251   10.6489    3.5917 F   0  0  0  0  0  0  0  0  0  0  0  0
   33.0914    9.2764    6.3011 C   0  0  0  0  0  0  0  0  0  0  0  0
   32.4089    9.4898    7.5232 O   0  0  0  0  0  0  0  0  0  0  0  0
   33.2011   11.8436    7.0063 C   0  0  0  0  0  0  0  0  0  0  0  0
  1  2  2  0
  2  3  1  0
  3  4  1  0
  4  5  2  0
  5  6  1  0
  6  7  2  0
  7  8  1  0
  8  9  2  0
 10  2  1  1
 10 11  1  0
 11 12  1  0
 12 13  1  6
 13 14  1  0
 13 15  1  0
 13 16  1  0
 12 17  1  0
 17 18  1  0
 12 19  1  0
  9  4  1  0
 18 10  1  0
 19 10  1  0
A    1
 O1 
A    2
 C1 
A    3
 N1 
A    4
 C2 
A    5
 C3 
A    6
 C4 
A    7
 C5 
A    8
 C6 
A    9
 C7 
A   10
 C8 
A   11
 C9 
A   12
 C10
A   13
 C11
A   14
 F1 
A   15
 F2 
A   16
 F3 
A   17
 C12
A   18
 O2 
A   19
 C13
M  END
>  <ref_pdb>  (481) 
Ax0310a

>  <ref_mols>  (481) 
Ax0446a,Ax1080a,Ax0812a,Ax0719a,Ax1140a,Ax0528a,Ax0310a

>  <original SMILES>  (481) 
O=C(Nc1ccccc1)[C@]12C[C@](C(F)(F)F)(CO1)C2

>  <rationale>  (481) 
info info set:bb_densepocket;hydroph_interaction:P107+Y89+Y90; 

>  <experiment>  (481) 
bb_densepocket

>  <cluster_label>  (481) 
3

>  <cluster_rank>  (481) 
138

>  <N_interactions>  (481) 
4

>  <∆∆G>  (481) 
-0.441083

>  <comRMSD>  (481) 
0.963476

>  <ROCS_TanimotoCombo>  (481) 
0.743

>  <ROCS_ShapeTanimoto>  (481) 
0.262

>  <ROCS_ColorTanimoto>  (481) 
0.481

$$$$
Z3766267336
     RDKit          3D

 14 14  0  0  0  0  0  0  0  0999 V2000
   29.6291    8.1020    8.4609 C   0  0  0  0  0  0  0  0  0  0  0  0
   30.8320    8.8259    8.8844 C   0  0  0  0  0  0  0  0  0  0  0  0
   31.4576    9.6266    7.7628 C   0  0  0  0  0  0  0  0  0  0  0  0
   32.3202    8.7971    6.9566 N   0  0  0  0  0  0  0  0  0  0  0  0
   32.9772    9.4156    5.8890 C   0  0  0  0  0  0  0  0  0  0  0  0
   32.8323   10.9010    5.5282 C   0  0  0  0  0  0  0  0  0  0  0  0
   33.4478   11.5089    4.5078 F   0  0  0  0  0  0  0  0  0  0  0  0
   31.9540   11.5232    6.4333 C   0  0  0  0  0  0  0  0  0  0  0  0
   31.2690   10.9896    7.5129 C   0  0  0  0  0  0  0  0  0  0  0  0
   30.4441   11.7794    8.3155 N   0  0  0  0  0  0  0  0  0  0  0  0
   29.5957   12.4857    7.5192 C   0  0  0  0  0  0  0  0  0  0  0  0
   29.7195   12.6828    6.3261 O   0  0  0  0  0  0  0  0  0  0  0  0
   28.3817   13.0830    8.2361 C   0  0  0  0  0  0  0  0  0  0  0  0
   28.3441   14.8523    8.3061 Cl  0  0  0  0  0  0  0  0  0  0  0  0
  1  2  1  0
  2  3  1  0
  3  4  2  0
  4  5  1  0
  5  6  2  0
  6  7  1  0
  6  8  1  0
  8  9  2  0
  9 10  1  0
 10 11  1  0
 11 12  2  0
 11 13  1  0
 13 14  1  0
  9  3  1  0
A    1
 C1 
A    2
 C2 
A    3
 C3 
A    4
 N1 
A    5
 C4 
A    6
 C5 
A    7
 F1 
A    8
 C6 
A    9
 C7 
A   10
 N2 
A   11
 C8 
A   12
 O1 
A   13
 C9 
A   14
CL1 
M  END
>  <ref_pdb>  (482) 
Ax0310a

>  <ref_mols>  (482) 
Ax0446a,Ax1080a,Ax0812a,Ax0719a,Ax1140a,Ax0528a,Ax0310a

>  <original SMILES>  (482) 
CCc1ncc(F)cc1NC(=O)CCl

>  <rationale>  (482) 
info info set:screening_pocket;hbond:S125+G127; hydroph_interaction:P107+V124; 

>  <experiment>  (482) 
screening_pocket

>  <cluster_label>  (482) 
3

>  <cluster_rank>  (482) 
139

>  <N_interactions>  (482) 
4

>  <∆∆G>  (482) 
-5.978132

>  <comRMSD>  (482) 
0.532474

>  <ROCS_TanimotoCombo>  (482) 
0.65

>  <ROCS_ShapeTanimoto>  (482) 
0.235

>  <ROCS_ColorTanimoto>  (482) 
0.415

$$$$
EN300_26682377
     RDKit          3D

 15 16  0  0  0  0  0  0  0  0999 V2000
   34.9489   14.8948    9.1932 N   0  0  0  0  0  0  0  0  0  0  0  0
   33.7027   13.9819    8.5686 S   0  0  0  0  0  6  0  0  0  0  0  0
   34.0528   12.6971    9.0123 O   0  0  0  0  0  0  0  0  0  0  0  0
   32.4489   14.5653    9.0001 O   0  0  0  0  0  0  0  0  0  0  0  0
   34.0153   13.9668    6.7937 C   0  0  0  0  0  0  0  0  0  0  0  0
   32.9545   13.2987    5.9600 C   0  0  0  0  0  0  0  0  0  0  0  0
   32.6403   12.0111    6.3034 C   0  0  0  0  0  0  0  0  0  0  0  0
   33.3111   10.9553    5.7058 C   0  0  0  0  0  0  0  0  0  0  0  0
   32.9880    9.6709    6.0793 C   0  0  0  0  0  0  0  0  0  0  0  0
   31.9837    9.4072    7.0614 C   0  0  0  0  0  0  0  0  0  0  0  0
   31.3181   10.4706    7.6412 C   0  0  0  0  0  0  0  0  0  0  0  0
   31.6546   11.7625    7.2570 C   0  0  0  0  0  0  0  0  0  0  0  0
   30.3456   10.0586    8.5963 O   0  0  0  0  0  0  0  0  0  0  0  0
   30.5569    8.6414    8.5388 C   0  0  0  0  0  0  0  0  0  0  0  0
   31.5606    8.2175    7.5401 O   0  0  0  0  0  0  0  0  0  0  0  0
  1  2  1  0
  2  3  2  0
  2  4  2  0
  2  5  1  0
  5  6  1  0
  6  7  1  0
  7  8  2  0
  8  9  1  0
  9 10  2  0
 10 11  1  0
 11 12  2  0
 11 13  1  0
 13 14  1  0
 14 15  1  0
 12  7  1  0
 15 10  1  0
A    1
 N1 
A    2
 S1 
A    3
 O1 
A    4
 O2 
A    5
 C1 
A    6
 C2 
A    7
 C3 
A    8
 C4 
A    9
 C5 
A   10
 C6 
A   11
 C7 
A   12
 C8 
A   13
 O3 
A   14
 C9 
A   15
 O4 
M  END
>  <ref_pdb>  (483) 
Ax0310a

>  <ref_mols>  (483) 
Ax0446a,Ax1080a,Ax0812a,Ax0719a,Ax1140a,Ax0528a,Ax0310a

>  <original SMILES>  (483) 
NS(=O)(=O)CCc1ccc2c(c1)OCO2

>  <rationale>  (483) 
info info set:sulfonimide_whole;hbond:S87+G127+E85; 

>  <experiment>  (483) 
sulfonimide_whole

>  <cluster_label>  (483) 
3

>  <cluster_rank>  (483) 
140

>  <N_interactions>  (483) 
3

>  <∆∆G>  (483) 
-5.631638

>  <comRMSD>  (483) 
0.487006

>  <ROCS_TanimotoCombo>  (483) 
0.364

>  <ROCS_ShapeTanimoto>  (483) 
0.207

>  <ROCS_ColorTanimoto>  (483) 
0.158

$$$$
Z1995553319
     RDKit          3D

 17 19  0  0  0  0  0  0  0  0999 V2000
   32.5648   13.6337    7.9679 O   0  0  0  0  0  0  0  0  0  0  0  0
   31.5756   13.0615    7.5257 C   0  0  0  0  0  0  0  0  0  0  0  0
   30.2419   13.6160    7.8838 C   0  0  0  0  0  0  0  0  0  0  0  0
   29.7758   13.8398    9.1568 C   0  0  0  0  0  0  0  0  0  0  0  0
   28.5233   14.3505    9.1520 C   0  0  0  0  0  0  0  0  0  0  0  0
   27.8018   14.6160    7.6275 S   0  0  0  0  0  0  0  0  0  0  0  0
   29.2589   13.9939    6.9489 C   0  0  0  0  0  0  0  0  0  0  0  0
   31.5485   11.8671    6.7274 N   0  0  0  0  0  0  0  0  0  0  0  0
   30.8399   10.9163    7.5946 C   0  0  0  0  0  0  0  0  0  0  0  0
   31.1182    9.4893    7.4633 C   0  0  0  0  0  0  0  0  0  0  0  0
   31.7869    9.2432    6.4872 O   0  0  0  0  0  0  0  0  0  0  0  0
   32.9209   10.0675    6.6620 C   0  0  0  0  0  0  0  0  0  0  0  0
   32.8443   11.3623    6.2466 C   0  0  2  0  0  0  0  0  0  0  0  0
   33.8028   12.3489    6.4831 C   0  0  0  0  0  0  0  0  0  0  0  0
   35.0211   12.3070    5.5631 C   0  0  0  0  0  0  0  0  0  0  0  0
   34.7303   11.2652    4.7554 O   0  0  0  0  0  0  0  0  0  0  0  0
   33.2847   11.1376    4.7885 C   0  0  0  0  0  0  0  0  0  0  0  0
  1  2  2  0
  2  3  1  0
  3  4  1  0
  4  5  2  0
  5  6  1  0
  6  7  1  0
  2  8  1  0
  8  9  1  0
  9 10  1  0
 10 11  1  0
 11 12  1  0
 13 12  1  1
 13 14  1  0
 14 15  1  0
 15 16  1  0
 16 17  1  0
  7  3  2  0
 13  8  1  0
 17 13  1  0
A    1
 O1 
A    2
 C1 
A    3
 C2 
A    4
 C3 
A    5
 C4 
A    6
 S1 
A    7
 C5 
A    8
 N1 
A    9
 C6 
A   10
 C7 
A   11
 O2 
A   12
 C8 
A   13
 C9 
A   14
 C10
A   15
 C11
A   16
 O3 
A   17
 C12
M  END
>  <ref_pdb>  (484) 
Ax0310a

>  <ref_mols>  (484) 
Ax0446a,Ax1080a,Ax0812a,Ax0719a,Ax1140a,Ax0528a,Ax0310a

>  <original SMILES>  (484) 
O=C(c1ccsc1)N1CCOC[C@]12CCOC2

>  <rationale>  (484) 
info info set:3d;hbond:S87+G127; 

>  <experiment>  (484) 
3d

>  <cluster_label>  (484) 
3

>  <cluster_rank>  (484) 
141

>  <N_interactions>  (484) 
2

>  <∆∆G>  (484) 
-2.510429

>  <comRMSD>  (484) 
0.947583

>  <ROCS_TanimotoCombo>  (484) 
0.364

>  <ROCS_ShapeTanimoto>  (484) 
0.221

>  <ROCS_ColorTanimoto>  (484) 
0.143

$$$$
Z1455719873
     RDKit          3D

 18 19  0  0  0  0  0  0  0  0999 V2000
   33.7049    9.7596    5.0463 C   0  0  0  0  0  0  0  0  0  0  0  0
   32.7879    9.8131    6.0859 C   0  0  0  0  0  0  0  0  0  0  0  0
   32.4741    8.6954    6.7537 N   0  0  0  0  0  0  0  0  0  0  0  0
   31.5762    9.0494    7.6862 O   0  0  0  0  0  0  0  0  0  0  0  0
   31.3541   10.3814    7.5628 C   0  0  0  0  0  0  0  0  0  0  0  0
   30.4542   10.8984    8.4215 C   0  0  0  0  0  0  0  0  0  0  0  0
   32.0947   10.9337    6.5731 C   0  0  0  0  0  0  0  0  0  0  0  0
   32.1252   12.2610    6.1722 C   0  0  0  0  0  0  0  0  0  0  0  0
   32.5828   13.1164    7.2706 N   0  0  0  0  0  0  0  0  0  0  0  0
   33.9362   13.6526    7.1412 C   0  0  0  0  0  0  0  0  0  0  0  0
   31.7897   13.6646    8.2765 C   0  0  0  0  0  0  0  0  0  0  0  0
   32.2921   14.3626    9.1691 O   0  0  0  0  0  0  0  0  0  0  0  0
   30.2923   13.4605    8.3463 C   0  0  2  0  0  0  0  0  0  0  0  0
   29.5208   13.4049    6.9993 C   0  0  0  0  0  0  0  0  0  0  0  0
   28.0835   13.9268    7.0330 C   0  0  0  0  0  0  0  0  0  0  0  0
   27.8613   14.9133    8.1640 C   0  0  0  0  0  0  0  0  0  0  0  0
   28.4180   14.3914    9.4543 C   0  0  0  0  0  0  0  0  0  0  0  0
   29.8375   14.4806    9.3046 N   0  0  0  0  0  0  0  0  0  0  0  0
  1  2  1  0
  2  3  2  0
  3  4  1  0
  4  5  1  0
  5  6  1  0
  5  7  2  0
  7  8  1  0
  8  9  1  0
  9 10  1  0
  9 11  1  0
 11 12  2  0
 13 11  1  6
 13 14  1  0
 14 15  1  0
 15 16  1  0
 16 17  1  0
 17 18  1  0
  7  2  1  0
 18 13  1  0
A    1
 C1 
A    2
 C2 
A    3
 N1 
A    4
 O1 
A    5
 C3 
A    6
 C4 
A    7
 C5 
A    8
 C6 
A    9
 N2 
A   10
 C7 
A   11
 C8 
A   12
 O2 
A   13
 C9 
A   14
 C10
A   15
 C11
A   16
 C12
A   17
 C13
A   18
 N3 
M  END
>  <ref_pdb>  (485) 
Ax0310a

>  <ref_mols>  (485) 
Ax0446a,Ax1080a,Ax0812a,Ax0719a,Ax1140a,Ax0528a,Ax0310a

>  <original SMILES>  (485) 
Cc1noc(C)c1CN(C)C(=O)[C@@H]1CCCCN1

>  <rationale>  (485) 
info info set:3d;hbond:S87+S125; hydroph_interaction:P107+Y89; 

>  <experiment>  (485) 
3d

>  <cluster_label>  (485) 
3

>  <cluster_rank>  (485) 
142

>  <N_interactions>  (485) 
4

>  <∆∆G>  (485) 
-6.904114

>  <comRMSD>  (485) 
0.990917

>  <ROCS_TanimotoCombo>  (485) 
0.346

>  <ROCS_ShapeTanimoto>  (485) 
0.196

>  <ROCS_ColorTanimoto>  (485) 
0.15

$$$$
EN300_267859
     RDKit          3D

 16 16  0  0  0  0  0  0  0  0999 V2000
   29.6320    8.3797    8.5255 C   0  0  0  0  0  0  0  0  0  0  0  0
   31.0240    8.5180    8.4436 N   0  0  0  0  0  0  0  0  0  0  0  0
   31.6164    9.4098    7.5509 C   0  0  0  0  0  0  0  0  0  0  0  0
   32.5704    8.9247    6.7703 N   0  0  0  0  0  0  0  0  0  0  0  0
   33.2607    9.6755    5.9150 C   0  0  0  0  0  0  0  0  0  0  0  0
   33.1617   11.1628    5.6188 C   0  0  0  0  0  0  0  0  0  0  0  0
   34.0281   11.9321    4.6357 C   0  0  0  0  0  0  0  0  0  0  0  0
   34.7925   11.0755    3.8914 F   0  0  0  0  0  0  0  0  0  0  0  0
   33.2577   12.6018    3.7250 F   0  0  0  0  0  0  0  0  0  0  0  0
   34.9658   12.9526    5.3406 C   0  0  0  0  0  0  0  0  0  0  0  0
   36.0896   12.3726    5.8141 F   0  0  0  0  0  0  0  0  0  0  0  0
   34.3475   13.5784    6.3741 F   0  0  0  0  0  0  0  0  0  0  0  0
   35.3913   13.9108    4.4947 F   0  0  0  0  0  0  0  0  0  0  0  0
   31.9949   11.6650    6.5499 C   0  0  0  0  0  0  0  0  0  0  0  0
   31.2328   10.7596    7.5084 C   0  0  0  0  0  0  0  0  0  0  0  0
   30.2103   11.3432    8.2791 N   0  0  0  0  0  0  0  0  0  0  0  0
  1  2  1  0
  2  3  1  0
  3  4  2  0
  4  5  1  0
  5  6  2  0
  6  7  1  0
  7  8  1  0
  7  9  1  0
  7 10  1  0
 10 11  1  0
 10 12  1  0
 10 13  1  0
  6 14  1  0
 14 15  2  0
 15 16  1  0
 15  3  1  0
A    1
 C1 
A    2
 N1 
A    3
 C2 
A    4
 N2 
A    5
 C3 
A    6
 C4 
A    7
 C5 
A    8
 F1 
A    9
 F2 
A   10
 C6 
A   11
 F3 
A   12
 F4 
A   13
 F5 
A   14
 C7 
A   15
 C8 
A   16
 N3 
M  END
>  <ref_pdb>  (486) 
Ax0310a

>  <ref_mols>  (486) 
Ax0446a,Ax1080a,Ax0812a,Ax0719a,Ax1140a,Ax0528a,Ax0310a

>  <original SMILES>  (486) 
CNc1ncc(C(F)(F)C(F)(F)F)cc1N

>  <rationale>  (486) 
info info set:bb_densepocket2;hbond:S125+T126; hydroph_interaction:P107; 

>  <experiment>  (486) 
bb_densepocket2

>  <cluster_label>  (486) 
3

>  <cluster_rank>  (486) 
143

>  <N_interactions>  (486) 
3

>  <∆∆G>  (486) 
-4.121802

>  <comRMSD>  (486) 
0.474129

>  <ROCS_TanimotoCombo>  (486) 
0.672

>  <ROCS_ShapeTanimoto>  (486) 
0.235

>  <ROCS_ColorTanimoto>  (486) 
0.437

$$$$
Z274526588
     RDKit          3D

 18 19  0  0  0  0  0  0  0  0999 V2000
   29.6345    8.3309    8.4127 C   0  0  0  0  0  0  0  0  0  0  0  0
   30.1262    9.2399    8.9817 O   0  0  0  0  0  0  0  0  0  0  0  0
   31.0082    9.8719    8.1845 C   0  0  0  0  0  0  0  0  0  0  0  0
   31.3426   11.2956    8.1841 C   0  0  0  0  0  0  0  0  0  0  0  0
   32.4084   11.7439    7.2550 C   0  0  0  0  0  0  0  0  0  0  0  0
   32.8396   13.3674    7.4635 S   0  0  0  0  0  6  0  0  0  0  0  0
   33.9226   13.2470    8.4920 O   0  0  0  0  0  0  0  0  0  0  0  0
   33.2480   13.9924    6.2328 O   0  0  0  0  0  0  0  0  0  0  0  0
   31.5518   14.0100    8.3452 N   0  0  0  0  0  0  0  0  0  0  0  0
   30.2612   13.5155    8.3815 C   0  0  0  0  0  0  0  0  0  0  0  0
   29.4968   13.0540    7.1500 C   0  0  0  0  0  0  0  0  0  0  0  0
   28.2965   13.9407    6.8683 C   0  0  0  0  0  0  0  0  0  0  0  0
   28.4830   14.9921    7.9386 C   0  0  0  0  0  0  0  0  0  0  0  0
   29.3700   14.6469    8.9388 C   0  0  0  0  0  0  0  0  0  0  0  0
   33.0169   10.9104    6.3561 C   0  0  0  0  0  0  0  0  0  0  0  0
   32.6512    9.6194    6.3825 C   0  0  0  0  0  0  0  0  0  0  0  0
   31.7091    9.1311    7.2761 C   0  0  0  0  0  0  0  0  0  0  0  0
   31.4899    7.9048    7.2646 F   0  0  0  0  0  0  0  0  0  0  0  0
  1  2  1  0
  2  3  1  0
  3  4  2  0
  4  5  1  0
  5  6  1  0
  6  7  2  0
  6  8  2  0
  6  9  1  0
  9 10  1  0
 10 11  1  0
 11 12  1  0
 12 13  1  0
 13 14  1  0
  5 15  2  0
 15 16  1  0
 16 17  2  0
 17 18  1  0
 17  3  1  0
 14 10  1  0
A    1
 C1 
A    2
 O1 
A    3
 C2 
A    4
 C3 
A    5
 C4 
A    6
 S1 
A    7
 O2 
A    8
 O3 
A    9
 N1 
A   10
 C5 
A   11
 C6 
A   12
 C7 
A   13
 C8 
A   14
 C9 
A   15
 C10
A   16
 C11
A   17
 C12
A   18
 F1 
M  END
>  <ref_pdb>  (487) 
Ax0310a

>  <ref_mols>  (487) 
Ax0446a,Ax1080a,Ax0812a,Ax0719a,Ax1140a,Ax0528a,Ax0310a

>  <original SMILES>  (487) 
COc1cc(S(=O)(=O)NC2CCCC2)ccc1F

>  <rationale>  (487) 
info info set:3d;halogenbond:S105; hbond:S87+S105+S125+G127; hydroph_interaction:Y89+Y90; 

>  <experiment>  (487) 
3d

>  <cluster_label>  (487) 
3

>  <cluster_rank>  (487) 
144

>  <N_interactions>  (487) 
7

>  <∆∆G>  (487) 
-2.229377

>  <comRMSD>  (487) 
0.798713

>  <ROCS_TanimotoCombo>  (487) 
0.323

>  <ROCS_ShapeTanimoto>  (487) 
0.216

>  <ROCS_ColorTanimoto>  (487) 
0.107

$$$$
EN300_122273
     RDKit          3D

 18 18  0  0  0  0  0  0  0  0999 V2000
   31.5460    8.6843    7.6909 C   0  0  0  0  0  0  0  0  0  0  0  0
   31.7274    9.2518    6.4165 O   0  0  0  0  0  0  0  0  0  0  0  0
   32.5791   10.2813    6.3016 C   0  0  0  0  0  0  0  0  0  0  0  0
   33.9757   10.0660    5.6788 C   0  0  0  0  0  0  0  0  0  0  0  0
   34.6750   11.4561    5.7301 C   0  0  0  0  0  0  0  0  0  0  0  0
   34.1257   12.6314    6.2527 C   0  0  0  0  0  0  0  0  0  0  0  0
   34.8636   13.8725    6.3056 C   0  0  0  0  0  0  0  0  0  0  0  0
   35.0266   14.6196    7.6387 C   0  0  0  0  0  0  0  0  0  0  0  0
   34.3640   14.0480    8.8143 N   0  0  0  0  0  0  0  0  0  0  0  0
   33.0589   14.3419    9.1593 C   0  0  0  0  0  0  0  0  0  0  0  0
   32.8402   15.3380   10.2363 C   0  0  0  0  0  0  0  0  0  0  0  0
   32.0960   13.8562    8.6225 O   0  0  0  0  0  0  0  0  0  0  0  0
   32.8552   12.6451    6.7505 C   0  0  0  0  0  0  0  0  0  0  0  0
   32.1057   11.5028    6.7668 C   0  0  0  0  0  0  0  0  0  0  0  0
   30.4732   11.6409    7.3998 S   0  0  0  0  0  6  0  0  0  0  0  0
   30.5151   12.6935    8.6775 N   0  0  0  0  0  0  0  0  0  0  0  0
   29.6834   12.3241    6.4040 O   0  0  0  0  0  0  0  0  0  0  0  0
   30.0881   10.3713    7.9562 O   0  0  0  0  0  0  0  0  0  0  0  0
  1  2  1  0
  2  3  1  0
  3  4  2  0
  4  5  1  0
  5  6  2  0
  6  7  1  0
  7  8  1  0
  8  9  1  0
  9 10  1  0
 10 11  1  0
 10 12  2  0
  6 13  1  0
 13 14  2  0
 14 15  1  0
 15 16  1  0
 15 17  2  0
 15 18  2  0
 14  3  1  0
A    1
 C1 
A    2
 O1 
A    3
 C2 
A    4
 C3 
A    5
 C4 
A    6
 C5 
A    7
 C6 
A    8
 C7 
A    9
 N1 
A   10
 C8 
A   11
 C9 
A   12
 O2 
A   13
 C10
A   14
 C11
A   15
 S1 
A   16
 N2 
A   17
 O3 
A   18
 O4 
M  END
>  <ref_pdb>  (488) 
Ax0310a

>  <ref_mols>  (488) 
Ax0446a,Ax1080a,Ax0812a,Ax0719a,Ax1140a,Ax0528a,Ax0310a

>  <original SMILES>  (488) 
COc1ccc(CCNC(C)=O)cc1S(N)(=O)=O

>  <rationale>  (488) 
info info set:sulfonimide_whole;hbond:S87+S125+G127; hydroph_interaction:T126+V84; 

>  <experiment>  (488) 
sulfonimide_whole

>  <cluster_label>  (488) 
3

>  <cluster_rank>  (488) 
145

>  <N_interactions>  (488) 
6

>  <∆∆G>  (488) 
-4.763154

>  <comRMSD>  (488) 
0.983301

>  <ROCS_TanimotoCombo>  (488) 
0.369

>  <ROCS_ShapeTanimoto>  (488) 
0.191

>  <ROCS_ColorTanimoto>  (488) 
0.178

$$$$
EN300_24567939
     RDKit          3D

 16 17  0  0  0  0  0  0  0  0999 V2000
   28.7061   14.1924    9.4656 C   0  0  0  0  0  0  0  0  0  0  0  0
   29.9319   13.7288    8.2647 S   0  0  0  0  0  6  0  0  0  0  0  0
   29.4387   14.0676    6.9468 O   0  0  0  0  0  0  0  0  0  0  0  0
   31.2230   14.1571    8.7622 O   0  0  0  0  0  0  0  0  0  0  0  0
   29.9541   12.0721    8.3856 N   0  0  0  0  0  0  0  0  0  0  0  0
   31.0005   11.3242    7.6756 C   0  0  0  0  0  0  0  0  0  0  0  0
   31.7886   12.1007    6.9116 N   0  0  0  0  0  0  0  0  0  0  0  0
   32.7757   11.4854    6.2329 C   0  0  0  0  0  0  0  0  0  0  0  0
   33.6051   12.2959    5.4468 C   0  0  0  0  0  0  0  0  0  0  0  0
   34.7142   11.6457    4.6755 C   0  0  0  0  0  0  0  0  0  0  0  0
   34.9637   10.1823    4.7114 C   0  0  0  0  0  0  0  0  0  0  0  0
   34.0482    9.3492    5.5687 C   0  0  0  0  0  0  0  0  0  0  0  0
   32.9497   10.0699    6.3271 C   0  0  0  0  0  0  0  0  0  0  0  0
   32.1544    9.3156    7.0939 N   0  0  0  0  0  0  0  0  0  0  0  0
   31.1911    9.9498    7.7647 C   0  0  0  0  0  0  0  0  0  0  0  0
   30.2535    8.8976    8.7273 Cl  0  0  0  0  0  0  0  0  0  0  0  0
  1  2  1  0
  2  3  2  0
  2  4  2  0
  2  5  1  0
  5  6  1  0
  6  7  2  0
  7  8  1  0
  8  9  2  0
  9 10  1  0
 10 11  2  0
 11 12  1  0
 12 13  2  0
 13 14  1  0
 14 15  2  0
 15 16  1  0
 15  6  1  0
 13  8  1  0
A    1
 C1 
A    2
 S1 
A    3
 O1 
A    4
 O2 
A    5
 N1 
A    6
 C2 
A    7
 N2 
A    8
 C3 
A    9
 C4 
A   10
 C5 
A   11
 C6 
A   12
 C7 
A   13
 C8 
A   14
 N3 
A   15
 C9 
A   16
CL1 
M  END
>  <ref_pdb>  (489) 
Ax0310a

>  <ref_mols>  (489) 
Ax0446a,Ax1080a,Ax0812a,Ax0719a,Ax1140a,Ax0528a,Ax0310a

>  <original SMILES>  (489) 
CS(=O)(=O)Nc1nc2ccccc2nc1Cl

>  <rationale>  (489) 
info info set:sulfonimide_whole;hbond:S87+S125+G127; 

>  <experiment>  (489) 
sulfonimide_whole

>  <cluster_label>  (489) 
3

>  <cluster_rank>  (489) 
146

>  <N_interactions>  (489) 
3

>  <∆∆G>  (489) 
-5.437697

>  <comRMSD>  (489) 
0.433361

>  <ROCS_TanimotoCombo>  (489) 
0.355

>  <ROCS_ShapeTanimoto>  (489) 
0.227

>  <ROCS_ColorTanimoto>  (489) 
0.128

$$$$
EN300_1622636
     RDKit          3D

 13 13  0  0  0  0  0  0  0  0999 V2000
   29.6260    8.0686    8.4512 C   0  0  0  0  0  0  0  0  0  0  0  0
   30.7675    8.8157    8.9346 C   0  0  0  0  0  0  0  0  0  0  0  0
   31.4281    9.5602    7.8137 C   0  0  0  0  0  0  0  0  0  0  0  0
   32.3929    8.8394    6.9102 N   0  0  0  0  0  0  0  0  0  0  0  0
   33.0146    9.4805    5.8995 C   0  0  0  0  0  0  0  0  0  0  0  0
   32.7743   10.9904    5.6088 C   0  0  0  0  0  0  0  0  0  0  0  0
   33.6990   11.3331    4.3505 C   0  0  0  0  0  0  0  0  0  0  0  0
   33.4472   12.5990    3.9529 F   0  0  0  0  0  0  0  0  0  0  0  0
   35.0058   11.2389    4.6624 F   0  0  0  0  0  0  0  0  0  0  0  0
   33.5092   10.5507    3.2732 F   0  0  0  0  0  0  0  0  0  0  0  0
   31.8960   11.6882    6.4113 C   0  0  0  0  0  0  0  0  0  0  0  0
   31.2132   11.1044    7.4743 C   0  0  0  0  0  0  0  0  0  0  0  0
   30.3552   11.9458    8.2016 N   0  0  0  0  0  0  0  0  0  0  0  0
  1  2  1  0
  2  3  1  0
  3  4  2  0
  4  5  1  0
  5  6  2  0
  6  7  1  0
  7  8  1  0
  7  9  1  0
  7 10  1  0
  6 11  1  0
 11 12  2  0
 12 13  1  0
 12  3  1  0
A    1
 C1 
A    2
 C2 
A    3
 C3 
A    4
 N1 
A    5
 C4 
A    6
 C5 
A    7
 C6 
A    8
 F1 
A    9
 F2 
A   10
 F3 
A   11
 C7 
A   12
 C8 
A   13
 N2 
M  END
>  <ref_pdb>  (490) 
Ax0310a

>  <ref_mols>  (490) 
Ax0446a,Ax1080a,Ax0812a,Ax0719a,Ax1140a,Ax0528a,Ax0310a

>  <original SMILES>  (490) 
CCc1ncc(C(F)(F)F)cc1N

>  <rationale>  (490) 
info info set:bb_densepocket2;hbond:S125; hydroph_interaction:P107+V124+D109; 

>  <experiment>  (490) 
bb_densepocket2

>  <cluster_label>  (490) 
3

>  <cluster_rank>  (490) 
147

>  <N_interactions>  (490) 
4

>  <∆∆G>  (490) 
-4.242331

>  <comRMSD>  (490) 
0.417684

>  <ROCS_TanimotoCombo>  (490) 
0.629

>  <ROCS_ShapeTanimoto>  (490) 
0.219

>  <ROCS_ColorTanimoto>  (490) 
0.41

$$$$
EN300_1275580
     RDKit          3D

 14 15  0  0  0  0  0  0  0  0999 V2000
   29.0101   13.0339    8.8176 N   0  0  0  0  0  0  0  0  0  0  0  0
   30.4243   13.3250    7.9881 S   0  0  0  0  0  6  0  0  0  0  0  0
   31.2738   14.1288    8.8450 O   0  0  0  0  0  0  0  0  0  0  0  0
   29.9059   13.8010    6.7310 O   0  0  0  0  0  0  0  0  0  0  0  0
   31.1691   11.7508    7.6255 C   0  0  0  0  0  0  0  0  0  0  0  0
   30.7307   10.4739    8.1816 C   0  0  0  0  0  0  0  0  0  0  0  0
   31.4522    9.4466    7.7330 N   0  0  0  0  0  0  0  0  0  0  0  0
   32.3901    9.9843    6.8715 C   0  0  0  0  0  0  0  0  0  0  0  0
   33.3780    9.3614    6.1332 C   0  0  0  0  0  0  0  0  0  0  0  0
   34.2868   10.1772    5.2804 C   0  0  0  0  0  0  0  0  0  0  0  0
   35.2517    9.5829    4.5640 F   0  0  0  0  0  0  0  0  0  0  0  0
   34.1259   11.5442    5.2374 C   0  0  0  0  0  0  0  0  0  0  0  0
   33.1164   12.1530    5.9828 C   0  0  0  0  0  0  0  0  0  0  0  0
   32.2563   11.4086    6.7877 C   0  0  0  0  0  0  0  0  0  0  0  0
  1  2  1  0
  2  3  2  0
  2  4  2  0
  2  5  1  0
  5  6  2  0
  6  7  1  0
  7  8  1  0
  8  9  2  0
  9 10  1  0
 10 11  1  0
 10 12  2  0
 12 13  1  0
 13 14  2  0
 14  5  1  0
 14  8  1  0
A    1
 N1 
A    2
 S1 
A    3
 O1 
A    4
 O2 
A    5
 C1 
A    6
 C2 
A    7
 N2 
A    8
 C3 
A    9
 C4 
A   10
 C5 
A   11
 F1 
A   12
 C6 
A   13
 C7 
A   14
 C8 
M  END
>  <ref_pdb>  (491) 
Ax0310a

>  <ref_mols>  (491) 
Ax0446a,Ax1080a,Ax0812a,Ax0719a,Ax1140a,Ax0528a,Ax0310a

>  <original SMILES>  (491) 
NS(=O)(=O)c1c[nH]c2cc(F)ccc12

>  <rationale>  (491) 
info info set:sulfonimide_whole;hbond:S87+S125; 

>  <experiment>  (491) 
sulfonimide_whole

>  <cluster_label>  (491) 
3

>  <cluster_rank>  (491) 
148

>  <N_interactions>  (491) 
2

>  <∆∆G>  (491) 
-5.523143

>  <comRMSD>  (491) 
0.576105

>  <ROCS_TanimotoCombo>  (491) 
0.357

>  <ROCS_ShapeTanimoto>  (491) 
0.192

>  <ROCS_ColorTanimoto>  (491) 
0.165

$$$$
Z1517927162
     RDKit          3D

 21 23  0  0  0  0  0  0  0  0999 V2000
   29.4269    8.6451    8.7321 C   0  0  0  0  0  0  0  0  0  0  0  0
   30.8444    8.1954    8.4244 C   0  0  0  0  0  0  0  0  0  0  0  0
   31.5483    9.1533    7.4885 C   0  0  0  0  0  0  0  0  0  0  0  0
   32.5229    8.6837    6.6773 O   0  0  0  0  0  0  0  0  0  0  0  0
   32.9730    9.7445    5.9222 C   0  0  0  0  0  0  0  0  0  0  0  0
   34.0624    9.6706    4.8572 C   0  0  0  0  0  0  0  0  0  0  0  0
   34.4327   10.7989    4.1555 C   0  0  0  0  0  0  0  0  0  0  0  0
   33.7167   12.1139    4.4914 C   0  0  0  0  0  0  0  0  0  0  0  0
   32.6141   12.2377    5.5588 C   0  0  0  0  0  0  0  0  0  0  0  0
   32.2965   10.9347    6.2478 C   0  0  0  0  0  0  0  0  0  0  0  0
   31.3617   10.4632    7.3011 C   0  0  0  0  0  0  0  0  0  0  0  0
   30.4414   11.1305    8.0130 C   0  0  0  0  0  0  0  0  0  0  0  0
   30.1977   10.6205    9.0399 O   0  0  0  0  0  0  0  0  0  0  0  0
   29.8229   12.2383    7.5117 N   0  0  0  0  0  0  0  0  0  0  0  0
   28.6264   12.7867    8.1699 C   0  0  0  0  0  0  0  0  0  0  0  0
   27.9109   11.7945    8.8048 C   0  0  0  0  0  0  0  0  0  0  0  0
   27.7063   13.3475    7.1081 C   0  0  0  0  0  0  0  0  0  0  0  0
   28.5169   14.2729    6.2810 C   0  0  0  0  0  0  0  0  0  0  0  0
   28.7884   15.4433    7.0442 O   0  0  0  0  0  0  0  0  0  0  0  0
   28.8211   15.3286    8.4771 C   0  0  0  0  0  0  0  0  0  0  0  0
   29.0483   13.9472    9.0811 C   0  0  0  0  0  0  0  0  0  0  0  0
  1  2  1  0
  2  3  1  0
  3  4  1  0
  4  5  1  0
  5  6  2  0
  6  7  1  0
  7  8  2  0
  8  9  1  0
  9 10  2  0
 10 11  1  0
 11 12  1  0
 12 13  2  0
 12 14  1  0
 14 15  1  0
 15 16  1  0
 15 17  1  0
 17 18  1  0
 18 19  1  0
 19 20  1  0
 20 21  1  0
 11  3  2  0
 21 15  1  0
 10  5  1  0
A    1
 C1 
A    2
 C2 
A    3
 C3 
A    4
 O1 
A    5
 C4 
A    6
 C5 
A    7
 C6 
A    8
 C7 
A    9
 C8 
A   10
 C9 
A   11
 C10
A   12
 C11
A   13
 O2 
A   14
 N1 
A   15
 C12
A   16
 C13
A   17
 C14
A   18
 C15
A   19
 O3 
A   20
 C16
A   21
 C17
M  END
>  <ref_pdb>  (492) 
Ax0310a

>  <ref_mols>  (492) 
Ax0446a,Ax1080a,Ax0812a,Ax0719a,Ax1140a,Ax0528a,Ax0310a

>  <original SMILES>  (492) 
CCc1oc2ccccc2c1C(=O)NC1(C)CCOCC1

>  <rationale>  (492) 
info info set:screening_pocket;hydroph_interaction:P107+V124; 

>  <experiment>  (492) 
screening_pocket

>  <cluster_label>  (492) 
3

>  <cluster_rank>  (492) 
149

>  <N_interactions>  (492) 
2

>  <∆∆G>  (492) 
-8.334939

>  <comRMSD>  (492) 
0.602491

>  <ROCS_TanimotoCombo>  (492) 
0.68

>  <ROCS_ShapeTanimoto>  (492) 
0.281

>  <ROCS_ColorTanimoto>  (492) 
0.399

$$$$
Z992367442
     RDKit          3D

 18 19  0  0  0  0  0  0  0  0999 V2000
   30.4729    8.0030    8.5802 C   0  0  0  0  0  0  0  0  0  0  0  0
   30.7184    9.3571    8.2464 N   0  0  0  0  0  0  0  0  0  0  0  0
   31.6551    9.6644    7.3334 C   0  0  0  0  0  0  0  0  0  0  0  0
   32.4280    8.7248    6.8011 N   0  0  0  0  0  0  0  0  0  0  0  0
   33.3474    9.1344    5.8814 C   0  0  0  0  0  0  0  0  0  0  0  0
   33.5833   10.5732    5.4056 C   0  0  0  0  0  0  0  0  0  0  0  0
   32.7204   11.4119    6.0459 C   0  0  0  0  0  0  0  0  0  0  0  0
   31.7995   10.9868    6.9646 C   0  0  0  0  0  0  0  0  0  0  0  0
   30.9618   12.0493    7.5495 C   0  0  0  0  0  0  0  0  0  0  0  0
   31.3143   12.6453    8.5333 O   0  0  0  0  0  0  0  0  0  0  0  0
   29.8065   12.2436    6.8778 N   0  0  0  0  0  0  0  0  0  0  0  0
   28.7720   12.4991    7.7824 C   0  0  0  0  0  0  0  0  0  0  0  0
   29.1197   13.8267    8.3319 C   0  0  0  0  0  0  0  0  0  0  0  0
   30.0308   14.0708    9.3516 C   0  0  0  0  0  0  0  0  0  0  0  0
   30.0591   15.3706    9.5147 C   0  0  0  0  0  0  0  0  0  0  0  0
   29.1634   15.8377    8.5934 C   0  0  0  0  0  0  0  0  0  0  0  0
   28.8952   17.0506    8.4000 C   0  0  0  0  0  0  0  0  0  0  0  0
   28.5580   14.9281    7.8397 O   0  0  0  0  0  0  0  0  0  0  0  0
  1  2  1  0
  2  3  1  0
  3  4  2  0
  4  5  1  0
  5  6  2  0
  6  7  1  0
  7  8  2  0
  8  9  1  0
  9 10  2  0
  9 11  1  0
 11 12  1  0
 12 13  1  0
 13 14  2  0
 14 15  1  0
 15 16  2  0
 16 17  1  0
 16 18  1  0
  8  3  1  0
 18 13  1  0
A    1
 C1 
A    2
 N1 
A    3
 C2 
A    4
 N2 
A    5
 C3 
A    6
 C4 
A    7
 C5 
A    8
 C6 
A    9
 C7 
A   10
 O1 
A   11
 N3 
A   12
 C8 
A   13
 C9 
A   14
 C10
A   15
 C11
A   16
 C12
A   17
 C13
A   18
 O2 
M  END
>  <ref_pdb>  (493) 
Ax0310a

>  <ref_mols>  (493) 
Ax0446a,Ax1080a,Ax0812a,Ax0719a,Ax1140a,Ax0528a,Ax0310a

>  <original SMILES>  (493) 
CNc1ncccc1C(=O)NCc1ccc(C)o1

>  <rationale>  (493) 
info info set:screening_pocket;hbond:S87+S125+G127; hydroph_interaction:P107+Y89; 

>  <experiment>  (493) 
screening_pocket

>  <cluster_label>  (493) 
3

>  <cluster_rank>  (493) 
150

>  <N_interactions>  (493) 
5

>  <∆∆G>  (493) 
-4.021153

>  <comRMSD>  (493) 
0.862842

>  <ROCS_TanimotoCombo>  (493) 
0.675

>  <ROCS_ShapeTanimoto>  (493) 
0.241

>  <ROCS_ColorTanimoto>  (493) 
0.433

$$$$
EN300_643530
     RDKit          3D

 12 13  0  0  0  0  0  0  0  0999 V2000
   30.1877    8.2461    9.7935 C   0  0  0  0  0  0  0  0  0  0  0  0
   30.0325    9.0302    8.5933 C   0  0  0  0  0  0  0  0  0  0  0  0
   28.6812    8.7274    8.3546 C   0  0  0  0  0  0  0  0  0  0  0  0
   29.9497   10.5454    8.6595 C   0  0  0  0  0  0  0  0  0  0  0  0
   30.2909   11.3658    7.5231 N   0  0  0  0  0  0  0  0  0  0  0  0
   31.4269   10.8361    6.9176 C   0  0  0  0  0  0  0  0  0  0  0  0
   32.3034   11.7322    6.1765 C   0  0  0  0  0  0  0  0  0  0  0  0
   33.4926   11.1204    5.5267 C   0  0  0  0  0  0  0  0  0  0  0  0
   33.6829    9.7695    5.6723 C   0  0  0  0  0  0  0  0  0  0  0  0
   32.8589    8.9656    6.3736 N   0  0  0  0  0  0  0  0  0  0  0  0
   31.7741    9.4739    6.9729 C   0  0  0  0  0  0  0  0  0  0  0  0
   30.9929    8.5504    7.6547 N   0  0  0  0  0  0  0  0  0  0  0  0
  1  2  1  0
  2  3  1  0
  2  4  1  0
  4  5  1  0
  5  6  1  0
  6  7  2  0
  7  8  1  0
  8  9  2  0
  9 10  1  0
 10 11  2  0
 11 12  1  0
 12  2  1  0
 11  6  1  0
A    1
 C1 
A    2
 C2 
A    3
 C3 
A    4
 C4 
A    5
 N1 
A    6
 C5 
A    7
 C6 
A    8
 C7 
A    9
 C8 
A   10
 N2 
A   11
 C9 
A   12
 N3 
M  END
>  <ref_pdb>  (494) 
Ax0310a

>  <ref_mols>  (494) 
Ax0446a,Ax1080a,Ax0812a,Ax0719a,Ax1140a,Ax0528a,Ax0310a

>  <original SMILES>  (494) 
CC1(C)CNc2cccnc2N1

>  <rationale>  (494) 
info info set:bb_densepocket2;hydroph_interaction:P107+V124; 

>  <experiment>  (494) 
bb_densepocket2

>  <cluster_label>  (494) 
3

>  <cluster_rank>  (494) 
151

>  <N_interactions>  (494) 
2

>  <∆∆G>  (494) 
-3.105442

>  <comRMSD>  (494) 
0.596838

>  <ROCS_TanimotoCombo>  (494) 
0.686

>  <ROCS_ShapeTanimoto>  (494) 
0.214

>  <ROCS_ColorTanimoto>  (494) 
0.472

$$$$
Z1612157035
     RDKit          3D

 16 17  0  0  0  0  0  0  0  0999 V2000
   29.9680    8.1267    8.5665 C   0  0  0  0  0  0  0  0  0  0  0  0
   31.2426    8.2603    8.1284 C   0  0  0  0  0  0  0  0  0  0  0  0
   31.5769    9.4210    7.5122 C   0  0  0  0  0  0  0  0  0  0  0  0
   32.5291    9.3755    6.5248 C   0  0  0  0  0  0  0  0  0  0  0  0
   32.7510   10.6174    6.0206 C   0  0  0  0  0  0  0  0  0  0  0  0
   31.9663   11.5698    6.6310 C   0  0  0  0  0  0  0  0  0  0  0  0
   32.0002   13.0208    6.3046 C   0  0  0  0  0  0  0  0  0  0  0  0
   32.9207   13.4727    7.3038 N   0  0  0  0  0  0  0  0  0  0  0  0
   34.2810   13.9127    7.0395 C   0  0  0  0  0  0  0  0  0  0  0  0
   34.9841   13.6196    6.0898 O   0  0  0  0  0  0  0  0  0  0  0  0
   34.6389   14.7467    8.0885 N   0  0  0  0  0  0  0  0  0  0  0  0
   33.7461   14.5316    9.1982 C   0  0  1  0  0  0  0  0  0  0  0  0
   33.1581   15.7541    9.8859 C   0  0  0  0  0  0  0  0  0  0  0  0
   32.5593   13.8763    8.5409 C   0  0  0  0  0  0  0  0  0  0  0  0
   31.4615   13.7966    9.0623 O   0  0  0  0  0  0  0  0  0  0  0  0
   30.8859   10.9339    7.8895 S   0  0  0  0  0  0  0  0  0  0  0  0
  1  2  1  0
  2  3  1  0
  3  4  2  0
  4  5  1  0
  5  6  2  0
  6  7  1  0
  7  8  1  0
  8  9  1  0
  9 10  2  0
  9 11  1  0
 11 12  1  0
 12 13  1  6
 12 14  1  0
 14 15  2  0
  6 16  1  0
 16  3  1  0
 14  8  1  0
A    1
 C1 
A    2
 C2 
A    3
 C3 
A    4
 C4 
A    5
 C5 
A    6
 C6 
A    7
 C7 
A    8
 N1 
A    9
 C8 
A   10
 O1 
A   11
 N2 
A   12
 C9 
A   13
 C10
A   14
 C11
A   15
 O2 
A   16
 S1 
M  END
>  <ref_pdb>  (495) 
Ax0310a

>  <ref_mols>  (495) 
Ax0446a,Ax1080a,Ax0812a,Ax0719a,Ax1140a,Ax0528a,Ax0310a

>  <original SMILES>  (495) 
CCc1ccc(CN2C(=O)N[C@@H](C)C2=O)s1

>  <rationale>  (495) 
info info set:3d;hbond:S87+E85; hydroph_interaction:P107+V124+V84; 

>  <experiment>  (495) 
3d

>  <cluster_label>  (495) 
3

>  <cluster_rank>  (495) 
152

>  <N_interactions>  (495) 
5

>  <∆∆G>  (495) 
-7.999635

>  <comRMSD>  (495) 
0.932194

>  <ROCS_TanimotoCombo>  (495) 
0.316

>  <ROCS_ShapeTanimoto>  (495) 
0.184

>  <ROCS_ColorTanimoto>  (495) 
0.132

$$$$
EN300_1275576
     RDKit          3D

 14 15  0  0  0  0  0  0  0  0999 V2000
   28.9800   13.0908    8.8677 N   0  0  0  0  0  0  0  0  0  0  0  0
   30.3999   13.3453    8.0351 S   0  0  0  0  0  6  0  0  0  0  0  0
   29.9054   13.8170    6.7706 O   0  0  0  0  0  0  0  0  0  0  0  0
   31.2836   14.1257    8.8833 O   0  0  0  0  0  0  0  0  0  0  0  0
   31.1187   11.7444    7.6872 C   0  0  0  0  0  0  0  0  0  0  0  0
   30.6156   10.4842    8.3523 C   0  0  0  0  0  0  0  0  0  0  0  0
   31.4461    9.4464    7.7830 N   0  0  0  0  0  0  0  0  0  0  0  0
   32.3366   10.0272    6.8776 C   0  0  0  0  0  0  0  0  0  0  0  0
   33.4051    9.3571    6.0075 C   0  0  0  0  0  0  0  0  0  0  0  0
   34.3067   10.1620    5.0570 C   0  0  0  0  0  0  0  0  0  0  0  0
   35.4938    9.4394    4.0509 Cl  0  0  0  0  0  0  0  0  0  0  0  0
   34.0533   11.5196    5.0938 C   0  0  0  0  0  0  0  0  0  0  0  0
   32.9832   12.1470    5.9693 C   0  0  0  0  0  0  0  0  0  0  0  0
   32.1616   11.4184    6.8147 C   0  0  0  0  0  0  0  0  0  0  0  0
  1  2  1  0
  2  3  2  0
  2  4  2  0
  2  5  1  0
  5  6  2  0
  6  7  1  0
  7  8  1  0
  8  9  2  0
  9 10  1  0
 10 11  1  0
 10 12  2  0
 12 13  1  0
 13 14  2  0
 14  5  1  0
 14  8  1  0
A    1
 N1 
A    2
 S1 
A    3
 O1 
A    4
 O2 
A    5
 C1 
A    6
 C2 
A    7
 N2 
A    8
 C3 
A    9
 C4 
A   10
 C5 
A   11
CL1 
A   12
 C6 
A   13
 C7 
A   14
 C8 
M  END
>  <ref_pdb>  (496) 
Ax0310a

>  <ref_mols>  (496) 
Ax0446a,Ax1080a,Ax0812a,Ax0719a,Ax1140a,Ax0528a,Ax0310a

>  <original SMILES>  (496) 
NS(=O)(=O)c1c[nH]c2cc(Cl)ccc12

>  <rationale>  (496) 
info info set:sulfonimide_whole;hbond:S87+S125; 

>  <experiment>  (496) 
sulfonimide_whole

>  <cluster_label>  (496) 
3

>  <cluster_rank>  (496) 
153

>  <N_interactions>  (496) 
2

>  <∆∆G>  (496) 
-5.716834

>  <comRMSD>  (496) 
0.646603

>  <ROCS_TanimotoCombo>  (496) 
0.356

>  <ROCS_ShapeTanimoto>  (496) 
0.191

>  <ROCS_ColorTanimoto>  (496) 
0.165

$$$$
EN300_679556
     RDKit          3D

 14 15  0  0  0  0  0  0  0  0999 V2000
   30.5890   13.5815    9.1710 N   0  0  0  0  0  0  0  0  0  0  0  0
   31.8706   13.0159    8.2345 S   0  0  0  0  0  6  0  0  0  0  0  0
   33.0404   12.7326    9.0214 O   0  0  0  0  0  0  0  0  0  0  0  0
   32.1055   13.8928    7.2149 O   0  0  0  0  0  0  0  0  0  0  0  0
   31.2380   11.6993    7.2837 C   0  0  2  0  0  0  0  0  0  0  0  0
   30.5525   10.6326    8.0636 C   0  0  0  0  0  0  0  0  0  0  0  0
   30.9839    9.1231    7.9355 C   0  0  0  0  0  0  0  0  0  0  0  0
   31.9344    8.8618    6.8826 O   0  0  0  0  0  0  0  0  0  0  0  0
   32.7534    9.9273    6.3694 C   0  0  0  0  0  0  0  0  0  0  0  0
   33.9991    9.4600    5.6042 C   0  0  0  0  0  0  0  0  0  0  0  0
   35.0131   10.4890    4.9780 C   0  0  0  0  0  0  0  0  0  0  0  0
   34.6668   11.9475    5.1891 C   0  0  0  0  0  0  0  0  0  0  0  0
   33.4194   12.3131    5.9508 C   0  0  0  0  0  0  0  0  0  0  0  0
   32.4443   11.2783    6.5494 C   0  0  0  0  0  0  0  0  0  0  0  0
  1  2  1  0
  2  3  2  0
  2  4  2  0
  5  2  1  1
  5  6  1  0
  6  7  1  0
  7  8  1  0
  8  9  1  0
  9 10  2  0
 10 11  1  0
 11 12  2  0
 12 13  1  0
 13 14  2  0
 14  5  1  0
 14  9  1  0
A    1
 N1 
A    2
 S1 
A    3
 O1 
A    4
 O2 
A    5
 C1 
A    6
 C2 
A    7
 C3 
A    8
 O3 
A    9
 C4 
A   10
 C5 
A   11
 C6 
A   12
 C7 
A   13
 C8 
A   14
 C9 
M  END
>  <ref_pdb>  (497) 
Ax0310a

>  <ref_mols>  (497) 
Ax0446a,Ax1080a,Ax0812a,Ax0719a,Ax1140a,Ax0528a,Ax0310a

>  <original SMILES>  (497) 
NS(=O)(=O)[C@@H]1CCOc2ccccc21

>  <rationale>  (497) 
info info set:sulfonimide_whole;hbond:S87+S125+G127; 

>  <experiment>  (497) 
sulfonimide_whole

>  <cluster_label>  (497) 
3

>  <cluster_rank>  (497) 
154

>  <N_interactions>  (497) 
3

>  <∆∆G>  (497) 
-3.7923

>  <comRMSD>  (497) 
0.830595

>  <ROCS_TanimotoCombo>  (497) 
0.356

>  <ROCS_ShapeTanimoto>  (497) 
0.205

>  <ROCS_ColorTanimoto>  (497) 
0.151

$$$$
EN300_364307
     RDKit          3D

 18 20  0  0  0  0  0  0  0  0999 V2000
   30.5489    8.8220    8.3097 N   0  0  0  0  0  0  0  0  0  0  0  0
   31.3452    9.5969    7.4410 C   0  0  0  0  0  0  0  0  0  0  0  0
   32.3583    8.9576    6.8311 N   0  0  0  0  0  0  0  0  0  0  0  0
   33.1476    9.6507    5.9805 C   0  0  0  0  0  0  0  0  0  0  0  0
   32.9240   11.1240    5.7040 C   0  0  0  0  0  0  0  0  0  0  0  0
   31.8700   11.7678    6.3499 C   0  0  0  0  0  0  0  0  0  0  0  0
   31.1149   10.9695    7.1955 C   0  0  0  0  0  0  0  0  0  0  0  0
   30.0829   12.1029    7.6543 C   0  0  0  0  0  0  0  0  0  0  0  0
   28.7394   12.2693    7.0237 C   0  0  0  0  0  0  0  0  0  0  0  0
   27.8316   13.3501    7.5279 C   0  0  0  0  0  0  0  0  0  0  0  0
   28.3104   14.2163    8.6801 C   0  0  0  0  0  0  0  0  0  0  0  0
   29.6977   13.9565    9.2432 C   0  0  0  0  0  0  0  0  0  0  0  0
   30.1670   14.6869   10.2530 F   0  0  0  0  0  0  0  0  0  0  0  0
   30.4521   12.9433    8.6704 C   0  0  0  0  0  0  0  0  0  0  0  0
   33.8413   11.8093    4.7494 C   0  0  0  0  0  0  0  0  0  0  0  0
   34.3325   10.8226    3.6927 C   0  0  0  0  0  0  0  0  0  0  0  0
   35.0115    9.6258    4.3437 C   0  0  0  0  0  0  0  0  0  0  0  0
   34.1883    8.9720    5.3569 N   0  0  0  0  0  0  0  0  0  0  0  0
  1  2  1  0
  2  3  2  0
  3  4  1  0
  4  5  2  0
  5  6  1  0
  6  7  2  0
  7  8  1  0
  8  9  2  0
  9 10  1  0
 10 11  2  0
 11 12  1  0
 12 13  1  0
 12 14  2  0
  5 15  1  0
 15 16  1  0
 16 17  1  0
 17 18  1  0
  7  2  1  0
 14  8  1  0
 18  4  1  0
A    1
 N1 
A    2
 C1 
A    3
 N2 
A    4
 C2 
A    5
 C3 
A    6
 C4 
A    7
 C5 
A    8
 C6 
A    9
 C7 
A   10
 C8 
A   11
 C9 
A   12
 C10
A   13
 F1 
A   14
 C11
A   15
 C12
A   16
 C13
A   17
 C14
A   18
 N3 
M  END
>  <ref_pdb>  (498) 
Ax0310a

>  <ref_mols>  (498) 
Ax0446a,Ax1080a,Ax0812a,Ax0719a,Ax1140a,Ax0528a,Ax0310a

>  <original SMILES>  (498) 
Nc1nc2c(cc1-c1cccc(F)c1)CCCN2

>  <rationale>  (498) 
info info set:bb_densepocket2;hbond:S105; hydroph_interaction:P107; 

>  <experiment>  (498) 
bb_densepocket2

>  <cluster_label>  (498) 
3

>  <cluster_rank>  (498) 
155

>  <N_interactions>  (498) 
4

>  <∆∆G>  (498) 
-4.151439

>  <comRMSD>  (498) 
0.883823

>  <ROCS_TanimotoCombo>  (498) 
0.624

>  <ROCS_ShapeTanimoto>  (498) 
0.276

>  <ROCS_ColorTanimoto>  (498) 
0.347

$$$$
EN300_1618555
     RDKit          3D

 14 15  0  0  0  0  0  0  0  0999 V2000
   29.0477   13.4295    9.0881 N   0  0  0  0  0  0  0  0  0  0  0  0
   30.4383   13.4458    8.1640 S   0  0  0  0  0  6  0  0  0  0  0  0
   31.4531   14.1919    8.8776 O   0  0  0  0  0  0  0  0  0  0  0  0
   29.9128   13.8362    6.8851 O   0  0  0  0  0  0  0  0  0  0  0  0
   30.9561   11.8021    7.9192 C   0  0  0  0  0  0  0  0  0  0  0  0
   30.3972   10.7380    8.5185 N   0  0  0  0  0  0  0  0  0  0  0  0
   31.1073    9.6950    8.0038 N   0  0  0  0  0  0  0  0  0  0  0  0
   32.0738   10.0795    7.1152 C   0  0  0  0  0  0  0  0  0  0  0  0
   32.9900    9.3567    6.3694 C   0  0  0  0  0  0  0  0  0  0  0  0
   33.8898   10.0058    5.5229 C   0  0  0  0  0  0  0  0  0  0  0  0
   35.0108    9.0920    4.5955 Cl  0  0  0  0  0  0  0  0  0  0  0  0
   33.8714   11.3803    5.4350 C   0  0  0  0  0  0  0  0  0  0  0  0
   32.9559   12.1248    6.1725 C   0  0  0  0  0  0  0  0  0  0  0  0
   32.0072   11.4542    7.0510 C   0  0  0  0  0  0  0  0  0  0  0  0
  1  2  1  0
  2  3  2  0
  2  4  2  0
  2  5  1  0
  5  6  2  0
  6  7  1  0
  7  8  1  0
  8  9  2  0
  9 10  1  0
 10 11  1  0
 10 12  2  0
 12 13  1  0
 13 14  2  0
 14  5  1  0
 14  8  1  0
A    1
 N1 
A    2
 S1 
A    3
 O1 
A    4
 O2 
A    5
 C1 
A    6
 N2 
A    7
 N3 
A    8
 C2 
A    9
 C3 
A   10
 C4 
A   11
CL1 
A   12
 C5 
A   13
 C6 
A   14
 C7 
M  END
>  <ref_pdb>  (499) 
Ax0310a

>  <ref_mols>  (499) 
Ax0446a,Ax1080a,Ax0812a,Ax0719a,Ax1140a,Ax0528a,Ax0310a

>  <original SMILES>  (499) 
NS(=O)(=O)c1n[nH]c2cc(Cl)ccc12

>  <rationale>  (499) 
info info set:sulfonimide_whole;hbond:S87+S125; 

>  <experiment>  (499) 
sulfonimide_whole

>  <cluster_label>  (499) 
3

>  <cluster_rank>  (499) 
156

>  <N_interactions>  (499) 
2

>  <∆∆G>  (499) 
-4.892641

>  <comRMSD>  (499) 
0.764909

>  <ROCS_TanimotoCombo>  (499) 
0.36

>  <ROCS_ShapeTanimoto>  (499) 
0.178

>  <ROCS_ColorTanimoto>  (499) 
0.182

$$$$
EN300_28262837
     RDKit          3D

 15 15  0  0  0  0  0  0  0  0999 V2000
   34.3453    8.9213    4.5895 C   0  0  0  0  0  0  0  0  0  0  0  0
   33.3805    9.5920    5.5955 C   0  0  0  0  0  0  0  0  0  0  0  0
   32.6252    9.0462    6.5688 N   0  0  0  0  0  0  0  0  0  0  0  0
   31.9717   10.1119    7.1888 N   0  0  0  0  0  0  0  0  0  0  0  0
   31.1097    9.9433    8.2658 C   0  0  0  0  0  0  0  0  0  0  0  0
   30.3609   10.8453    8.5852 O   0  0  0  0  0  0  0  0  0  0  0  0
   31.1947    8.8627    8.8275 O   0  0  0  0  0  0  0  0  0  0  0  0
   29.9153    8.3646    9.1019 C   0  0  0  0  0  0  0  0  0  0  0  0
   29.0982    8.7850    8.0763 C   0  0  0  0  0  0  0  0  0  0  0  0
   29.8811    6.9696    9.1482 C   0  0  0  0  0  0  0  0  0  0  0  0
   29.2882    8.6375   10.2477 C   0  0  0  0  0  0  0  0  0  0  0  0
   32.2790   11.3345    6.6279 C   0  0  0  0  0  0  0  0  0  0  0  0
   31.8607   12.6314    6.9322 C   0  0  0  0  0  0  0  0  0  0  0  0
   33.2436   11.0974    5.5090 C   0  0  0  0  0  0  0  0  0  0  0  0
   33.9959   12.1647    4.4383 Cl  0  0  0  0  0  0  0  0  0  0  0  0
  1  2  1  0
  2  3  2  0
  3  4  1  0
  4  5  1  0
  5  6  2  0
  5  7  1  0
  7  8  1  0
  8  9  1  0
  8 10  1  0
  8 11  1  0
  4 12  1  0
 12 13  1  0
 12 14  2  0
 14 15  1  0
 14  2  1  0
A    1
 C1 
A    2
 C2 
A    3
 N1 
A    4
 N2 
A    5
 C3 
A    6
 O1 
A    7
 O2 
A    8
 C4 
A    9
 C5 
A   10
 C6 
A   11
 C7 
A   12
 C8 
A   13
 C9 
A   14
 C10
A   15
CL1 
M  END
>  <ref_pdb>  (500) 
Ax0310a

>  <ref_mols>  (500) 
Ax0446a,Ax1080a,Ax0812a,Ax0719a,Ax1140a,Ax0528a,Ax0310a

>  <original SMILES>  (500) 
Cc1nn(C(=O)OC(C)(C)C)c(C)c1Cl

>  <rationale>  (500) 
info info set:bb_densepocket2;hydroph_interaction:V124+D109; 

>  <experiment>  (500) 
bb_densepocket2

>  <cluster_label>  (500) 
3

>  <cluster_rank>  (500) 
157

>  <N_interactions>  (500) 
3

>  <∆∆G>  (500) 
-3.448575

>  <comRMSD>  (500) 
0.530725

>  <ROCS_TanimotoCombo>  (500) 
0.638

>  <ROCS_ShapeTanimoto>  (500) 
0.225

>  <ROCS_ColorTanimoto>  (500) 
0.413

$$$$
Z6375138534
     RDKit          3D

 22 23  0  0  0  0  0  0  0  0999 V2000
   29.9309   14.9008   10.9744 C   0  0  0  0  0  0  0  0  0  0  0  0
   30.8511   14.8981    9.7842 C   0  0  0  0  0  0  0  0  0  0  0  0
   30.2786   14.2921    8.5792 O   0  0  0  0  0  0  0  0  0  0  0  0
   29.2436   14.9733    8.0456 C   0  0  0  0  0  0  0  0  0  0  0  0
   28.9541   16.1215    8.2869 O   0  0  0  0  0  0  0  0  0  0  0  0
   28.4366   14.1748    7.0682 C   0  0  2  0  0  0  0  0  0  0  0  0
   27.3015   13.9994    8.0030 C   0  0  0  0  0  0  0  0  0  0  0  0
   27.9146   13.1144    9.1067 C   0  0  0  0  0  0  0  0  0  0  0  0
   28.1963   11.7525    8.4682 C   0  0  0  0  0  0  0  0  0  0  0  0
   29.2138   11.8348    7.6236 N   0  0  0  0  0  0  0  0  0  0  0  0
   30.5389   11.9185    7.9727 C   0  0  0  0  0  0  0  0  0  0  0  0
   31.0742   12.8926    8.8955 O   0  0  0  0  0  0  0  0  0  0  0  0
   31.4646   11.0154    7.2602 C   0  0  0  0  0  0  0  0  0  0  0  0
   32.3264   11.9176    6.4436 C   0  0  0  0  0  0  0  0  0  0  0  0
   33.3826   11.3191    5.5625 C   0  0  0  0  0  0  0  0  0  0  0  0
   34.3748   12.3067    4.6184 Cl  0  0  0  0  0  0  0  0  0  0  0  0
   33.4270    9.8596    5.6273 C   0  0  0  0  0  0  0  0  0  0  0  0
   34.5564    8.9833    4.6741 Cl  0  0  0  0  0  0  0  0  0  0  0  0
   32.6047    9.0782    6.4168 N   0  0  0  0  0  0  0  0  0  0  0  0
   31.6251    9.6307    7.2342 C   0  0  0  0  0  0  0  0  0  0  0  0
   30.8218    8.7651    7.9985 N   0  0  0  0  0  0  0  0  0  0  0  0
   28.8794   12.7957    6.5841 C   0  0  0  0  0  0  0  0  0  0  0  0
  1  2  1  0
  2  3  1  0
  3  4  1  0
  4  5  2  0
  6  4  1  1
  6  7  1  0
  7  8  1  0
  8  9  1  0
  9 10  1  0
 10 11  1  0
 11 12  2  0
 11 13  1  0
 13 14  2  0
 14 15  1  0
 15 16  1  0
 15 17  2  0
 17 18  1  0
 17 19  1  0
 19 20  2  0
 20 21  1  0
 10 22  1  0
 22  6  1  0
 20 13  1  0
A    1
 C1 
A    2
 C2 
A    3
 O1 
A    4
 C3 
A    5
 O2 
A    6
 C4 
A    7
 C5 
A    8
 C6 
A    9
 C7 
A   10
 N1 
A   11
 C8 
A   12
 O3 
A   13
 C9 
A   14
 C10
A   15
 C11
A   16
CL1 
A   17
 C12
A   18
CL2 
A   19
 N2 
A   20
 C13
A   21
 N3 
A   22
 C14
M  END
>  <ref_pdb>  (501) 
Ax0310a

>  <ref_mols>  (501) 
Ax0446a,Ax1080a,Ax0812a,Ax0719a,Ax1140a,Ax0528a,Ax0310a

>  <original SMILES>  (501) 
CCOC(=O)[C@@H]1CCCN(C(=O)c2cc(Cl)c(Cl)nc2N)C1

>  <rationale>  (501) 
info info set:screening_pocket;hbond:S87+S105+G127+Y90; hydroph_interaction:Y90+T126; 

>  <experiment>  (501) 
screening_pocket

>  <cluster_label>  (501) 
3

>  <cluster_rank>  (501) 
158

>  <N_interactions>  (501) 
6

>  <∆∆G>  (501) 
-1.314983

>  <comRMSD>  (501) 
0.968686

>  <ROCS_TanimotoCombo>  (501) 
0.661

>  <ROCS_ShapeTanimoto>  (501) 
0.265

>  <ROCS_ColorTanimoto>  (501) 
0.397

$$$$
Z31204171
     RDKit          3D

 25 28  0  0  0  0  0  0  0  0999 V2000
   37.1603   13.3462    6.2635 C   0  0  0  0  0  0  0  0  0  0  0  0
   36.9919   13.5533    4.7825 C   0  0  0  0  0  0  0  0  0  0  0  0
   35.6432   13.1769    4.4503 O   0  0  0  0  0  0  0  0  0  0  0  0
   35.4041   11.8326    4.3276 C   0  0  0  0  0  0  0  0  0  0  0  0
   36.0100   11.1034    3.5488 O   0  0  0  0  0  0  0  0  0  0  0  0
   34.2991   11.3542    5.2679 C   0  0  0  0  0  0  0  0  0  0  0  0
   33.9335    9.6875    5.4681 S   0  0  0  0  0  0  0  0  0  0  0  0
   32.7178   10.0092    6.6082 C   0  0  0  0  0  0  0  0  0  0  0  0
   32.0430    8.9786    7.1852 N   0  0  0  0  0  0  0  0  0  0  0  0
   31.1274    9.3925    8.0407 C   0  0  0  0  0  0  0  0  0  0  0  0
   30.2936    8.4038    8.8060 C   0  0  0  0  0  0  0  0  0  0  0  0
   30.8699   10.6537    8.3177 N   0  0  0  0  0  0  0  0  0  0  0  0
   31.5539   11.6638    7.7519 C   0  0  0  0  0  0  0  0  0  0  0  0
   31.0993   12.9097    8.2255 N   0  0  0  0  0  0  0  0  0  0  0  0
   31.8324   13.8073    8.9677 N   0  0  0  0  0  0  0  0  0  0  0  0
   31.0956   14.8772    9.2826 N   0  0  0  0  0  0  0  0  0  0  0  0
   29.8756   14.6688    8.7241 C   0  0  0  0  0  0  0  0  0  0  0  0
   28.5494   15.4064    8.6303 C   0  0  0  0  0  0  0  0  0  0  0  0
   27.4373   14.7083    7.8680 C   0  0  0  0  0  0  0  0  0  0  0  0
   27.5809   13.4871    7.2657 C   0  0  0  0  0  0  0  0  0  0  0  0
   28.7736   12.7927    7.3211 C   0  0  0  0  0  0  0  0  0  0  0  0
   29.8605   13.3422    8.0078 C   0  0  0  0  0  0  0  0  0  0  0  0
   32.5753   11.3752    6.8171 C   0  0  0  0  0  0  0  0  0  0  0  0
   33.4643   12.1206    6.0690 C   0  0  0  0  0  0  0  0  0  0  0  0
   33.4265   13.6402    6.2176 C   0  0  0  0  0  0  0  0  0  0  0  0
  1  2  1  0
  2  3  1  0
  3  4  1  0
  4  5  2  0
  4  6  1  0
  6  7  1  0
  7  8  1  0
  8  9  2  0
  9 10  1  0
 10 11  1  0
 10 12  2  0
 12 13  1  0
 13 14  1  0
 14 15  1  0
 15 16  2  0
 16 17  1  0
 17 18  2  0
 18 19  1  0
 19 20  2  0
 20 21  1  0
 21 22  2  0
 13 23  2  0
 23 24  1  0
 24 25  1  0
 24  6  2  0
 23  8  1  0
 22 14  1  0
 22 17  1  0
A    1
 C1 
A    2
 C2 
A    3
 O1 
A    4
 C3 
A    5
 O2 
A    6
 C4 
A    7
 S1 
A    8
 C5 
A    9
 N1 
A   10
 C6 
A   11
 C7 
A   12
 N2 
A   13
 C8 
A   14
 N3 
A   15
 N4 
A   16
 N5 
A   17
 C9 
A   18
 C10
A   19
 C11
A   20
 C12
A   21
 C13
A   22
 C14
A   23
 C15
A   24
 C16
A   25
 C17
M  END
>  <ref_pdb>  (502) 
Ax0310a

>  <ref_mols>  (502) 
Ax0446a,Ax1080a,Ax0812a,Ax0719a,Ax1140a,Ax0528a,Ax0310a

>  <original SMILES>  (502) 
CCOC(=O)c1sc2nc(C)nc(-n3nnc4ccccc43)c2c1C

>  <rationale>  (502) 
info info set:screening_whole;hbond:S87; hydroph_interaction:Y89+Y90+V124+E85; 

>  <experiment>  (502) 
screening_whole

>  <cluster_label>  (502) 
3

>  <cluster_rank>  (502) 
159

>  <N_interactions>  (502) 
5

>  <∆∆G>  (502) 
-10.781819

>  <comRMSD>  (502) 
0.479899

>  <ROCS_TanimotoCombo>  (502) 
0.46

>  <ROCS_ShapeTanimoto>  (502) 
0.271

>  <ROCS_ColorTanimoto>  (502) 
0.189

$$$$
EN300_116251
     RDKit          3D

 18 18  0  0  0  0  0  0  0  0999 V2000
   31.9004   15.7674   10.9330 C   0  0  0  0  0  0  0  0  0  0  0  0
   30.8056   15.0653   10.4537 C   0  0  0  0  0  0  0  0  0  0  0  0
   31.0049   14.1462    9.4483 C   0  0  0  0  0  0  0  0  0  0  0  0
   32.0512   14.0147    8.8341 O   0  0  0  0  0  0  0  0  0  0  0  0
   29.8839   13.3992    9.2286 N   0  0  0  0  0  0  0  0  0  0  0  0
   29.6025   12.7884    7.9651 C   0  0  0  0  0  0  0  0  0  0  0  0
   30.7444   11.8460    7.5284 C   0  0  0  0  0  0  0  0  0  0  0  0
   31.9065   12.4549    6.8679 C   0  0  0  0  0  0  0  0  0  0  0  0
   32.9863   11.5677    6.4257 C   0  0  0  0  0  0  0  0  0  0  0  0
   34.3723   12.2999    5.6349 S   0  0  0  0  0  6  0  0  0  0  0  0
   35.0163   13.2546    6.8576 N   0  0  0  0  0  0  0  0  0  0  0  0
   33.9004   13.2545    4.6779 O   0  0  0  0  0  0  0  0  0  0  0  0
   35.3215   11.2652    5.2998 O   0  0  0  0  0  0  0  0  0  0  0  0
   32.9102   10.1867    6.6233 C   0  0  0  0  0  0  0  0  0  0  0  0
   31.8098    9.6481    7.2585 C   0  0  0  0  0  0  0  0  0  0  0  0
   30.7661   10.4541    7.6991 C   0  0  0  0  0  0  0  0  0  0  0  0
   29.7118    9.9183    8.3050 O   0  0  0  0  0  0  0  0  0  0  0  0
   29.8269    8.5394    8.5125 C   0  0  0  0  0  0  0  0  0  0  0  0
  1  2  1  0
  2  3  1  0
  3  4  2  0
  3  5  1  0
  5  6  1  0
  6  7  1  0
  7  8  2  0
  8  9  1  0
  9 10  1  0
 10 11  1  0
 10 12  2  0
 10 13  2  0
  9 14  2  0
 14 15  1  0
 15 16  2  0
 16 17  1  0
 17 18  1  0
 16  7  1  0
A    1
 C1 
A    2
 C2 
A    3
 C3 
A    4
 O1 
A    5
 N1 
A    6
 C4 
A    7
 C5 
A    8
 C6 
A    9
 C7 
A   10
 S1 
A   11
 N2 
A   12
 O2 
A   13
 O3 
A   14
 C8 
A   15
 C9 
A   16
 C10
A   17
 O4 
A   18
 C11
M  END
>  <ref_pdb>  (503) 
Ax0310a

>  <ref_mols>  (503) 
Ax0446a,Ax1080a,Ax0812a,Ax0719a,Ax1140a,Ax0528a,Ax0310a

>  <original SMILES>  (503) 
CCC(=O)NCc1cc(S(N)(=O)=O)ccc1OC

>  <rationale>  (503) 
info info set:sulfonimide_whole;hbond:S87+S125+G127; hydroph_interaction:Y90+T126+V84; 

>  <experiment>  (503) 
sulfonimide_whole

>  <cluster_label>  (503) 
3

>  <cluster_rank>  (503) 
160

>  <N_interactions>  (503) 
6

>  <∆∆G>  (503) 
-8.508437

>  <comRMSD>  (503) 
0.875858

>  <ROCS_TanimotoCombo>  (503) 
0.348

>  <ROCS_ShapeTanimoto>  (503) 
0.208

>  <ROCS_ColorTanimoto>  (503) 
0.14

$$$$
Z52588389
     RDKit          3D

 25 28  0  0  0  0  0  0  0  0999 V2000
   34.9954   13.6780    9.5588 C   0  0  0  0  0  0  0  0  0  0  0  0
   34.0061   14.7764    9.1946 C   0  0  0  0  0  0  0  0  0  0  0  0
   32.5630   14.6686    9.7426 C   0  0  0  0  0  0  0  0  0  0  0  0
   31.8347   13.6887    9.1531 O   0  0  0  0  0  0  0  0  0  0  0  0
   30.4957   13.9518    8.9733 C   0  0  0  0  0  0  0  0  0  0  0  0
   29.4536   14.4744    9.9324 C   0  0  0  0  0  0  0  0  0  0  0  0
   28.1680   14.6176    9.4590 C   0  0  0  0  0  0  0  0  0  0  0  0
   27.6507   14.3089    8.0444 C   0  0  0  0  0  0  0  0  0  0  0  0
   28.7495   13.7791    7.0895 C   0  0  0  0  0  0  0  0  0  0  0  0
   30.1423   13.6446    7.6738 C   0  0  0  0  0  0  0  0  0  0  0  0
   31.2068   13.2064    6.9609 O   0  0  0  0  0  0  0  0  0  0  0  0
   31.5107   11.8904    7.0043 C   0  0  0  0  0  0  0  0  0  0  0  0
   30.6944   11.0450    7.6464 N   0  0  0  0  0  0  0  0  0  0  0  0
   31.0199    9.7465    7.6638 C   0  0  0  0  0  0  0  0  0  0  0  0
   30.1872    8.9254    8.4001 C   0  0  0  0  0  0  0  0  0  0  0  0
   32.0636    9.1812    7.0576 N   0  0  0  0  0  0  0  0  0  0  0  0
   32.8641   10.1149    6.4155 C   0  0  0  0  0  0  0  0  0  0  0  0
   34.2688    9.6665    5.5582 S   0  0  0  0  0  0  0  0  0  0  0  0
   34.6344   11.3003    5.2371 C   0  0  0  0  0  0  0  0  0  0  0  0
   33.6680   12.1144    5.7227 C   0  0  0  0  0  0  0  0  0  0  0  0
   32.6506   11.4681    6.3858 C   0  0  0  0  0  0  0  0  0  0  0  0
   33.8134   13.5871    5.5067 C   0  0  0  0  0  0  0  0  0  0  0  0
   35.2673   14.0723    5.7171 C   0  0  0  0  0  0  0  0  0  0  0  0
   36.3634   13.0793    5.2579 C   0  0  0  0  0  0  0  0  0  0  0  0
   35.8345   11.8196    4.5278 C   0  0  0  0  0  0  0  0  0  0  0  0
  1  2  1  0
  2  3  1  0
  3  4  1  0
  4  5  1  0
  5  6  2  0
  6  7  1  0
  7  8  2  0
  8  9  1  0
  9 10  2  0
 10 11  1  0
 11 12  1  0
 12 13  2  0
 13 14  1  0
 14 15  1  0
 14 16  2  0
 16 17  1  0
 17 18  1  0
 18 19  1  0
 19 20  2  0
 20 21  1  0
 20 22  1  0
 22 23  1  0
 23 24  1  0
 24 25  1  0
 10  5  1  0
 21 12  1  0
 21 17  2  0
 25 19  1  0
A    1
 C1 
A    2
 C2 
A    3
 C3 
A    4
 O1 
A    5
 C4 
A    6
 C5 
A    7
 C6 
A    8
 C7 
A    9
 C8 
A   10
 C9 
A   11
 O2 
A   12
 C10
A   13
 N1 
A   14
 C11
A   15
 C12
A   16
 N2 
A   17
 C13
A   18
 S1 
A   19
 C14
A   20
 C15
A   21
 C16
A   22
 C17
A   23
 C18
A   24
 C19
A   25
 C20
M  END
>  <ref_pdb>  (504) 
Ax0310a

>  <ref_mols>  (504) 
Ax0446a,Ax1080a,Ax0812a,Ax0719a,Ax1140a,Ax0528a,Ax0310a

>  <original SMILES>  (504) 
CCCOc1ccccc1Oc1nc(C)nc2sc3c(c12)CCCC3

>  <rationale>  (504) 
info info set:screening_whole;hbond:S87+G127; hydroph_interaction:Y90+V124+V84; 

>  <experiment>  (504) 
screening_whole

>  <cluster_label>  (504) 
3

>  <cluster_rank>  (504) 
161

>  <N_interactions>  (504) 
5

>  <∆∆G>  (504) 
-9.21423

>  <comRMSD>  (504) 
0.813056

>  <ROCS_TanimotoCombo>  (504) 
0.464

>  <ROCS_ShapeTanimoto>  (504) 
0.26

>  <ROCS_ColorTanimoto>  (504) 
0.204

$$$$
Z51983110
     RDKit          3D

 17 18  0  0  0  0  0  0  0  0999 V2000
   35.2284   14.2002    7.7529 C   0  0  0  0  0  0  0  0  0  0  0  0
   33.9700   13.5087    7.6392 N   0  0  0  0  0  0  0  0  0  0  0  0
   33.6816   12.7124    6.5355 C   0  0  0  0  0  0  0  0  0  0  0  0
   34.1717   12.9437    5.4389 O   0  0  0  0  0  0  0  0  0  0  0  0
   32.7976   11.6571    6.8085 C   0  0  0  0  0  0  0  0  0  0  0  0
   33.1397   10.3319    6.5692 C   0  0  0  0  0  0  0  0  0  0  0  0
   32.2551    9.3202    6.9029 C   0  0  0  0  0  0  0  0  0  0  0  0
   30.9665    9.7262    7.4989 C   0  0  0  0  0  0  0  0  0  0  0  0
   30.6137   11.0314    7.7025 N   0  0  0  0  0  0  0  0  0  0  0  0
   31.5593   11.9276    7.3422 C   0  0  0  0  0  0  0  0  0  0  0  0
   31.3424   13.2527    7.4903 O   0  0  0  0  0  0  0  0  0  0  0  0
   30.1806   13.7532    7.9580 C   0  0  0  0  0  0  0  0  0  0  0  0
   30.1127   14.2006    9.2595 C   0  0  0  0  0  0  0  0  0  0  0  0
   28.9423   14.7401    9.7114 C   0  0  0  0  0  0  0  0  0  0  0  0
   27.8549   14.8354    8.8652 C   0  0  0  0  0  0  0  0  0  0  0  0
   27.9171   14.3692    7.5553 C   0  0  0  0  0  0  0  0  0  0  0  0
   29.0902   13.8202    7.0919 C   0  0  0  0  0  0  0  0  0  0  0  0
  1  2  1  0
  2  3  1  0
  3  4  2  0
  3  5  1  0
  5  6  2  0
  6  7  1  0
  7  8  2  0
  8  9  1  0
  9 10  2  0
 10 11  1  0
 11 12  1  0
 12 13  2  0
 13 14  1  0
 14 15  2  0
 15 16  1  0
 16 17  2  0
 10  5  1  0
 17 12  1  0
A    1
 C1 
A    2
 N1 
A    3
 C2 
A    4
 O1 
A    5
 C3 
A    6
 C4 
A    7
 C5 
A    8
 C6 
A    9
 N2 
A   10
 C7 
A   11
 O2 
A   12
 C8 
A   13
 C9 
A   14
 C10
A   15
 C11
A   16
 C12
A   17
 C13
M  END
>  <ref_pdb>  (505) 
Ax0310a

>  <ref_mols>  (505) 
Ax0446a,Ax1080a,Ax0812a,Ax0719a,Ax1140a,Ax0528a,Ax0310a

>  <original SMILES>  (505) 
CNC(=O)c1cccnc1Oc1ccccc1

>  <rationale>  (505) 
info info set:3d;hbond:G127; hydroph_interaction:Y90; 

>  <experiment>  (505) 
3d

>  <cluster_label>  (505) 
3

>  <cluster_rank>  (505) 
162

>  <N_interactions>  (505) 
2

>  <∆∆G>  (505) 
-6.961803

>  <comRMSD>  (505) 
0.582833

>  <ROCS_TanimotoCombo>  (505) 
0.356

>  <ROCS_ShapeTanimoto>  (505) 
0.214

>  <ROCS_ColorTanimoto>  (505) 
0.142

$$$$
EN300_1618413
     RDKit          3D

 14 15  0  0  0  0  0  0  0  0999 V2000
   29.0434   13.4207    9.0736 N   0  0  0  0  0  0  0  0  0  0  0  0
   30.4109   13.4615    8.1091 S   0  0  0  0  0  6  0  0  0  0  0  0
   29.8462   13.8734    6.8546 O   0  0  0  0  0  0  0  0  0  0  0  0
   31.3934   14.2259    8.8528 O   0  0  0  0  0  0  0  0  0  0  0  0
   30.9580   11.7694    7.8777 C   0  0  0  0  0  0  0  0  0  0  0  0
   30.3845   10.7174    8.4788 N   0  0  0  0  0  0  0  0  0  0  0  0
   31.0867    9.6787    7.9999 N   0  0  0  0  0  0  0  0  0  0  0  0
   32.0763   10.0393    7.1242 C   0  0  0  0  0  0  0  0  0  0  0  0
   32.9997    9.2926    6.4135 C   0  0  0  0  0  0  0  0  0  0  0  0
   33.9204    9.9143    5.5866 C   0  0  0  0  0  0  0  0  0  0  0  0
   33.8994   11.3008    5.4821 C   0  0  0  0  0  0  0  0  0  0  0  0
   35.1576   12.1585    4.3574 Br  0  0  0  0  0  0  0  0  0  0  0  0
   32.9635   12.0589    6.1916 C   0  0  0  0  0  0  0  0  0  0  0  0
   32.0288   11.4127    7.0305 C   0  0  0  0  0  0  0  0  0  0  0  0
  1  2  1  0
  2  3  2  0
  2  4  2  0
  2  5  1  0
  5  6  2  0
  6  7  1  0
  7  8  1  0
  8  9  2  0
  9 10  1  0
 10 11  2  0
 11 12  1  0
 11 13  1  0
 13 14  2  0
 14  5  1  0
 14  8  1  0
A    1
 N1 
A    2
 S1 
A    3
 O1 
A    4
 O2 
A    5
 C1 
A    6
 N2 
A    7
 N3 
A    8
 C2 
A    9
 C3 
A   10
 C4 
A   11
 C5 
A   12
BR1 
A   13
 C6 
A   14
 C7 
M  END
>  <ref_pdb>  (506) 
Ax0310a

>  <ref_mols>  (506) 
Ax0446a,Ax1080a,Ax0812a,Ax0719a,Ax1140a,Ax0528a,Ax0310a

>  <original SMILES>  (506) 
NS(=O)(=O)c1n[nH]c2ccc(Br)cc12

>  <rationale>  (506) 
info info set:sulfonimide_whole;hbond:S87+S125; 

>  <experiment>  (506) 
sulfonimide_whole

>  <cluster_label>  (506) 
3

>  <cluster_rank>  (506) 
163

>  <N_interactions>  (506) 
2

>  <∆∆G>  (506) 
-5.196539

>  <comRMSD>  (506) 
0.70141

>  <ROCS_TanimotoCombo>  (506) 
0.358

>  <ROCS_ShapeTanimoto>  (506) 
0.18

>  <ROCS_ColorTanimoto>  (506) 
0.177

$$$$
EN300_258235
     RDKit          3D

 15 16  0  0  0  0  0  0  0  0999 V2000
   28.6046   13.9485    9.7515 N   0  0  0  0  0  0  0  0  0  0  0  0
   29.6275   14.6966    8.6638 S   0  0  0  0  0  6  0  0  0  0  0  0
   29.0023   15.9656    8.4152 O   0  0  0  0  0  0  0  0  0  0  0  0
   30.9848   14.5699    9.1622 O   0  0  0  0  0  0  0  0  0  0  0  0
   29.3904   13.7172    7.2147 C   0  0  0  0  0  0  0  0  0  0  0  0
   30.2328   12.5127    7.1734 C   0  0  0  0  0  0  0  0  0  0  0  0
   29.9755   11.4113    7.8928 C   0  0  0  0  0  0  0  0  0  0  0  0
   30.6980   10.1323    7.9065 C   0  0  0  0  0  0  0  0  0  0  0  0
   31.7870   10.0620    7.0722 C   0  0  0  0  0  0  0  0  0  0  0  0
   32.4245    8.9198    7.0502 N   0  0  0  0  0  0  0  0  0  0  0  0
   33.5028    9.0500    6.1857 C   0  0  0  0  0  0  0  0  0  0  0  0
   33.9487   10.0790    5.4236 C   0  0  0  0  0  0  0  0  0  0  0  0
   33.2133   11.2006    5.5041 C   0  0  0  0  0  0  0  0  0  0  0  0
   32.1102   11.2402    6.3201 C   0  0  0  0  0  0  0  0  0  0  0  0
   31.3602   12.4259    6.3656 C   0  0  0  0  0  0  0  0  0  0  0  0
  1  2  1  0
  2  3  2  0
  2  4  2  0
  2  5  1  0
  5  6  1  0
  6  7  2  0
  7  8  1  0
  8  9  2  0
  9 10  1  0
 10 11  2  0
 11 12  1  0
 12 13  2  0
 13 14  1  0
 14 15  2  0
 15  6  1  0
 14  9  1  0
A    1
 N1 
A    2
 S1 
A    3
 O1 
A    4
 O2 
A    5
 C1 
A    6
 C2 
A    7
 C3 
A    8
 C4 
A    9
 C5 
A   10
 N2 
A   11
 C6 
A   12
 C7 
A   13
 C8 
A   14
 C9 
A   15
 C10
M  END
>  <ref_pdb>  (507) 
Ax0310a

>  <ref_mols>  (507) 
Ax0446a,Ax1080a,Ax0812a,Ax0719a,Ax1140a,Ax0528a,Ax0310a

>  <original SMILES>  (507) 
NS(=O)(=O)Cc1ccc2ncccc2c1

>  <rationale>  (507) 
info info set:sulfonimide_whole;hbond:S87+S125+Y90; hydroph_interaction:P107; 

>  <experiment>  (507) 
sulfonimide_whole

>  <cluster_label>  (507) 
3

>  <cluster_rank>  (507) 
164

>  <N_interactions>  (507) 
4

>  <∆∆G>  (507) 
-6.164612

>  <comRMSD>  (507) 
0.86337

>  <ROCS_TanimotoCombo>  (507) 
0.344

>  <ROCS_ShapeTanimoto>  (507) 
0.208

>  <ROCS_ColorTanimoto>  (507) 
0.136

$$$$
EN300_1269011
     RDKit          3D

 13 13  0  0  0  0  0  0  0  0999 V2000
   34.3404    8.8700    5.0480 C   0  0  0  0  0  0  0  0  0  0  0  0
   33.3049    9.7255    5.7317 C   0  0  0  0  0  0  0  0  0  0  0  0
   32.5927    9.3020    6.8519 N   0  0  0  0  0  0  0  0  0  0  0  0
   31.8016   10.2829    7.2386 C   0  0  0  0  0  0  0  0  0  0  0  0
   30.9388   10.3410    8.3066 C   0  0  0  0  0  0  0  0  0  0  0  0
   30.8456   11.7476    8.5858 O   0  0  0  0  0  0  0  0  0  0  0  0
   30.2312    9.3733    8.9274 C   0  0  0  0  0  0  0  0  0  0  0  0
   28.8427    9.5999    9.2310 C   0  0  0  0  0  0  0  0  0  0  0  0
   30.8405    8.2140    9.5592 C   0  0  0  0  0  0  0  0  0  0  0  0
   30.0341    8.4779    7.9172 C   0  0  0  0  0  0  0  0  0  0  0  0
   31.8425   11.6960    6.3061 S   0  0  0  0  0  0  0  0  0  0  0  0
   33.0048   10.9828    5.3023 C   0  0  0  0  0  0  0  0  0  0  0  0
   33.5975   11.7507    4.0752 C   0  0  0  0  0  0  0  0  0  0  0  0
  1  2  1  0
  2  3  1  0
  3  4  2  0
  4  5  1  0
  5  6  2  0
  5  7  1  0
  7  8  1  0
  7  9  1  0
  7 10  1  0
  4 11  1  0
 11 12  1  0
 12 13  1  0
 12  2  2  0
A    1
 C1 
A    2
 C2 
A    3
 N1 
A    4
 C3 
A    5
 C4 
A    6
 O1 
A    7
 C5 
A    8
 C6 
A    9
 C7 
A   10
 C8 
A   11
 S1 
A   12
 C9 
A   13
 C10
M  END
>  <ref_pdb>  (508) 
Ax0310a

>  <ref_mols>  (508) 
Ax0446a,Ax1080a,Ax0812a,Ax0719a,Ax1140a,Ax0528a,Ax0310a

>  <original SMILES>  (508) 
Cc1nc(C(=O)C(C)(C)C)sc1C

>  <rationale>  (508) 
info info set:bb_densepocket2;hbond:S125+G127; hydroph_interaction:P107+V124; 

>  <experiment>  (508) 
bb_densepocket2

>  <cluster_label>  (508) 
3

>  <cluster_rank>  (508) 
165

>  <N_interactions>  (508) 
4

>  <∆∆G>  (508) 
-3.81985

>  <comRMSD>  (508) 
0.752609

>  <ROCS_TanimotoCombo>  (508) 
0.631

>  <ROCS_ShapeTanimoto>  (508) 
0.192

>  <ROCS_ColorTanimoto>  (508) 
0.44

$$$$
EN300_254546
     RDKit          3D

 13 14  0  0  0  0  0  0  0  0999 V2000
   29.0338   13.0817    8.8264 N   0  0  0  0  0  0  0  0  0  0  0  0
   30.4253   13.2962    7.9560 S   0  0  0  0  0  6  0  0  0  0  0  0
   29.9457   13.7652    6.6808 O   0  0  0  0  0  0  0  0  0  0  0  0
   31.3454   14.0579    8.7832 O   0  0  0  0  0  0  0  0  0  0  0  0
   31.1784   11.7036    7.6154 C   0  0  0  0  0  0  0  0  0  0  0  0
   30.6945   10.4477    8.2541 C   0  0  0  0  0  0  0  0  0  0  0  0
   31.4989    9.4647    7.7404 N   0  0  0  0  0  0  0  0  0  0  0  0
   32.4243   10.0167    6.8456 C   0  0  0  0  0  0  0  0  0  0  0  0
   33.4133    9.3940    6.0981 C   0  0  0  0  0  0  0  0  0  0  0  0
   34.2358   10.1506    5.2756 C   0  0  0  0  0  0  0  0  0  0  0  0
   34.0791   11.5198    5.1925 C   0  0  0  0  0  0  0  0  0  0  0  0
   33.0874   12.1509    5.9303 C   0  0  0  0  0  0  0  0  0  0  0  0
   32.2491   11.4020    6.7635 C   0  0  0  0  0  0  0  0  0  0  0  0
  1  2  1  0
  2  3  2  0
  2  4  2  0
  2  5  1  0
  5  6  2  0
  6  7  1  0
  7  8  1  0
  8  9  2  0
  9 10  1  0
 10 11  2  0
 11 12  1  0
 12 13  2  0
 13  5  1  0
 13  8  1  0
A    1
 N1 
A    2
 S1 
A    3
 O1 
A    4
 O2 
A    5
 C1 
A    6
 C2 
A    7
 N2 
A    8
 C3 
A    9
 C4 
A   10
 C5 
A   11
 C6 
A   12
 C7 
A   13
 C8 
M  END
>  <ref_pdb>  (509) 
Ax0310a

>  <ref_mols>  (509) 
Ax0446a,Ax1080a,Ax0812a,Ax0719a,Ax1140a,Ax0528a,Ax0310a

>  <original SMILES>  (509) 
NS(=O)(=O)c1c[nH]c2ccccc12

>  <rationale>  (509) 
info info set:sulfonimide_whole;hbond:S87+S125; 

>  <experiment>  (509) 
sulfonimide_whole

>  <cluster_label>  (509) 
3

>  <cluster_rank>  (509) 
166

>  <N_interactions>  (509) 
2

>  <∆∆G>  (509) 
-6.014295

>  <comRMSD>  (509) 
0.568828

>  <ROCS_TanimotoCombo>  (509) 
0.354

>  <ROCS_ShapeTanimoto>  (509) 
0.189

>  <ROCS_ColorTanimoto>  (509) 
0.165

$$$$
Z8571455930
     RDKit          3D

 17 18  0  0  0  0  0  0  0  0999 V2000
   28.4712   15.6090    7.9100 C   0  0  0  0  0  0  0  0  0  0  0  0
   29.4866   14.6961    7.6719 O   0  0  0  0  0  0  0  0  0  0  0  0
   29.1247   13.8368    6.7114 C   0  0  0  0  0  0  0  0  0  0  0  0
   28.3979   12.7268    7.3828 C   0  0  0  0  0  0  0  0  0  0  0  0
   29.1143   11.7542    7.4340 O   0  0  0  0  0  0  0  0  0  0  0  0
   30.3211   11.9300    7.9908 C   0  0  0  0  0  0  0  0  0  0  0  0
   30.6079   12.6979    8.8719 O   0  0  0  0  0  0  0  0  0  0  0  0
   31.3182   11.0079    7.3144 C   0  0  0  0  0  0  0  0  0  0  0  0
   32.2706   11.6095    6.3292 C   0  0  0  0  0  0  0  0  0  0  0  0
   33.1784   10.5501    5.7474 C   0  0  0  0  0  0  0  0  0  0  0  0
   34.2415   10.8326    4.7317 C   0  0  0  0  0  0  0  0  0  0  0  0
   34.8272    9.6546    4.4510 N   0  0  0  0  0  0  0  0  0  0  0  0
   34.1462    8.7419    5.2576 N   0  0  0  0  0  0  0  0  0  0  0  0
   33.1485    9.2619    6.0519 C   0  0  0  0  0  0  0  0  0  0  0  0
   32.3343    8.6856    6.9163 N   0  0  0  0  0  0  0  0  0  0  0  0
   31.3916    9.6141    7.5627 C   0  0  0  0  0  0  0  0  0  0  0  0
   30.4485    8.9394    8.5765 C   0  0  0  0  0  0  0  0  0  0  0  0
  1  2  1  0
  2  3  1  0
  3  4  1  0
  4  5  1  0
  5  6  1  0
  6  7  2  0
  6  8  1  0
  8  9  2  0
  9 10  1  0
 10 11  1  0
 11 12  2  0
 12 13  1  0
 13 14  1  0
 14 15  1  0
 15 16  2  0
 16 17  1  0
 16  8  1  0
 14 10  2  0
A    1
 C1 
A    2
 O1 
A    3
 C2 
A    4
 C3 
A    5
 O2 
A    6
 C4 
A    7
 O3 
A    8
 C5 
A    9
 C6 
A   10
 C7 
A   11
 C8 
A   12
 N1 
A   13
 N2 
A   14
 C9 
A   15
 N3 
A   16
 C10
A   17
 C11
M  END
>  <ref_pdb>  (510) 
Ax0310a

>  <ref_mols>  (510) 
Ax0446a,Ax1080a,Ax0812a,Ax0719a,Ax1140a,Ax0528a,Ax0310a

>  <original SMILES>  (510) 
COCCOC(=O)c1cc2cn[nH]c2nc1C

>  <rationale>  (510) 
info info set:screening_pocket;hbond:S87; hydroph_interaction:P107+V124; 

>  <experiment>  (510) 
screening_pocket

>  <cluster_label>  (510) 
3

>  <cluster_rank>  (510) 
167

>  <N_interactions>  (510) 
3

>  <∆∆G>  (510) 
-7.210276

>  <comRMSD>  (510) 
0.741846

>  <ROCS_TanimotoCombo>  (510) 
0.687

>  <ROCS_ShapeTanimoto>  (510) 
0.284

>  <ROCS_ColorTanimoto>  (510) 
0.403

$$$$
EN300_156116
     RDKit          3D

 15 16  0  0  0  0  0  0  0  0999 V2000
   34.9099   14.9202    9.1650 N   0  0  0  0  0  0  0  0  0  0  0  0
   33.6641   13.9643    8.5396 S   0  0  0  0  0  6  0  0  0  0  0  0
   32.4147   14.5597    8.9759 O   0  0  0  0  0  0  0  0  0  0  0  0
   34.0132   12.6277    9.0618 O   0  0  0  0  0  0  0  0  0  0  0  0
   34.0778   14.0325    6.7763 C   0  0  0  0  0  0  0  0  0  0  0  0
   33.0617   13.4038    5.8042 C   0  0  0  0  0  0  0  0  0  0  0  0
   32.7453   11.9753    6.1877 C   0  0  0  0  0  0  0  0  0  0  0  0
   33.4822   10.9459    5.5967 C   0  0  0  0  0  0  0  0  0  0  0  0
   33.2229    9.6270    5.9359 C   0  0  0  0  0  0  0  0  0  0  0  0
   32.1364    9.3897    6.9439 C   0  0  0  0  0  0  0  0  0  0  0  0
   31.4528   10.4194    7.4733 C   0  0  0  0  0  0  0  0  0  0  0  0
   31.7277   11.7274    7.1230 C   0  0  0  0  0  0  0  0  0  0  0  0
   30.4663    9.8956    8.3965 C   0  0  0  0  0  0  0  0  0  0  0  0
   30.7694    8.5323    8.4227 C   0  0  0  0  0  0  0  0  0  0  0  0
   31.7550    8.1344    7.4077 O   0  0  0  0  0  0  0  0  0  0  0  0
  1  2  1  0
  2  3  2  0
  2  4  2  0
  2  5  1  0
  5  6  1  0
  6  7  1  0
  7  8  2  0
  8  9  1  0
  9 10  2  0
 10 11  1  0
 11 12  2  0
 11 13  1  0
 13 14  1  0
 14 15  1  0
 12  7  1  0
 15 10  1  0
A    1
 N1 
A    2
 S1 
A    3
 O1 
A    4
 O2 
A    5
 C1 
A    6
 C2 
A    7
 C3 
A    8
 C4 
A    9
 C5 
A   10
 C6 
A   11
 C7 
A   12
 C8 
A   13
 C9 
A   14
 C10
A   15
 O3 
M  END
>  <ref_pdb>  (511) 
Ax0310a

>  <ref_mols>  (511) 
Ax0446a,Ax1080a,Ax0812a,Ax0719a,Ax1140a,Ax0528a,Ax0310a

>  <original SMILES>  (511) 
NS(=O)(=O)CCc1ccc2c(c1)CCO2

>  <rationale>  (511) 
info info set:sulfonimide_whole;hbond:S87+G127+E85; 

>  <experiment>  (511) 
sulfonimide_whole

>  <cluster_label>  (511) 
3

>  <cluster_rank>  (511) 
168

>  <N_interactions>  (511) 
3

>  <∆∆G>  (511) 
-5.601996

>  <comRMSD>  (511) 
0.496786

>  <ROCS_TanimotoCombo>  (511) 
0.359

>  <ROCS_ShapeTanimoto>  (511) 
0.203

>  <ROCS_ColorTanimoto>  (511) 
0.156

$$$$
EN300_2986589
     RDKit          3D

 11 11  0  0  0  0  0  0  0  0999 V2000
   29.6435    7.6777   10.0068 C   0  0  0  0  0  0  0  0  0  0  0  0
   29.8371    8.2771    8.6843 C   0  0  0  0  0  0  0  0  0  0  0  0
   28.9124    9.3587    8.6564 C   0  0  0  0  0  0  0  0  0  0  0  0
   31.1546    8.8525    8.6646 C   0  0  0  0  0  0  0  0  0  0  0  0
   31.7341    9.5914    7.5003 C   0  0  0  0  0  0  0  0  0  0  0  0
   32.5356    8.9021    6.7423 N   0  0  0  0  0  0  0  0  0  0  0  0
   33.0928    9.5587    5.7258 C   0  0  0  0  0  0  0  0  0  0  0  0
   33.0073   10.9905    5.2173 C   0  0  0  0  0  0  0  0  0  0  0  0
   32.0954   11.5153    6.1814 C   0  0  0  0  0  0  0  0  0  0  0  0
   31.4737   10.9057    7.2644 C   0  0  0  0  0  0  0  0  0  0  0  0
   30.6181   11.6782    8.0665 N   0  0  0  0  0  0  0  0  0  0  0  0
  1  2  1  0
  2  3  1  0
  2  4  1  0
  4  5  1  0
  5  6  2  0
  6  7  1  0
  7  8  2  0
  8  9  1  0
  9 10  2  0
 10 11  1  0
 10  5  1  0
A    1
 C1 
A    2
 C2 
A    3
 C3 
A    4
 C4 
A    5
 C5 
A    6
 N1 
A    7
 C6 
A    8
 C7 
A    9
 C8 
A   10
 C9 
A   11
 N2 
M  END
>  <ref_pdb>  (512) 
Ax0310a

>  <ref_mols>  (512) 
Ax0446a,Ax1080a,Ax0812a,Ax0719a,Ax1140a,Ax0528a,Ax0310a

>  <original SMILES>  (512) 
CC(C)Cc1ncccc1N

>  <rationale>  (512) 
info info set:bb_densepocket2;hbond:S125+G127; hydroph_interaction:P107+V124; 

>  <experiment>  (512) 
bb_densepocket2

>  <cluster_label>  (512) 
3

>  <cluster_rank>  (512) 
169

>  <N_interactions>  (512) 
4

>  <∆∆G>  (512) 
-4.516996

>  <comRMSD>  (512) 
0.343824

>  <ROCS_TanimotoCombo>  (512) 
0.646

>  <ROCS_ShapeTanimoto>  (512) 
0.197

>  <ROCS_ColorTanimoto>  (512) 
0.449

$$$$
Z4391800026
     RDKit          3D

 18 20  0  0  0  0  0  0  0  0999 V2000
   32.1313   11.7881    6.5944 C   0  0  0  0  0  0  0  0  0  0  0  0
   33.1364   10.9737    5.8396 C   0  0  0  0  0  0  0  0  0  0  0  0
   33.1645    9.4844    6.0193 C   0  0  0  0  0  0  0  0  0  0  0  0
   34.1678    8.7564    5.2475 N   0  0  0  0  0  0  0  0  0  0  0  0
   35.1460    9.1361    4.3680 C   0  0  0  0  0  0  0  0  0  0  0  0
   34.7129    9.4154    2.9403 C   0  0  0  0  0  0  0  0  0  0  0  0
   35.6172    8.3501    2.4882 C   0  0  0  0  0  0  0  0  0  0  0  0
   35.9822    7.8913    3.7426 C   0  0  0  0  0  0  0  0  0  0  0  0
   32.3002    8.8470    6.8592 N   0  0  0  0  0  0  0  0  0  0  0  0
   31.4055    9.6369    7.5205 C   0  0  0  0  0  0  0  0  0  0  0  0
   31.2344   11.1648    7.4531 C   0  0  0  0  0  0  0  0  0  0  0  0
   30.2554   11.8394    8.1914 N   0  0  0  0  0  0  0  0  0  0  0  0
   29.9502   13.2441    7.9247 C   0  0  0  0  0  0  0  0  0  0  0  0
   28.7689   13.7571    8.8049 C   0  0  0  0  0  0  0  0  0  0  0  0
   28.7553   15.1441    8.5433 C   0  0  0  0  0  0  0  0  0  0  0  0
   28.7331   15.4430    7.1566 O   0  0  0  0  0  0  0  0  0  0  0  0
   28.6304   14.3384    6.2564 C   0  0  0  0  0  0  0  0  0  0  0  0
   29.5869   13.3447    6.4472 C   0  0  0  0  0  0  0  0  0  0  0  0
  1  2  2  0
  2  3  1  0
  3  4  1  0
  4  5  1  0
  5  6  1  0
  6  7  1  0
  7  8  1  0
  3  9  2  0
  9 10  1  0
 10 11  2  0
 11 12  1  0
 12 13  1  0
 13 14  1  0
 14 15  1  0
 15 16  1  0
 16 17  1  0
 17 18  1  0
 11  1  1  0
 18 13  1  0
  8  5  1  0
A    1
 C1 
A    2
 C2 
A    3
 C3 
A    4
 N1 
A    5
 C4 
A    6
 C5 
A    7
 C6 
A    8
 C7 
A    9
 N2 
A   10
 C8 
A   11
 C9 
A   12
 N3 
A   13
 C10
A   14
 C11
A   15
 C12
A   16
 O1 
A   17
 C13
A   18
 C14
M  END
>  <ref_pdb>  (513) 
Ax0310a

>  <ref_mols>  (513) 
Ax0446a,Ax1080a,Ax0812a,Ax0719a,Ax1140a,Ax0528a,Ax0310a

>  <original SMILES>  (513) 
c1cc(NC2CCC2)ncc1NC1CCOCC1

>  <rationale>  (513) 
info info set:screening_pocket;hbond:S105+S125; hydroph_interaction:P107; 

>  <experiment>  (513) 
screening_pocket

>  <cluster_label>  (513) 
3

>  <cluster_rank>  (513) 
170

>  <N_interactions>  (513) 
3

>  <∆∆G>  (513) 
-5.311105

>  <comRMSD>  (513) 
0.446892

>  <ROCS_TanimotoCombo>  (513) 
0.667

>  <ROCS_ShapeTanimoto>  (513) 
0.229

>  <ROCS_ColorTanimoto>  (513) 
0.438

$$$$
Z449726620
     RDKit          3D

 28 31  0  0  0  0  0  0  0  0999 V2000
   31.5644   15.9877   11.2643 C   0  0  0  0  0  0  0  0  0  0  0  0
   31.2951   15.0249   10.1321 C   0  0  0  0  0  0  0  0  0  0  0  0
   30.3870   15.7366    9.2953 O   0  0  0  0  0  0  0  0  0  0  0  0
   29.5137   15.0282    8.5298 C   0  0  0  0  0  0  0  0  0  0  0  0
   28.7976   15.4444    7.4190 C   0  0  0  0  0  0  0  0  0  0  0  0
   27.8871   14.5094    6.6768 C   0  0  0  0  0  0  0  0  0  0  0  0
   27.7733   13.1301    7.2076 C   0  0  0  0  0  0  0  0  0  0  0  0
   28.5261   12.9008    8.3008 C   0  0  0  0  0  0  0  0  0  0  0  0
   28.2906   11.5231    8.7136 C   0  0  0  0  0  0  0  0  0  0  0  0
   29.2433   10.7016    8.4263 C   0  0  0  0  0  0  0  0  0  0  0  0
   29.0020    9.3040    8.8716 C   0  0  0  0  0  0  0  0  0  0  0  0
   30.2800    8.6531    8.6092 C   0  0  0  0  0  0  0  0  0  0  0  0
   30.9546    9.5458    7.6996 N   0  0  0  0  0  0  0  0  0  0  0  0
   30.5377   10.8419    7.7462 C   0  0  0  0  0  0  0  0  0  0  0  0
   31.1923   11.8457    7.2623 N   0  0  0  0  0  0  0  0  0  0  0  0
   32.4003   11.5335    6.5942 C   0  0  0  0  0  0  0  0  0  0  0  0
   33.1901   12.5636    6.0565 C   0  0  0  0  0  0  0  0  0  0  0  0
   34.4014   12.3126    5.3632 C   0  0  0  0  0  0  0  0  0  0  0  0
   35.2286   13.4679    4.8262 C   0  0  0  0  0  0  0  0  0  0  0  0
   36.4726   13.0870    4.4161 F   0  0  0  0  0  0  0  0  0  0  0  0
   35.4506   14.4145    5.7691 F   0  0  0  0  0  0  0  0  0  0  0  0
   34.6538   14.0851    3.7627 F   0  0  0  0  0  0  0  0  0  0  0  0
   34.8613   11.0100    5.1616 C   0  0  0  0  0  0  0  0  0  0  0  0
   34.0844    9.8332    5.7026 C   0  0  0  0  0  0  0  0  0  0  0  0
   32.8297   10.2182    6.4473 C   0  0  0  0  0  0  0  0  0  0  0  0
   32.0393    9.1732    7.0593 C   0  0  0  0  0  0  0  0  0  0  0  0
   32.3902    8.0515    7.0622 O   0  0  0  0  0  0  0  0  0  0  0  0
   29.3684   13.7681    8.9507 C   0  0  0  0  0  0  0  0  0  0  0  0
  1  2  1  0
  2  3  1  0
  3  4  1  0
  4  5  2  0
  5  6  1  0
  6  7  2  0
  7  8  1  0
  8  9  1  0
  9 10  2  3
 10 11  1  0
 11 12  1  0
 12 13  1  0
 13 14  1  0
 14 15  2  0
 15 16  1  0
 16 17  2  0
 17 18  1  0
 18 19  1  0
 19 20  1  0
 19 21  1  0
 19 22  1  0
 18 23  2  0
 23 24  1  0
 24 25  2  0
 25 26  1  0
 26 27  2  0
  8 28  2  0
 28  4  1  0
 14 10  1  0
 25 16  1  0
 26 13  1  0
A    1
 C1 
A    2
 C2 
A    3
 O1 
A    4
 C3 
A    5
 C4 
A    6
 C5 
A    7
 C6 
A    8
 C7 
A    9
 C8 
A   10
 C9 
A   11
 C10
A   12
 C11
A   13
 N1 
A   14
 C12
A   15
 N2 
A   16
 C13
A   17
 C14
A   18
 C15
A   19
 C16
A   20
 F1 
A   21
 F2 
A   22
 F3 
A   23
 C17
A   24
 C18
A   25
 C19
A   26
 C20
A   27
 O2 
A   28
 C21
M  END
>  <ref_pdb>  (514) 
Ax0310a

>  <ref_mols>  (514) 
Ax0446a,Ax1080a,Ax0812a,Ax0719a,Ax1140a,Ax0528a,Ax0310a

>  <original SMILES>  (514) 
CCOc1cccc(C=C2CCn3c2nc2cc(C(F)(F)F)ccc2c3=O)c1

>  <rationale>  (514) 
info info set:screening_whole;hbond:S87+G127; hydroph_interaction:Y89+Y90+V124+T126+V84; 

>  <experiment>  (514) 
screening_whole

>  <cluster_label>  (514) 
3

>  <cluster_rank>  (514) 
171

>  <N_interactions>  (514) 
8

>  <∆∆G>  (514) 
-6.141376

>  <comRMSD>  (514) 
0.749281

>  <ROCS_TanimotoCombo>  (514) 
0.455

>  <ROCS_ShapeTanimoto>  (514) 
0.279

>  <ROCS_ColorTanimoto>  (514) 
0.176

$$$$
Z1245829523
     RDKit          3D

 17 18  0  0  0  0  0  0  0  0999 V2000
   26.9563   12.3364    6.3200 C   0  0  0  0  0  0  0  0  0  0  0  0
   28.3528   12.3888    6.9011 C   0  0  0  0  0  0  0  0  0  0  0  0
   29.0038   13.7326    6.7345 C   0  0  0  0  0  0  0  0  0  0  0  0
   29.8775   14.0276    7.8453 N   0  0  0  0  0  0  0  0  0  0  0  0
   29.7367   15.0871    8.6527 C   0  0  0  0  0  0  0  0  0  0  0  0
   28.6232   16.0554    8.4544 C   0  0  0  0  0  0  0  0  0  0  0  0
   30.7762   15.0874    9.6077 N   0  0  0  0  0  0  0  0  0  0  0  0
   31.5114   13.9747    9.3236 N   0  0  0  0  0  0  0  0  0  0  0  0
   30.9667   13.3454    8.2902 C   0  0  0  0  0  0  0  0  0  0  0  0
   31.4615   12.0413    7.7046 C   0  0  0  0  0  0  0  0  0  0  0  0
   32.5858   11.9383    6.7002 C   0  0  0  0  0  0  0  0  0  0  0  0
   32.9666   10.5316    6.2199 C   0  0  0  0  0  0  0  0  0  0  0  0
   32.2475    9.4338    6.7481 C   0  0  0  0  0  0  0  0  0  0  0  0
   31.2266    9.7082    7.6734 C   0  0  0  0  0  0  0  0  0  0  0  0
   30.5390    8.5914    8.1727 C   0  0  0  0  0  0  0  0  0  0  0  0
   29.9333    7.7199    8.5865 N   0  0  0  0  0  0  0  0  0  0  0  0
   30.8409   10.9209    8.1308 C   0  0  0  0  0  0  0  0  0  0  0  0
  1  2  2  0
  2  3  1  0
  3  4  1  0
  4  5  1  0
  5  6  1  0
  5  7  2  0
  7  8  1  0
  8  9  2  0
  9 10  1  0
 10 11  2  0
 11 12  1  0
 12 13  2  0
 13 14  1  0
 14 15  1  0
 15 16  3  0
 14 17  2  0
  9  4  1  0
 17 10  1  0
A    1
 C1 
A    2
 C2 
A    3
 C3 
A    4
 N1 
A    5
 C4 
A    6
 C5 
A    7
 N2 
A    8
 N3 
A    9
 C6 
A   10
 C7 
A   11
 C8 
A   12
 C9 
A   13
 C10
A   14
 C11
A   15
 C12
A   16
 N4 
A   17
 C13
M  END
>  <ref_pdb>  (515) 
Ax0310a

>  <ref_mols>  (515) 
Ax0446a,Ax1080a,Ax0812a,Ax0719a,Ax1140a,Ax0528a,Ax0310a

>  <original SMILES>  (515) 
C=CCn1c(C)nnc1-c1cccc(C#N)c1

>  <rationale>  (515) 
info info set:3d;hbond:S87; hydroph_interaction:P107+Y89+Y90; 

>  <experiment>  (515) 
3d

>  <cluster_label>  (515) 
3

>  <cluster_rank>  (515) 
172

>  <N_interactions>  (515) 
4

>  <∆∆G>  (515) 
-5.070361

>  <comRMSD>  (515) 
0.691786

>  <ROCS_TanimotoCombo>  (515) 
0.33

>  <ROCS_ShapeTanimoto>  (515) 
0.217

>  <ROCS_ColorTanimoto>  (515) 
0.113

$$$$
EN300_1295931
     RDKit          3D

 13 13  0  0  0  0  0  0  0  0999 V2000
   33.5843   11.1967    4.2322 C   0  0  0  0  0  0  0  0  0  0  0  0
   32.8146   10.8511    5.4841 C   0  0  0  0  0  0  0  0  0  0  0  0
   32.9551    9.4420    5.9002 C   0  0  0  0  0  0  0  0  0  0  0  0
   32.3631    8.9338    6.9754 N   0  0  0  0  0  0  0  0  0  0  0  0
   31.6217    9.8151    7.6678 C   0  0  0  0  0  0  0  0  0  0  0  0
   31.0187    9.3925    8.7924 O   0  0  0  0  0  0  0  0  0  0  0  0
   30.1835    8.2870    8.7520 C   0  0  0  0  0  0  0  0  0  0  0  0
   28.8161    8.6353    8.2947 C   0  0  0  0  0  0  0  0  0  0  0  0
   29.5091    8.5349   10.0263 C   0  0  0  0  0  0  0  0  0  0  0  0
   30.3170    7.2797    9.8454 C   0  0  0  0  0  0  0  0  0  0  0  0
   31.3980   11.1740    7.3751 C   0  0  0  0  0  0  0  0  0  0  0  0
   30.5863   12.0232    8.1659 N   0  0  0  0  0  0  0  0  0  0  0  0
   32.0205   11.6911    6.2471 C   0  0  0  0  0  0  0  0  0  0  0  0
  1  2  1  0
  2  3  2  0
  3  4  1  0
  4  5  2  0
  5  6  1  0
  6  7  1  0
  7  8  1  0
  7  9  1  0
  7 10  1  0
  5 11  1  0
 11 12  1  0
 11 13  2  0
 13  2  1  0
A    1
 C1 
A    2
 C2 
A    3
 C3 
A    4
 N1 
A    5
 C4 
A    6
 O1 
A    7
 C5 
A    8
 C6 
A    9
 C7 
A   10
 C8 
A   11
 C9 
A   12
 N2 
A   13
 C10
M  END
>  <ref_pdb>  (516) 
Ax0310a

>  <ref_mols>  (516) 
Ax0446a,Ax1080a,Ax0812a,Ax0719a,Ax1140a,Ax0528a,Ax0310a

>  <original SMILES>  (516) 
Cc1cnc(OC(C)(C)C)c(N)c1

>  <rationale>  (516) 
info info set:bb_densepocket2;hbond:S105+S125+G127; hydroph_interaction:P107+V124; 

>  <experiment>  (516) 
bb_densepocket2

>  <cluster_label>  (516) 
3

>  <cluster_rank>  (516) 
173

>  <N_interactions>  (516) 
6

>  <∆∆G>  (516) 
-6.488236

>  <comRMSD>  (516) 
0.506738

>  <ROCS_TanimotoCombo>  (516) 
0.612

>  <ROCS_ShapeTanimoto>  (516) 
0.213

>  <ROCS_ColorTanimoto>  (516) 
0.399

$$$$
EN300_1878313
     RDKit          3D

 18 18  0  0  0  0  0  0  0  0999 V2000
   33.4813   11.5201    6.2543 C   0  0  0  0  0  0  0  0  0  0  0  0
   33.5204   12.9923    6.6168 C   0  0  0  0  0  0  0  0  0  0  0  0
   32.5821   13.3755    7.7159 C   0  0  0  0  0  0  0  0  0  0  0  0
   33.3231   13.7967    5.3098 C   0  0  0  0  0  0  0  0  0  0  0  0
   34.8063   13.3885    7.1574 O   0  0  0  0  0  0  0  0  0  0  0  0
   35.0330   13.4046    8.5035 C   0  0  0  0  0  0  0  0  0  0  0  0
   34.1385   13.2333    9.3069 O   0  0  0  0  0  0  0  0  0  0  0  0
   36.4133   13.5189    8.8260 N   0  0  0  0  0  0  0  0  0  0  0  0
   37.1877   12.9762    9.9838 C   0  0  0  0  0  0  0  0  0  0  0  0
   36.3552   11.9618   10.6756 C   0  0  0  0  0  0  0  0  0  0  0  0
   36.8424   11.2000   11.9004 C   0  0  0  0  0  0  0  0  0  0  0  0
   38.2002   11.4829   12.4486 C   0  0  0  0  0  0  0  0  0  0  0  0
   38.9671   12.5335   11.7001 C   0  0  0  0  0  0  0  0  0  0  0  0
   40.5443   12.8584   12.3726 S   0  0  0  0  0  6  0  0  0  0  0  0
   41.3253   11.4046   12.0534 N   0  0  0  0  0  0  0  0  0  0  0  0
   40.4007   12.9064   13.8121 O   0  0  0  0  0  0  0  0  0  0  0  0
   41.1424   13.9147   11.6064 O   0  0  0  0  0  0  0  0  0  0  0  0
   38.4461   13.2714   10.4568 C   0  0  0  0  0  0  0  0  0  0  0  0
  1  2  1  0
  2  3  1  0
  2  4  1  0
  2  5  1  0
  5  6  1  0
  6  7  2  0
  6  8  1  0
  8  9  1  0
  9 10  2  0
 10 11  1  0
 11 12  2  0
 12 13  1  0
 13 14  1  0
 14 15  1  0
 14 16  2  0
 14 17  2  0
 13 18  2  0
 18  9  1  0
A    1
 C1 
A    2
 C2 
A    3
 C3 
A    4
 C4 
A    5
 O1 
A    6
 C5 
A    7
 O2 
A    8
 N1 
A    9
 C6 
A   10
 C7 
A   11
 C8 
A   12
 C9 
A   13
 C10
A   14
 S1 
A   15
 N2 
A   16
 O3 
A   17
 O4 
A   18
 C11
M  END
>  <ref_pdb>  (517) 
Ax0310a

>  <ref_mols>  (517) 
Ax0446a,Ax1080a,Ax0812a,Ax0719a,Ax1140a,Ax0528a,Ax0310a

>  <original SMILES>  (517) 
CC(C)(C)OC(=O)Nc1cccc(S(N)(=O)=O)c1

>  <rationale>  (517) 
info info set:sulfonimide_whole;hbond:G127+E85; hydroph_interaction:V84+L100; 

>  <experiment>  (517) 
sulfonimide_whole

>  <cluster_label>  (517) 
3

>  <cluster_rank>  (517) 
174

>  <N_interactions>  (517) 
4

>  <∆∆G>  (517) 
-3.11585

>  <comRMSD>  (517) 
0.902046

>  <ROCS_TanimotoCombo>  (517) 
0.332

>  <ROCS_ShapeTanimoto>  (517) 
0.224

>  <ROCS_ColorTanimoto>  (517) 
0.108

$$$$
Z1262549981
     RDKit          3D

 13 14  0  0  0  0  0  0  0  0999 V2000
   32.5631   13.2990    8.7431 O   0  0  0  0  0  0  0  0  0  0  0  0
   31.5259   13.9111    8.9722 C   0  0  0  0  0  0  0  0  0  0  0  0
   31.5241   15.1245    9.5560 O   0  0  0  0  0  0  0  0  0  0  0  0
   30.1338   13.3846    8.6463 C   0  0  0  0  0  0  0  0  0  0  0  0
   30.0881   11.9090    8.4986 N   0  0  0  0  0  0  0  0  0  0  0  0
   31.0022   11.2051    7.6929 C   0  0  0  0  0  0  0  0  0  0  0  0
   31.8436   11.8607    6.6457 C   0  0  0  0  0  0  0  0  0  0  0  0
   32.8358   10.9883    5.8015 C   0  0  0  0  0  0  0  0  0  0  0  0
   33.0062    9.4484    5.9833 C   0  0  0  0  0  0  0  0  0  0  0  0
   32.1570    9.0720    6.9655 C   0  0  0  0  0  0  0  0  0  0  0  0
   31.1540    9.8408    7.8464 C   0  0  0  0  0  0  0  0  0  0  0  0
   29.0269   14.0169    9.4935 C   0  0  0  0  0  0  0  0  0  0  0  0
   29.0429   14.2300    7.9991 C   0  0  0  0  0  0  0  0  0  0  0  0
  1  2  2  0
  2  3  1  0
  2  4  1  0
  4  5  1  0
  5  6  1  0
  6  7  2  0
  7  8  1  0
  8  9  2  0
  9 10  1  0
 10 11  2  0
  4 12  1  0
 12 13  1  0
 13  4  1  0
 11  6  1  0
A    1
 O1 
A    2
 C1 
A    3
 O2 
A    4
 C2 
A    5
 N1 
A    6
 C3 
A    7
 C4 
A    8
 C5 
A    9
 C6 
A   10
 C7 
A   11
 C8 
A   12
 C9 
A   13
 C10
M  END
>  <ref_pdb>  (518) 
Ax0310a

>  <ref_mols>  (518) 
Ax0446a,Ax1080a,Ax0812a,Ax0719a,Ax1140a,Ax0528a,Ax0310a

>  <original SMILES>  (518) 
O=C(O)C1(Nc2ccccc2)CC1

>  <rationale>  (518) 
info info set:3d;hbond:S87+S125+G127; hydroph_interaction:P107; 

>  <experiment>  (518) 
3d

>  <cluster_label>  (518) 
3

>  <cluster_rank>  (518) 
175

>  <N_interactions>  (518) 
5

>  <∆∆G>  (518) 
-5.673239

>  <comRMSD>  (518) 
0.54534

>  <ROCS_TanimotoCombo>  (518) 
0.312

>  <ROCS_ShapeTanimoto>  (518) 
0.181

>  <ROCS_ColorTanimoto>  (518) 
0.131

$$$$
EN300_1458444
     RDKit          3D

 16 17  0  0  0  0  0  0  0  0999 V2000
   28.9478    9.8518    8.7793 C   0  0  0  0  0  0  0  0  0  0  0  0
   29.8568    8.6856    9.0951 C   0  0  0  0  0  0  0  0  0  0  0  0
   30.0785    8.0007   10.3967 C   0  0  0  0  0  0  0  0  0  0  0  0
   29.2658    7.4962    8.6012 C   0  0  0  0  0  0  0  0  0  0  0  0
   31.0877    8.9286    8.4899 O   0  0  0  0  0  0  0  0  0  0  0  0
   31.1513   10.1705    8.0700 C   0  0  0  0  0  0  0  0  0  0  0  0
   30.4378   11.2633    8.6249 O   0  0  0  0  0  0  0  0  0  0  0  0
   32.0734   10.3631    6.9239 C   0  0  0  0  0  0  0  0  0  0  0  0
   32.7876    9.1878    6.4943 N   0  0  0  0  0  0  0  0  0  0  0  0
   33.6318    9.5855    5.3969 C   0  0  0  0  0  0  0  0  0  0  0  0
   34.4466    8.7448    4.7531 N   0  0  0  0  0  0  0  0  0  0  0  0
   33.4920   11.2393    4.9958 S   0  0  0  0  0  0  0  0  0  0  0  0
   32.3333   11.5110    6.2341 C   0  0  0  0  0  0  0  0  0  0  0  0
   31.7087   12.8853    6.4947 C   0  0  0  0  0  0  0  0  0  0  0  0
   30.2064   12.9977    6.1874 C   0  0  0  0  0  0  0  0  0  0  0  0
   30.7035   13.1069    7.6158 C   0  0  0  0  0  0  0  0  0  0  0  0
  1  2  1  0
  2  3  1  0
  2  4  1  0
  2  5  1  0
  5  6  1  0
  6  7  2  0
  6  8  1  0
  8  9  1  0
  9 10  2  0
 10 11  1  0
 10 12  1  0
 12 13  1  0
 13 14  1  0
 14 15  1  0
 15 16  1  0
 13  8  2  0
 16 14  1  0
A    1
 C1 
A    2
 C2 
A    3
 C3 
A    4
 C4 
A    5
 O1 
A    6
 C5 
A    7
 O2 
A    8
 C6 
A    9
 N1 
A   10
 C7 
A   11
 N2 
A   12
 S1 
A   13
 C8 
A   14
 C9 
A   15
 C10
A   16
 C11
M  END
>  <ref_pdb>  (519) 
Ax0310a

>  <ref_mols>  (519) 
Ax0446a,Ax1080a,Ax0812a,Ax0719a,Ax1140a,Ax0528a,Ax0310a

>  <original SMILES>  (519) 
CC(C)(C)OC(=O)c1nc(N)sc1C1CC1

>  <rationale>  (519) 
info info set:bb_densepocket2;hbond:S105; hydroph_interaction:P107+V124+D109; 

>  <experiment>  (519) 
bb_densepocket2

>  <cluster_label>  (519) 
3

>  <cluster_rank>  (519) 
176

>  <N_interactions>  (519) 
4

>  <∆∆G>  (519) 
-2.006964

>  <comRMSD>  (519) 
0.798095

>  <ROCS_TanimotoCombo>  (519) 
0.64

>  <ROCS_ShapeTanimoto>  (519) 
0.232

>  <ROCS_ColorTanimoto>  (519) 
0.408

$$$$
Z31204235
     RDKit          3D

 27 32  0  0  0  0  0  0  0  0999 V2000
   30.3887    7.2131    9.8000 C   0  0  0  0  0  0  0  0  0  0  0  0
   29.2116    7.4269    9.3580 C   0  0  0  0  0  0  0  0  0  0  0  0
   29.1800    8.5924    8.2116 S   0  0  0  0  0  0  0  0  0  0  0  0
   30.7681    8.7952    8.3282 C   0  0  0  0  0  0  0  0  0  0  0  0
   31.4828    9.7060    7.6370 C   0  0  0  0  0  0  0  0  0  0  0  0
   31.1429   10.8825    8.0380 N   0  0  0  0  0  0  0  0  0  0  0  0
   31.7569   11.9277    7.5604 C   0  0  0  0  0  0  0  0  0  0  0  0
   31.2260   13.0885    8.1367 N   0  0  0  0  0  0  0  0  0  0  0  0
   31.8691   13.9648    8.9457 N   0  0  0  0  0  0  0  0  0  0  0  0
   31.0019   14.9139    9.2860 N   0  0  0  0  0  0  0  0  0  0  0  0
   29.8040   14.6244    8.6772 C   0  0  0  0  0  0  0  0  0  0  0  0
   28.5677   15.2778    8.6800 C   0  0  0  0  0  0  0  0  0  0  0  0
   27.5102   14.7391    7.9706 C   0  0  0  0  0  0  0  0  0  0  0  0
   27.6473   13.5786    7.2504 C   0  0  0  0  0  0  0  0  0  0  0  0
   28.8633   12.9158    7.2220 C   0  0  0  0  0  0  0  0  0  0  0  0
   29.9243   13.4702    7.9497 C   0  0  0  0  0  0  0  0  0  0  0  0
   32.7815   11.6988    6.6078 C   0  0  0  0  0  0  0  0  0  0  0  0
   33.7162   12.4610    5.8398 C   0  0  0  0  0  0  0  0  0  0  0  0
   34.5126   11.6570    5.0320 C   0  0  0  0  0  0  0  0  0  0  0  0
   34.1712   10.0153    5.1568 S   0  0  0  0  0  0  0  0  0  0  0  0
   32.9779   10.3517    6.2929 C   0  0  0  0  0  0  0  0  0  0  0  0
   32.3534    9.3194    6.7773 N   0  0  0  0  0  0  0  0  0  0  0  0
   35.5859   12.1162    4.1130 C   0  0  0  0  0  0  0  0  0  0  0  0
   35.4975   13.6263    3.9192 C   0  0  0  0  0  0  0  0  0  0  0  0
   35.2712   14.3193    5.2577 C   0  0  0  0  0  0  0  0  0  0  0  0
   33.9115   13.9409    5.8300 C   0  0  0  0  0  0  0  0  0  0  0  0
   31.2628    7.9947    9.1712 C   0  0  0  0  0  0  0  0  0  0  0  0
  1  2  2  0
  2  3  1  0
  3  4  1  0
  4  5  1  0
  5  6  2  0
  6  7  1  0
  7  8  1  0
  8  9  1  0
  9 10  2  0
 10 11  1  0
 11 12  2  0
 12 13  1  0
 13 14  2  0
 14 15  1  0
 15 16  2  0
  7 17  2  0
 17 18  1  0
 18 19  2  0
 19 20  1  0
 20 21  1  0
 21 22  2  0
 19 23  1  0
 23 24  1  0
 24 25  1  0
 25 26  1  0
  4 27  2  0
 27  1  1  0
 22  5  1  0
 16  8  1  0
 21 17  1  0
 16 11  1  0
 26 18  1  0
A    1
 C1 
A    2
 C2 
A    3
 S1 
A    4
 C3 
A    5
 C4 
A    6
 N1 
A    7
 C5 
A    8
 N2 
A    9
 N3 
A   10
 N4 
A   11
 C6 
A   12
 C7 
A   13
 C8 
A   14
 C9 
A   15
 C10
A   16
 C11
A   17
 C12
A   18
 C13
A   19
 C14
A   20
 S2 
A   21
 C15
A   22
 N5 
A   23
 C16
A   24
 C17
A   25
 C18
A   26
 C19
A   27
 C20
M  END
>  <ref_pdb>  (520) 
Ax0310a

>  <ref_mols>  (520) 
Ax0446a,Ax1080a,Ax0812a,Ax0719a,Ax1140a,Ax0528a,Ax0310a

>  <original SMILES>  (520) 
c1csc(-c2nc(-n3nnc4ccccc43)c3c4c(sc3n2)CCCC4)c1

>  <rationale>  (520) 
info info set:screening_whole;hbond:S87+S105; hydroph_interaction:Y89+Y90+V124; 

>  <experiment>  (520) 
screening_whole

>  <cluster_label>  (520) 
3

>  <cluster_rank>  (520) 
177

>  <N_interactions>  (520) 
5

>  <∆∆G>  (520) 
-2.039391

>  <comRMSD>  (520) 
0.693314

>  <ROCS_TanimotoCombo>  (520) 
0.462

>  <ROCS_ShapeTanimoto>  (520) 
0.277

>  <ROCS_ColorTanimoto>  (520) 
0.185

$$$$
Z6375138515
     RDKit          3D

 18 19  0  0  0  0  0  0  0  0999 V2000
   30.9020    8.6301    7.9910 N   0  0  0  0  0  0  0  0  0  0  0  0
   31.6761    9.4891    7.1976 C   0  0  0  0  0  0  0  0  0  0  0  0
   32.6333    8.9278    6.4351 N   0  0  0  0  0  0  0  0  0  0  0  0
   33.3795    9.7358    5.6630 C   0  0  0  0  0  0  0  0  0  0  0  0
   34.5682    8.9518    4.7027 Cl  0  0  0  0  0  0  0  0  0  0  0  0
   33.1821   11.2313    5.6440 C   0  0  0  0  0  0  0  0  0  0  0  0
   34.1326   12.2820    4.6764 Cl  0  0  0  0  0  0  0  0  0  0  0  0
   32.1823   11.7506    6.4496 C   0  0  0  0  0  0  0  0  0  0  0  0
   31.4293   10.8637    7.2189 C   0  0  0  0  0  0  0  0  0  0  0  0
   30.3102   11.2705    8.1145 C   0  0  0  0  0  0  0  0  0  0  0  0
   30.1258   10.4850    9.0068 O   0  0  0  0  0  0  0  0  0  0  0  0
   29.5668   12.4271    7.8325 N   0  0  0  0  0  0  0  0  0  0  0  0
   28.6899   13.1434    8.7813 C   0  0  0  0  0  0  0  0  0  0  0  0
   29.4153   13.9990    9.5675 C   0  0  0  0  0  0  0  0  0  0  0  0
   30.0979   14.9832    8.7927 C   0  0  0  0  0  0  0  0  0  0  0  0
   29.1106   15.5229    7.9014 O   0  0  0  0  0  0  0  0  0  0  0  0
   28.1686   14.4730    9.9939 C   0  0  0  0  0  0  0  0  0  0  0  0
   28.9934   14.5215   11.1280 C   0  0  0  0  0  0  0  0  0  0  0  0
  1  2  1  0
  2  3  2  0
  3  4  1  0
  4  5  1  0
  4  6  2  0
  6  7  1  0
  6  8  1  0
  8  9  2  0
  9 10  1  0
 10 11  2  0
 10 12  1  0
 12 13  1  0
 13 14  1  0
 14 15  1  0
 15 16  1  0
 14 17  1  0
 17 18  1  0
  9  2  1  0
 18 14  1  0
A    1
 N1 
A    2
 C1 
A    3
 N2 
A    4
 C2 
A    5
CL1 
A    6
 C3 
A    7
CL2 
A    8
 C4 
A    9
 C5 
A   10
 C6 
A   11
 O1 
A   12
 N3 
A   13
 C7 
A   14
 C8 
A   15
 C9 
A   16
 O2 
A   17
 C10
A   18
 C11
M  END
>  <ref_pdb>  (521) 
Ax0310a

>  <ref_mols>  (521) 
Ax0446a,Ax1080a,Ax0812a,Ax0719a,Ax1140a,Ax0528a,Ax0310a

>  <original SMILES>  (521) 
Nc1nc(Cl)c(Cl)cc1C(=O)NCC1(CO)CC1

>  <rationale>  (521) 
info info set:screening_pocket;hbond:S87+S105; hydroph_interaction:P107+Y90; 

>  <experiment>  (521) 
screening_pocket

>  <cluster_label>  (521) 
3

>  <cluster_rank>  (521) 
178

>  <N_interactions>  (521) 
6

>  <∆∆G>  (521) 
-0.570953

>  <comRMSD>  (521) 
0.625234

>  <ROCS_TanimotoCombo>  (521) 
0.689

>  <ROCS_ShapeTanimoto>  (521) 
0.254

>  <ROCS_ColorTanimoto>  (521) 
0.435

$$$$
Z45537442
     RDKit          3D

 17 18  0  0  0  0  0  0  0  0999 V2000
   34.9216    9.7789    4.9704 N   0  0  0  0  0  0  0  0  0  0  0  0
   33.9410   10.6627    5.2792 C   0  0  0  0  0  0  0  0  0  0  0  0
   32.8757   10.3373    6.1332 C   0  0  0  0  0  0  0  0  0  0  0  0
   32.7220    9.0735    6.6995 C   0  0  0  0  0  0  0  0  0  0  0  0
   31.6654    8.7696    7.5716 C   0  0  0  0  0  0  0  0  0  0  0  0
   30.7346    9.8929    7.8107 C   0  0  0  0  0  0  0  0  0  0  0  0
   30.8868   11.1110    7.2248 C   0  0  0  0  0  0  0  0  0  0  0  0
   29.7910   12.4041    7.4415 S   0  0  0  0  0  6  0  0  0  0  0  0
   30.1686   13.3833    6.4552 O   0  0  0  0  0  0  0  0  0  0  0  0
   28.4456   11.9443    7.4784 O   0  0  0  0  0  0  0  0  0  0  0  0
   30.2831   12.9895    8.8996 N   0  0  0  0  0  0  0  0  0  0  0  0
   30.5646   14.3599    8.8621 C   0  0  0  0  0  0  0  0  0  0  0  0
   29.2527   15.0387    8.6075 C   0  0  0  0  0  0  0  0  0  0  0  0
   28.5577   14.8249    9.9208 C   0  0  0  0  0  0  0  0  0  0  0  0
   29.7663   15.0728   10.8334 C   0  0  0  0  0  0  0  0  0  0  0  0
   31.0094   14.9568   10.1785 C   0  0  0  0  0  0  0  0  0  0  0  0
   31.9636   11.3416    6.3936 C   0  0  0  0  0  0  0  0  0  0  0  0
  1  2  3  0
  2  3  1  0
  3  4  2  0
  4  5  1  0
  5  6  2  0
  6  7  1  0
  7  8  1  0
  8  9  2  0
  8 10  2  0
  8 11  1  0
 11 12  1  0
 12 13  1  0
 13 14  1  0
 14 15  1  0
 15 16  1  0
  7 17  2  0
 17  3  1  0
 16 12  1  0
A    1
 N1 
A    2
 C1 
A    3
 C2 
A    4
 C3 
A    5
 C4 
A    6
 C5 
A    7
 C6 
A    8
 S1 
A    9
 O1 
A   10
 O2 
A   11
 N2 
A   12
 C7 
A   13
 C8 
A   14
 C9 
A   15
 C10
A   16
 C11
A   17
 C12
M  END
>  <ref_pdb>  (522) 
Ax0310a

>  <ref_mols>  (522) 
Ax0446a,Ax1080a,Ax0812a,Ax0719a,Ax1140a,Ax0528a,Ax0310a

>  <original SMILES>  (522) 
N#Cc1cccc(S(=O)(=O)NC2CCCC2)c1

>  <rationale>  (522) 
info info set:3d;hbond:S87+S105+S125; hydroph_interaction:P107+Y90+T126; 

>  <experiment>  (522) 
3d

>  <cluster_label>  (522) 
3

>  <cluster_rank>  (522) 
179

>  <N_interactions>  (522) 
6

>  <∆∆G>  (522) 
-4.987911

>  <comRMSD>  (522) 
0.765791

>  <ROCS_TanimotoCombo>  (522) 
0.306

>  <ROCS_ShapeTanimoto>  (522) 
0.204

>  <ROCS_ColorTanimoto>  (522) 
0.101

$$$$
EN300_6494089
     RDKit          3D

 18 18  0  0  0  0  0  0  0  0999 V2000
   35.7582   14.9796    4.3917 C   0  0  0  0  0  0  0  0  0  0  0  0
   35.6444   13.8697    5.2292 C   0  0  0  0  0  0  0  0  0  0  0  0
   36.7659   13.0357    5.3440 C   0  0  0  0  0  0  0  0  0  0  0  0
   35.2861   14.3725    6.6445 C   0  0  0  0  0  0  0  0  0  0  0  0
   34.5994   12.9952    4.7173 O   0  0  0  0  0  0  0  0  0  0  0  0
   34.3160   11.7967    5.2857 C   0  0  0  0  0  0  0  0  0  0  0  0
   35.0597   10.8300    5.2735 O   0  0  0  0  0  0  0  0  0  0  0  0
   33.0681   11.8863    5.8469 N   0  0  0  0  0  0  0  0  0  0  0  0
   32.3558   10.9365    6.6202 C   0  0  0  0  0  0  0  0  0  0  0  0
   32.6034    9.5525    6.5671 C   0  0  0  0  0  0  0  0  0  0  0  0
   31.9317    8.6176    7.3046 N   0  0  0  0  0  0  0  0  0  0  0  0
   30.8937    9.1079    8.1835 C   0  0  0  0  0  0  0  0  0  0  0  0
   30.6125   10.4486    8.2696 C   0  0  0  0  0  0  0  0  0  0  0  0
   31.3378   11.3426    7.5002 C   0  0  0  0  0  0  0  0  0  0  0  0
   30.8976   13.0285    7.6935 S   0  0  0  0  0  6  0  0  0  0  0  0
   29.5293   13.0205    8.6536 N   0  0  0  0  0  0  0  0  0  0  0  0
   31.9084   13.7192    8.4567 O   0  0  0  0  0  0  0  0  0  0  0  0
   30.4230   13.4691    6.4045 O   0  0  0  0  0  0  0  0  0  0  0  0
  1  2  1  0
  2  3  1  0
  2  4  1  0
  2  5  1  0
  5  6  1  0
  6  7  2  0
  6  8  1  0
  8  9  1  0
  9 10  2  0
 10 11  1  0
 11 12  2  0
 12 13  1  0
 13 14  2  0
 14 15  1  0
 15 16  1  0
 15 17  2  0
 15 18  2  0
 14  9  1  0
A    1
 C1 
A    2
 C2 
A    3
 C3 
A    4
 C4 
A    5
 O1 
A    6
 C5 
A    7
 O2 
A    8
 N1 
A    9
 C6 
A   10
 C7 
A   11
 N2 
A   12
 C8 
A   13
 C9 
A   14
 C10
A   15
 S1 
A   16
 N3 
A   17
 O3 
A   18
 O4 
M  END
>  <ref_pdb>  (523) 
Ax0310a

>  <ref_mols>  (523) 
Ax0446a,Ax1080a,Ax0812a,Ax0719a,Ax1140a,Ax0528a,Ax0310a

>  <original SMILES>  (523) 
CC(C)(C)OC(=O)Nc1cnccc1S(N)(=O)=O

>  <rationale>  (523) 
info info set:sulfonimide_whole;hbond:S87+S125; hydroph_interaction:E85; 

>  <experiment>  (523) 
sulfonimide_whole

>  <cluster_label>  (523) 
3

>  <cluster_rank>  (523) 
180

>  <N_interactions>  (523) 
3

>  <∆∆G>  (523) 
-9.355977

>  <comRMSD>  (523) 
0.330484

>  <ROCS_TanimotoCombo>  (523) 
0.34

>  <ROCS_ShapeTanimoto>  (523) 
0.207

>  <ROCS_ColorTanimoto>  (523) 
0.133

$$$$
Z1262614889
     RDKit          3D

 14 16  0  0  0  0  0  0  0  0999 V2000
   34.6893    9.7570    4.6609 C   0  0  0  0  0  0  0  0  0  0  0  0
   34.1034   11.0924    4.8963 C   0  0  0  0  0  0  0  0  0  0  0  0
   33.0126   10.8455    5.8858 C   0  0  0  0  0  0  0  0  0  0  0  0
   32.0373   11.8115    6.5250 C   0  0  0  0  0  0  0  0  0  0  0  0
   31.1002   11.0514    7.4791 C   0  0  0  0  0  0  0  0  0  0  0  0
   30.1181   11.6928    8.1730 N   0  0  0  0  0  0  0  0  0  0  0  0
   29.3380   12.8467    7.7256 C   0  0  0  0  0  0  0  0  0  0  0  0
   29.7494   14.1762    8.4313 C   0  0  0  0  0  0  0  0  0  0  0  0
   30.9613   13.9687    9.0778 C   0  0  0  0  0  0  0  0  0  0  0  0
   29.6334   14.4053    9.8789 C   0  0  0  0  0  0  0  0  0  0  0  0
   31.2632    9.6380    7.6341 C   0  0  0  0  0  0  0  0  0  0  0  0
   32.1925    8.8394    7.0080 N   0  0  0  0  0  0  0  0  0  0  0  0
   33.0089    9.5062    6.1635 C   0  0  0  0  0  0  0  0  0  0  0  0
   33.9888    8.8564    5.4478 N   0  0  0  0  0  0  0  0  0  0  0  0
  1  2  2  0
  2  3  1  0
  3  4  2  0
  4  5  1  0
  5  6  1  0
  6  7  1  0
  7  8  1  0
  8  9  1  0
  9 10  1  0
  5 11  2  0
 11 12  1  0
 12 13  2  0
 13 14  1  0
 14  1  1  0
 13  3  1  0
 10  8  1  0
A    1
 C1 
A    2
 C2 
A    3
 C3 
A    4
 C4 
A    5
 C5 
A    6
 N1 
A    7
 C6 
A    8
 C7 
A    9
 C8 
A   10
 C9 
A   11
 C10
A   12
 N2 
A   13
 C11
A   14
 N3 
M  END
>  <ref_pdb>  (524) 
Ax0310a

>  <ref_mols>  (524) 
Ax0446a,Ax1080a,Ax0812a,Ax0719a,Ax1140a,Ax0528a,Ax0310a

>  <original SMILES>  (524) 
c1cc2cc(NCC3CC3)cnc2[nH]1

>  <rationale>  (524) 
info info set:screening_pocket;hbond:S105+S125; hydroph_interaction:P107; 

>  <experiment>  (524) 
screening_pocket

>  <cluster_label>  (524) 
3

>  <cluster_rank>  (524) 
181

>  <N_interactions>  (524) 
3

>  <∆∆G>  (524) 
-5.026481

>  <comRMSD>  (524) 
0.465693

>  <ROCS_TanimotoCombo>  (524) 
0.653

>  <ROCS_ShapeTanimoto>  (524) 
0.246

>  <ROCS_ColorTanimoto>  (524) 
0.407

$$$$
Z102329546
     RDKit          3D

 18 20  0  0  0  0  0  0  0  0999 V2000
   32.3261   12.8781    8.1728 C   0  0  0  0  0  0  0  0  0  0  0  0
   32.4493   11.6641    7.3959 N   0  0  0  0  0  0  0  0  0  0  0  0
   31.6570   10.5308    7.4453 C   0  0  0  0  0  0  0  0  0  0  0  0
   30.4758   10.3532    8.3451 C   0  0  0  0  0  0  0  0  0  0  0  0
   29.7715   11.5927    8.5277 N   0  0  0  0  0  0  0  0  0  0  0  0
   29.8172   12.5250    7.5318 C   0  0  0  0  0  0  0  0  0  0  0  0
   30.0300   12.2468    6.3604 O   0  0  0  0  0  0  0  0  0  0  0  0
   29.5939   13.8902    8.0531 C   0  0  0  0  0  0  0  0  0  0  0  0
   28.7137   14.1668    9.2229 C   0  0  0  0  0  0  0  0  0  0  0  0
   27.9125   15.1636    8.5283 C   0  0  0  0  0  0  0  0  0  0  0  0
   28.5240   14.8109    7.3003 C   0  0  0  0  0  0  0  0  0  0  0  0
   32.0754    9.6214    6.6020 N   0  0  0  0  0  0  0  0  0  0  0  0
   33.1522   10.1698    5.9915 C   0  0  0  0  0  0  0  0  0  0  0  0
   34.0575    9.5950    4.9282 C   0  0  0  0  0  0  0  0  0  0  0  0
   35.1018   10.3910    4.4761 C   0  0  0  0  0  0  0  0  0  0  0  0
   35.2988   11.6724    4.9864 C   0  0  0  0  0  0  0  0  0  0  0  0
   34.4679   12.2246    5.9744 C   0  0  0  0  0  0  0  0  0  0  0  0
   33.4101   11.4451    6.4559 C   0  0  0  0  0  0  0  0  0  0  0  0
  1  2  1  0
  2  3  1  0
  3  4  1  0
  4  5  1  0
  5  6  1  0
  6  7  2  0
  6  8  1  0
  8  9  1  0
  9 10  1  0
 10 11  1  0
  3 12  2  0
 12 13  1  0
 13 14  2  0
 14 15  1  0
 15 16  2  0
 16 17  1  0
 17 18  2  0
 18  2  1  0
 11  8  1  0
 18 13  1  0
A    1
 C1 
A    2
 N1 
A    3
 C2 
A    4
 C3 
A    5
 N2 
A    6
 C4 
A    7
 O1 
A    8
 C5 
A    9
 C6 
A   10
 C7 
A   11
 C8 
A   12
 N3 
A   13
 C9 
A   14
 C10
A   15
 C11
A   16
 C12
A   17
 C13
A   18
 C14
M  END
>  <ref_pdb>  (525) 
Ax0310a

>  <ref_mols>  (525) 
Ax0446a,Ax1080a,Ax0812a,Ax0719a,Ax1140a,Ax0528a,Ax0310a

>  <original SMILES>  (525) 
Cn1c(CNC(=O)C2CCC2)nc2ccccc21

>  <rationale>  (525) 
info info set:3d;hbond:S125; hydroph_interaction:Y89+Y90; 

>  <experiment>  (525) 
3d

>  <cluster_label>  (525) 
3

>  <cluster_rank>  (525) 
182

>  <N_interactions>  (525) 
3

>  <∆∆G>  (525) 
-4.014247

>  <comRMSD>  (525) 
0.631639

>  <ROCS_TanimotoCombo>  (525) 
0.36

>  <ROCS_ShapeTanimoto>  (525) 
0.223

>  <ROCS_ColorTanimoto>  (525) 
0.137

$$$$
EN300_801783
     RDKit          3D

 18 19  0  0  0  0  0  0  0  0999 V2000
   28.6704    9.4596    8.4196 C   0  0  0  0  0  0  0  0  0  0  0  0
   29.9261    8.7713    8.1545 C   0  0  0  0  0  0  0  0  0  0  0  0
   30.1147    9.2038    9.5056 C   0  0  0  0  0  0  0  0  0  0  0  0
   29.9488    7.4230    8.5419 C   0  0  0  0  0  0  0  0  0  0  0  0
   31.2915    9.2994    8.3335 C   0  0  0  0  0  0  0  0  0  0  0  0
   31.8553   10.0231    7.2446 C   0  0  0  0  0  0  0  0  0  0  0  0
   32.7491    9.3407    6.4868 N   0  0  0  0  0  0  0  0  0  0  0  0
   33.2934    9.9723    5.4498 C   0  0  0  0  0  0  0  0  0  0  0  0
   34.2293    9.3980    4.5758 C   0  0  0  0  0  0  0  0  0  0  0  0
   34.6894    8.1744    4.6981 F   0  0  0  0  0  0  0  0  0  0  0  0
   34.7618   10.0581    3.4996 C   0  0  0  0  0  0  0  0  0  0  0  0
   34.3846   11.3516    3.2449 C   0  0  0  0  0  0  0  0  0  0  0  0
   33.4744   11.9720    4.0884 C   0  0  0  0  0  0  0  0  0  0  0  0
   32.9284   11.2989    5.1845 C   0  0  0  0  0  0  0  0  0  0  0  0
   32.0066   11.9575    6.0174 C   0  0  0  0  0  0  0  0  0  0  0  0
   31.4358   11.3156    7.0912 C   0  0  0  0  0  0  0  0  0  0  0  0
   30.4843   11.9307    7.9726 N   0  0  0  0  0  0  0  0  0  0  0  0
   29.9477   13.1864    7.6833 N   0  0  0  0  0  0  0  0  0  0  0  0
  1  2  1  0
  2  3  1  0
  2  4  1  0
  2  5  1  0
  5  6  1  0
  6  7  2  0
  7  8  1  0
  8  9  2  0
  9 10  1  0
  9 11  1  0
 11 12  2  0
 12 13  1  0
 13 14  2  0
 14 15  1  0
 15 16  2  0
 16 17  1  0
 17 18  1  0
 16  6  1  0
 14  8  1  0
A    1
 C1 
A    2
 C2 
A    3
 C3 
A    4
 C4 
A    5
 C5 
A    6
 C6 
A    7
 N1 
A    8
 C7 
A    9
 C8 
A   10
 F1 
A   11
 C9 
A   12
 C10
A   13
 C11
A   14
 C12
A   15
 C13
A   16
 C14
A   17
 N2 
A   18
 N3 
M  END
>  <ref_pdb>  (526) 
Ax0310a

>  <ref_mols>  (526) 
Ax0446a,Ax1080a,Ax0812a,Ax0719a,Ax1140a,Ax0528a,Ax0310a

>  <original SMILES>  (526) 
CC(C)(C)Cc1nc2c(F)cccc2cc1NN

>  <rationale>  (526) 
info info set:bb_densepocket2;hbond:S125; hydroph_interaction:P107+V124+D109; 

>  <experiment>  (526) 
bb_densepocket2

>  <cluster_label>  (526) 
3

>  <cluster_rank>  (526) 
183

>  <N_interactions>  (526) 
4

>  <∆∆G>  (526) 
-0.409918

>  <comRMSD>  (526) 
0.897705

>  <ROCS_TanimotoCombo>  (526) 
0.649

>  <ROCS_ShapeTanimoto>  (526) 
0.256

>  <ROCS_ColorTanimoto>  (526) 
0.392

$$$$
Z1188610733
     RDKit          3D

 16 17  0  0  0  0  0  0  0  0999 V2000
   28.3718   14.8553    8.0414 C   0  0  0  0  0  0  0  0  0  0  0  0
   28.2369   13.3321    8.1175 C   0  0  0  0  0  0  0  0  0  0  0  0
   29.6164   13.1195    7.5309 C   0  0  0  0  0  0  0  0  0  0  0  0
   29.9055   13.5492    6.4258 O   0  0  0  0  0  0  0  0  0  0  0  0
   30.4609   12.4391    8.2763 N   0  0  0  0  0  0  0  0  0  0  0  0
   31.4412   11.5924    7.7675 C   0  0  0  0  0  0  0  0  0  0  0  0
   32.7337   12.4239    7.8474 C   0  0  0  0  0  0  0  0  0  0  0  0
   33.4444   12.9093    8.8329 N   0  0  0  0  0  0  0  0  0  0  0  0
   34.4740   13.5993    8.3323 C   0  0  0  0  0  0  0  0  0  0  0  0
   35.4202   14.2358    9.3624 C   0  0  0  0  0  0  0  0  0  0  0  0
   34.6101   13.6827    6.9679 C   0  0  0  0  0  0  0  0  0  0  0  0
   33.3645   12.8320    6.2139 S   0  0  0  0  0  0  0  0  0  0  0  0
   31.1221   10.2568    8.1714 C   0  0  0  0  0  0  0  0  0  0  0  0
   31.7367    9.3487    7.3921 C   0  0  0  0  0  0  0  0  0  0  0  0
   32.2814   10.2392    6.3021 C   0  0  0  0  0  0  0  0  0  0  0  0
   31.4748   11.4335    6.2933 C   0  0  0  0  0  0  0  0  0  0  0  0
  1  2  1  0
  2  3  1  0
  3  4  2  0
  3  5  1  0
  5  6  1  0
  6  7  1  0
  7  8  2  0
  8  9  1  0
  9 10  1  0
  9 11  2  0
 11 12  1  0
  6 13  1  0
 13 14  1  0
 14 15  1  0
 15 16  1  0
 16  6  1  0
 12  7  1  0
A    1
 C1 
A    2
 C2 
A    3
 C3 
A    4
 O1 
A    5
 N1 
A    6
 C4 
A    7
 C5 
A    8
 N2 
A    9
 C6 
A   10
 C7 
A   11
 C8 
A   12
 S1 
A   13
 C9 
A   14
 C10
A   15
 C11
A   16
 C12
M  END
>  <ref_pdb>  (527) 
Ax0310a

>  <ref_mols>  (527) 
Ax0446a,Ax1080a,Ax0812a,Ax0719a,Ax1140a,Ax0528a,Ax0310a

>  <original SMILES>  (527) 
CCC(=O)NC1(c2nc(C)cs2)CCCC1

>  <rationale>  (527) 
info info set:3d;hbond:S87+S125+G127; hydroph_interaction:P107+V84; 

>  <experiment>  (527) 
3d

>  <cluster_label>  (527) 
3

>  <cluster_rank>  (527) 
184

>  <N_interactions>  (527) 
5

>  <∆∆G>  (527) 
-5.832912

>  <comRMSD>  (527) 
0.690407

>  <ROCS_TanimotoCombo>  (527) 
0.323

>  <ROCS_ShapeTanimoto>  (527) 
0.208

>  <ROCS_ColorTanimoto>  (527) 
0.115

$$$$
EN300_22173605
     RDKit          3D

 18 19  0  0  0  0  0  0  0  0999 V2000
   29.7792    9.0218    8.0325 C   0  0  0  0  0  0  0  0  0  0  0  0
   30.3263    8.0646    8.8970 C   0  0  0  0  0  0  0  0  0  0  0  0
   30.1964    8.5648   10.1445 C   0  0  0  0  0  0  0  0  0  0  0  0
   29.4122    7.0044    9.0672 C   0  0  0  0  0  0  0  0  0  0  0  0
   31.6171    8.2018    8.4031 O   0  0  0  0  0  0  0  0  0  0  0  0
   31.6030    9.5043    7.9349 C   0  0  0  0  0  0  0  0  0  0  0  0
   30.9463   10.4450    8.3748 O   0  0  0  0  0  0  0  0  0  0  0  0
   32.4520    9.7571    6.8741 N   0  0  0  0  0  0  0  0  0  0  0  0
   32.9335    8.8629    6.2905 N   0  0  0  0  0  0  0  0  0  0  0  0
   33.7162    9.3399    5.3306 C   0  0  0  0  0  0  0  0  0  0  0  0
   34.4200    8.5985    4.4763 N   0  0  0  0  0  0  0  0  0  0  0  0
   33.6189   10.7857    5.4350 C   0  0  0  0  0  0  0  0  0  0  0  0
   34.3456   11.7404    4.5394 C   0  0  0  0  0  0  0  0  0  0  0  0
   34.0681   13.0601    4.8712 C   0  0  0  0  0  0  0  0  0  0  0  0
   34.6260   14.0625    4.1811 F   0  0  0  0  0  0  0  0  0  0  0  0
   33.1953   13.3419    5.9391 C   0  0  0  0  0  0  0  0  0  0  0  0
   32.5347   12.3856    6.7511 C   0  0  0  0  0  0  0  0  0  0  0  0
   32.8005   11.0481    6.4350 C   0  0  0  0  0  0  0  0  0  0  0  0
  1  2  1  0
  2  3  1  0
  2  4  1  0
  2  5  1  0
  5  6  1  0
  6  7  2  0
  6  8  1  0
  8  9  1  0
  9 10  2  0
 10 11  1  0
 10 12  1  0
 12 13  2  0
 13 14  1  0
 14 15  1  0
 14 16  2  0
 16 17  1  0
 17 18  2  0
 18  8  1  0
 18 12  1  0
A    1
 C1 
A    2
 C2 
A    3
 C3 
A    4
 C4 
A    5
 O1 
A    6
 C5 
A    7
 O2 
A    8
 N1 
A    9
 N2 
A   10
 C6 
A   11
 N3 
A   12
 C7 
A   13
 C8 
A   14
 C9 
A   15
 F1 
A   16
 C10
A   17
 C11
A   18
 C12
M  END
>  <ref_pdb>  (528) 
Ax0310a

>  <ref_mols>  (528) 
Ax0446a,Ax1080a,Ax0812a,Ax0719a,Ax1140a,Ax0528a,Ax0310a

>  <original SMILES>  (528) 
CC(C)(C)OC(=O)n1nc(N)c2cc(F)ccc21

>  <rationale>  (528) 
info info set:bb_densepocket2;hbond:S105+S125; hydroph_interaction:V124+D109; 

>  <experiment>  (528) 
bb_densepocket2

>  <cluster_label>  (528) 
3

>  <cluster_rank>  (528) 
185

>  <N_interactions>  (528) 
4

>  <∆∆G>  (528) 
-2.799131

>  <comRMSD>  (528) 
0.828799

>  <ROCS_TanimotoCombo>  (528) 
0.621

>  <ROCS_ShapeTanimoto>  (528) 
0.24

>  <ROCS_ColorTanimoto>  (528) 
0.381

$$$$
EN300_282719
     RDKit          3D

 16 17  0  0  0  0  0  0  0  0999 V2000
   34.5095   14.1098    5.1508 C   0  0  0  0  0  0  0  0  0  0  0  0
   33.6348   12.9000    5.0088 C   0  0  0  0  0  0  0  0  0  0  0  0
   32.8510   12.6706    3.6625 C   0  0  0  0  0  0  0  0  0  0  0  0
   34.5976   11.7193    5.1987 C   0  0  0  0  0  0  0  0  0  0  0  0
   33.8994   10.3939    5.2579 C   0  0  0  0  0  0  0  0  0  0  0  0
   32.7733   10.5881    6.2851 C   0  0  0  0  0  0  0  0  0  0  0  0
   32.3748    9.2246    6.8692 C   0  0  0  0  0  0  0  0  0  0  0  0
   31.2526    9.3029    7.9039 C   0  0  0  0  0  0  0  0  0  0  0  0
   30.6496   10.6998    8.2364 C   0  0  0  0  0  0  0  0  0  0  0  0
   31.0594   11.9026    7.6614 C   0  0  0  0  0  0  0  0  0  0  0  0
   30.3643   13.4689    8.0293 S   0  0  0  0  0  6  0  0  0  0  0  0
   29.0071   13.2966    8.9860 N   0  0  0  0  0  0  0  0  0  0  0  0
   29.7596   13.9101    6.7918 O   0  0  0  0  0  0  0  0  0  0  0  0
   31.3144   14.2534    8.7968 O   0  0  0  0  0  0  0  0  0  0  0  0
   32.1913   11.7897    6.6345 C   0  0  0  0  0  0  0  0  0  0  0  0
   32.6123   12.9437    6.0518 O   0  0  0  0  0  0  0  0  0  0  0  0
  1  2  1  0
  2  3  1  0
  2  4  1  0
  4  5  1  0
  5  6  1  0
  6  7  2  0
  7  8  1  0
  8  9  2  0
  9 10  1  0
 10 11  1  0
 11 12  1  0
 11 13  2  0
 11 14  2  0
 10 15  2  0
 15 16  1  0
 16  2  1  0
 15  6  1  0
A    1
 C1 
A    2
 C2 
A    3
 C3 
A    4
 C4 
A    5
 C5 
A    6
 C6 
A    7
 C7 
A    8
 C8 
A    9
 C9 
A   10
 C10
A   11
 S1 
A   12
 N1 
A   13
 O1 
A   14
 O2 
A   15
 C11
A   16
 O3 
M  END
>  <ref_pdb>  (529) 
Ax0310a

>  <ref_mols>  (529) 
Ax0446a,Ax1080a,Ax0812a,Ax0719a,Ax1140a,Ax0528a,Ax0310a

>  <original SMILES>  (529) 
CC1(C)CCc2cccc(S(N)(=O)=O)c2O1

>  <rationale>  (529) 
info info set:sulfonimide_whole;hbond:S87+S125; hydroph_interaction:P107; 

>  <experiment>  (529) 
sulfonimide_whole

>  <cluster_label>  (529) 
3

>  <cluster_rank>  (529) 
186

>  <N_interactions>  (529) 
3

>  <∆∆G>  (529) 
-7.56684

>  <comRMSD>  (529) 
0.619406

>  <ROCS_TanimotoCombo>  (529) 
0.35

>  <ROCS_ShapeTanimoto>  (529) 
0.2

>  <ROCS_ColorTanimoto>  (529) 
0.15

$$$$
EN300_1232759
     RDKit          3D

 12 12  0  0  0  0  0  0  0  0999 V2000
   30.0131    8.4758    9.2181 C   0  0  0  0  0  0  0  0  0  0  0  0
   30.8242    8.7325    8.1598 N   0  0  0  0  0  0  0  0  0  0  0  0
   31.0462   10.0213    7.9144 C   0  0  0  0  0  0  0  0  0  0  0  0
   30.4835   11.1649    8.5584 O   0  0  0  0  0  0  0  0  0  0  0  0
   31.9863   10.3288    6.8220 C   0  0  0  0  0  0  0  0  0  0  0  0
   31.8452   11.7171    6.2999 C   0  0  0  0  0  0  0  0  0  0  0  0
   32.7954   12.0795    5.1671 C   0  0  0  0  0  0  0  0  0  0  0  0
   33.7858   11.0116    4.6814 C   0  0  0  0  0  0  0  0  0  0  0  0
   33.6976    9.6639    5.4239 C   0  0  0  0  0  0  0  0  0  0  0  0
   34.5383    8.6174    5.0968 N   0  0  0  0  0  0  0  0  0  0  0  0
   34.7405    8.3631    3.6874 C   0  0  0  0  0  0  0  0  0  0  0  0
   32.8436    9.3775    6.4169 N   0  0  0  0  0  0  0  0  0  0  0  0
  1  2  1  0
  2  3  1  0
  3  4  2  0
  3  5  1  0
  5  6  2  0
  6  7  1  0
  7  8  2  0
  8  9  1  0
  9 10  1  0
 10 11  1  0
  9 12  2  0
 12  5  1  0
A    1
 C1 
A    2
 N1 
A    3
 C2 
A    4
 O1 
A    5
 C3 
A    6
 C4 
A    7
 C5 
A    8
 C6 
A    9
 C7 
A   10
 N2 
A   11
 C8 
A   12
 N3 
M  END
>  <ref_pdb>  (530) 
Ax0310a

>  <ref_mols>  (530) 
Ax0446a,Ax1080a,Ax0812a,Ax0719a,Ax1140a,Ax0528a,Ax0310a

>  <original SMILES>  (530) 
CNC(=O)c1cccc(NC)n1

>  <rationale>  (530) 
info info set:bb_densepocket2;hbond:S105; hydroph_interaction:P107; 

>  <experiment>  (530) 
bb_densepocket2

>  <cluster_label>  (530) 
3

>  <cluster_rank>  (530) 
187

>  <N_interactions>  (530) 
3

>  <∆∆G>  (530) 
-3.895738

>  <comRMSD>  (530) 
0.75677

>  <ROCS_TanimotoCombo>  (530) 
0.653

>  <ROCS_ShapeTanimoto>  (530) 
0.205

>  <ROCS_ColorTanimoto>  (530) 
0.448

$$$$
EN300_27733780
     RDKit          3D

 14 15  0  0  0  0  0  0  0  0999 V2000
   29.0962   13.2357    8.8896 N   0  0  0  0  0  0  0  0  0  0  0  0
   30.5039   13.2583    8.0008 S   0  0  0  0  0  6  0  0  0  0  0  0
   30.1047   13.6492    6.6753 O   0  0  0  0  0  0  0  0  0  0  0  0
   31.5230   13.9572    8.7603 O   0  0  0  0  0  0  0  0  0  0  0  0
   31.0982   11.6515    7.7504 C   0  0  0  0  0  0  0  0  0  0  0  0
   30.6422   10.3917    8.3745 C   0  0  0  0  0  0  0  0  0  0  0  0
   31.4016    9.3821    7.8519 N   0  0  0  0  0  0  0  0  0  0  0  0
   32.3298    9.9526    6.9066 C   0  0  0  0  0  0  0  0  0  0  0  0
   33.2131    9.2338    6.2060 N   0  0  0  0  0  0  0  0  0  0  0  0
   33.9772    9.9778    5.3863 C   0  0  0  0  0  0  0  0  0  0  0  0
   35.0939    9.0572    4.4654 Cl  0  0  0  0  0  0  0  0  0  0  0  0
   33.9226   11.3459    5.2387 C   0  0  0  0  0  0  0  0  0  0  0  0
   32.9879   12.0577    5.9879 C   0  0  0  0  0  0  0  0  0  0  0  0
   32.1495   11.3361    6.8555 C   0  0  0  0  0  0  0  0  0  0  0  0
  1  2  1  0
  2  3  2  0
  2  4  2  0
  2  5  1  0
  5  6  2  0
  6  7  1  0
  7  8  1  0
  8  9  2  0
  9 10  1  0
 10 11  1  0
 10 12  2  0
 12 13  1  0
 13 14  2  0
 14  5  1  0
 14  8  1  0
A    1
 N1 
A    2
 S1 
A    3
 O1 
A    4
 O2 
A    5
 C1 
A    6
 C2 
A    7
 N2 
A    8
 C3 
A    9
 N3 
A   10
 C4 
A   11
CL1 
A   12
 C5 
A   13
 C6 
A   14
 C7 
M  END
>  <ref_pdb>  (531) 
Ax0310a

>  <ref_mols>  (531) 
Ax0446a,Ax1080a,Ax0812a,Ax0719a,Ax1140a,Ax0528a,Ax0310a

>  <original SMILES>  (531) 
NS(=O)(=O)c1c[nH]c2nc(Cl)ccc12

>  <rationale>  (531) 
info info set:sulfonimide_whole;hbond:S87+S125; 

>  <experiment>  (531) 
sulfonimide_whole

>  <cluster_label>  (531) 
3

>  <cluster_rank>  (531) 
188

>  <N_interactions>  (531) 
2

>  <∆∆G>  (531) 
-4.858972

>  <comRMSD>  (531) 
0.617503

>  <ROCS_TanimotoCombo>  (531) 
0.356

>  <ROCS_ShapeTanimoto>  (531) 
0.193

>  <ROCS_ColorTanimoto>  (531) 
0.163

$$$$
Z52589785
     RDKit          3D

 29 33  0  0  0  0  0  0  0  0999 V2000
   31.8081   16.7058   10.9374 C   0  0  0  0  0  0  0  0  0  0  0  0
   30.8369   16.1634   10.0490 O   0  0  0  0  0  0  0  0  0  0  0  0
   31.1139   14.9304    9.5462 C   0  0  0  0  0  0  0  0  0  0  0  0
   32.2382   14.2368    9.7995 O   0  0  0  0  0  0  0  0  0  0  0  0
   30.0838   14.3554    8.5850 C   0  0  0  0  0  0  0  0  0  0  0  0
   28.6597   14.6522    8.9432 C   0  0  0  0  0  0  0  0  0  0  0  0
   27.3934   14.2268    8.1341 C   0  0  0  0  0  0  0  0  0  0  0  0
   27.9016   13.3940    6.8727 C   0  0  0  0  0  0  0  0  0  0  0  0
   29.2126   13.1255    6.5492 C   0  0  0  0  0  0  0  0  0  0  0  0
   30.3367   13.6370    7.4379 C   0  0  0  0  0  0  0  0  0  0  0  0
   31.6664   13.3245    6.9304 O   0  0  0  0  0  0  0  0  0  0  0  0
   32.0597   12.0604    6.7572 C   0  0  0  0  0  0  0  0  0  0  0  0
   31.3159   11.2263    7.3560 N   0  0  0  0  0  0  0  0  0  0  0  0
   31.6224    9.9736    7.2504 C   0  0  0  0  0  0  0  0  0  0  0  0
   30.7018    9.2717    8.0319 C   0  0  0  0  0  0  0  0  0  0  0  0
   29.7931   10.1198    8.7531 C   0  0  0  0  0  0  0  0  0  0  0  0
   28.9203    9.3261    9.5280 C   0  0  0  0  0  0  0  0  0  0  0  0
   29.0450    8.0303    9.4236 C   0  0  0  0  0  0  0  0  0  0  0  0
   29.9155    7.3724    8.7294 N   0  0  0  0  0  0  0  0  0  0  0  0
   30.6477    7.9681    8.1296 C   0  0  0  0  0  0  0  0  0  0  0  0
   32.5748    9.3707    6.5969 N   0  0  0  0  0  0  0  0  0  0  0  0
   33.3174   10.2573    6.0000 C   0  0  0  0  0  0  0  0  0  0  0  0
   34.6529    9.7435    5.0775 S   0  0  0  0  0  0  0  0  0  0  0  0
   35.0141   11.3395    4.7710 C   0  0  0  0  0  0  0  0  0  0  0  0
   34.1488   12.2438    5.3137 C   0  0  0  0  0  0  0  0  0  0  0  0
   33.1405   11.6297    6.0387 C   0  0  0  0  0  0  0  0  0  0  0  0
   34.5416   13.6281    4.9794 C   0  0  0  0  0  0  0  0  0  0  0  0
   36.0335   13.4085    4.5955 C   0  0  0  0  0  0  0  0  0  0  0  0
   36.1120   11.9645    4.0149 C   0  0  0  0  0  0  0  0  0  0  0  0
  1  2  1  0
  2  3  1  0
  3  4  2  0
  3  5  1  0
  5  6  2  0
  6  7  1  0
  7  8  2  0
  8  9  1  0
  9 10  2  0
 10 11  1  0
 11 12  1  0
 12 13  2  0
 13 14  1  0
 14 15  1  0
 15 16  2  0
 16 17  1  0
 17 18  2  0
 18 19  1  0
 19 20  2  0
 14 21  2  0
 21 22  1  0
 22 23  1  0
 23 24  1  0
 24 25  2  0
 25 26  1  0
 25 27  1  0
 27 28  1  0
 28 29  1  0
 10  5  1  0
 26 12  1  0
 20 15  1  0
 26 22  2  0
 29 24  1  0
A    1
 C1 
A    2
 O1 
A    3
 C2 
A    4
 O2 
A    5
 C3 
A    6
 C4 
A    7
 C5 
A    8
 C6 
A    9
 C7 
A   10
 C8 
A   11
 O3 
A   12
 C9 
A   13
 N1 
A   14
 C10
A   15
 C11
A   16
 C12
A   17
 C13
A   18
 C14
A   19
 N2 
A   20
 C15
A   21
 N3 
A   22
 C16
A   23
 S1 
A   24
 C17
A   25
 C18
A   26
 C19
A   27
 C20
A   28
 C21
A   29
 C22
M  END
>  <ref_pdb>  (532) 
Ax0310a

>  <ref_mols>  (532) 
Ax0446a,Ax1080a,Ax0812a,Ax0719a,Ax1140a,Ax0528a,Ax0310a

>  <original SMILES>  (532) 
COC(=O)c1ccccc1Oc1nc(-c2cccnc2)nc2sc3c(c12)CCC3

>  <rationale>  (532) 
info info set:screening_whole;hbond:S87+G127; hydroph_interaction:P107+Y90; pistack:H21; 

>  <experiment>  (532) 
screening_whole

>  <cluster_label>  (532) 
3

>  <cluster_rank>  (532) 
189

>  <N_interactions>  (532) 
5

>  <∆∆G>  (532) 
-4.561484

>  <comRMSD>  (532) 
0.913693

>  <ROCS_TanimotoCombo>  (532) 
0.466

>  <ROCS_ShapeTanimoto>  (532) 
0.28

>  <ROCS_ColorTanimoto>  (532) 
0.185

$$$$
EN300_360075
     RDKit          3D

 14 14  0  0  0  0  0  0  0  0999 V2000
   31.4878   12.8308    6.3842 C   0  0  0  0  0  0  0  0  0  0  0  0
   32.2568   11.5711    6.0749 C   0  0  0  0  0  0  0  0  0  0  0  0
   33.3518   11.1965    4.8459 S   0  0  0  0  0  0  0  0  0  0  0  0
   33.4925    9.6133    5.5123 C   0  0  0  0  0  0  0  0  0  0  0  0
   34.3058    8.7354    4.9177 N   0  0  0  0  0  0  0  0  0  0  0  0
   32.7805    9.3314    6.5955 N   0  0  0  0  0  0  0  0  0  0  0  0
   32.0418   10.4346    6.9864 C   0  0  0  0  0  0  0  0  0  0  0  0
   31.1275   10.5451    8.1656 C   0  0  0  0  0  0  0  0  0  0  0  0
   30.6228   11.5876    8.5398 O   0  0  0  0  0  0  0  0  0  0  0  0
   30.9782    9.2647    8.7260 O   0  0  0  0  0  0  0  0  0  0  0  0
   29.6203    8.9666    8.8830 C   0  0  0  0  0  0  0  0  0  0  0  0
   29.2349    7.6302    8.4832 C   0  0  0  0  0  0  0  0  0  0  0  0
   28.8294   10.1820    8.4245 C   0  0  0  0  0  0  0  0  0  0  0  0
   29.1451    8.7169   10.1584 C   0  0  0  0  0  0  0  0  0  0  0  0
  1  2  1  0
  2  3  1  0
  3  4  1  0
  4  5  1  0
  4  6  2  0
  6  7  1  0
  7  8  1  0
  8  9  2  0
  8 10  1  0
 10 11  1  0
 11 12  1  0
 11 13  1  0
 11 14  1  0
  7  2  2  0
A    1
 C1 
A    2
 C2 
A    3
 S1 
A    4
 C3 
A    5
 N1 
A    6
 N2 
A    7
 C4 
A    8
 C5 
A    9
 O1 
A   10
 O2 
A   11
 C6 
A   12
 C7 
A   13
 C8 
A   14
 C9 
M  END
>  <ref_pdb>  (533) 
Ax0310a

>  <ref_mols>  (533) 
Ax0446a,Ax1080a,Ax0812a,Ax0719a,Ax1140a,Ax0528a,Ax0310a

>  <original SMILES>  (533) 
Cc1sc(N)nc1C(=O)OC(C)(C)C

>  <rationale>  (533) 
info info set:bb_densepocket2;hbond:S105+G127; hydroph_interaction:D109; 

>  <experiment>  (533) 
bb_densepocket2

>  <cluster_label>  (533) 
3

>  <cluster_rank>  (533) 
190

>  <N_interactions>  (533) 
3

>  <∆∆G>  (533) 
-1.975058

>  <comRMSD>  (533) 
0.747292

>  <ROCS_TanimotoCombo>  (533) 
0.655

>  <ROCS_ShapeTanimoto>  (533) 
0.213

>  <ROCS_ColorTanimoto>  (533) 
0.442

$$$$
EN300_679689
     RDKit          3D

 15 16  0  0  0  0  0  0  0  0999 V2000
   30.5599   13.5536    9.1950 N   0  0  0  0  0  0  0  0  0  0  0  0
   31.8410   13.0012    8.2630 S   0  0  0  0  0  6  0  0  0  0  0  0
   33.0267   12.7980    9.0555 O   0  0  0  0  0  0  0  0  0  0  0  0
   31.9963   13.8923    7.2543 O   0  0  0  0  0  0  0  0  0  0  0  0
   31.2895   11.6275    7.2650 C   0  0  2  0  0  0  0  0  0  0  0  0
   30.6230   10.5881    8.0424 C   0  0  0  0  0  0  0  0  0  0  0  0
   31.0652    9.1568    7.8938 C   0  0  0  0  0  0  0  0  0  0  0  0
   31.9215    8.9111    6.7629 O   0  0  0  0  0  0  0  0  0  0  0  0
   32.8090    9.9392    6.3056 C   0  0  0  0  0  0  0  0  0  0  0  0
   34.0617    9.3614    5.5449 C   0  0  0  0  0  0  0  0  0  0  0  0
   34.9090   10.6374    5.1379 C   0  0  0  0  0  0  0  0  0  0  0  0
   34.5267   11.9339    5.4412 C   0  0  0  0  0  0  0  0  0  0  0  0
   35.6856   13.3236    4.8768 Br  0  0  0  0  0  0  0  0  0  0  0  0
   33.3749   12.2828    6.1201 C   0  0  0  0  0  0  0  0  0  0  0  0
   32.5369   11.2631    6.5357 C   0  0  0  0  0  0  0  0  0  0  0  0
  1  2  1  0
  2  3  2  0
  2  4  2  0
  5  2  1  1
  5  6  1  0
  6  7  1  0
  7  8  1  0
  8  9  1  0
  9 10  2  0
 10 11  1  0
 11 12  2  0
 12 13  1  0
 12 14  1  0
 14 15  2  0
 15  5  1  0
 15  9  1  0
A    1
 N1 
A    2
 S1 
A    3
 O1 
A    4
 O2 
A    5
 C1 
A    6
 C2 
A    7
 C3 
A    8
 O3 
A    9
 C4 
A   10
 C5 
A   11
 C6 
A   12
 C7 
A   13
BR1 
A   14
 C8 
A   15
 C9 
M  END
>  <ref_pdb>  (534) 
Ax0310a

>  <ref_mols>  (534) 
Ax0446a,Ax1080a,Ax0812a,Ax0719a,Ax1140a,Ax0528a,Ax0310a

>  <original SMILES>  (534) 
NS(=O)(=O)[C@@H]1CCOc2ccc(Br)cc21

>  <rationale>  (534) 
info info set:sulfonimide_whole;hbond:S87+S125+G127; 

>  <experiment>  (534) 
sulfonimide_whole

>  <cluster_label>  (534) 
3

>  <cluster_rank>  (534) 
191

>  <N_interactions>  (534) 
3

>  <∆∆G>  (534) 
-3.376

>  <comRMSD>  (534) 
0.789519

>  <ROCS_TanimotoCombo>  (534) 
0.354

>  <ROCS_ShapeTanimoto>  (534) 
0.207

>  <ROCS_ColorTanimoto>  (534) 
0.147

$$$$
Z1116588628
     RDKit          3D

 24 27  0  0  0  0  0  0  0  0999 V2000
   28.8220   16.0897    8.6760 C   0  0  0  0  0  0  0  0  0  0  0  0
   29.5850   15.9022    9.9464 C   0  0  0  0  0  0  0  0  0  0  0  0
   30.4933   15.1850    9.6989 N   0  0  0  0  0  0  0  0  0  0  0  0
   31.7692   15.4455    9.8382 C   0  0  0  0  0  0  0  0  0  0  0  0
   32.3687   16.7628   10.3772 C   0  0  0  0  0  0  0  0  0  0  0  0
   32.3609   14.2832    9.3536 N   0  0  0  0  0  0  0  0  0  0  0  0
   31.4004   13.3968    8.9527 N   0  0  0  0  0  0  0  0  0  0  0  0
   30.2611   14.0098    9.2086 C   0  0  0  0  0  0  0  0  0  0  0  0
   28.5765   13.6228    9.0350 S   0  0  0  0  0  0  0  0  0  0  0  0
   28.6684   12.9607    7.4037 C   0  0  0  0  0  0  0  0  0  0  0  0
   29.8179   11.9785    7.3824 C   0  0  0  0  0  0  0  0  0  0  0  0
   30.7128   12.1261    6.4899 N   0  0  0  0  0  0  0  0  0  0  0  0
   31.6055   11.0749    6.5161 C   0  0  0  0  0  0  0  0  0  0  0  0
   31.4213    9.8412    7.3436 C   0  0  0  0  0  0  0  0  0  0  0  0
   32.4044    8.9773    7.1001 O   0  0  0  0  0  0  0  0  0  0  0  0
   33.1916    9.6625    6.1778 C   0  0  0  0  0  0  0  0  0  0  0  0
   34.3722    9.2314    5.5638 C   0  0  0  0  0  0  0  0  0  0  0  0
   35.0901   10.1567    4.5997 C   0  0  0  0  0  0  0  0  0  0  0  0
   34.7981   11.4695    4.1431 C   0  0  0  0  0  0  0  0  0  0  0  0
   33.4822   11.7134    4.9158 C   0  0  0  0  0  0  0  0  0  0  0  0
   32.7668   10.9081    5.8217 C   0  0  0  0  0  0  0  0  0  0  0  0
   30.3420    9.7111    8.2030 C   0  0  0  0  0  0  0  0  0  0  0  0
   29.8988    8.7187    8.7632 O   0  0  0  0  0  0  0  0  0  0  0  0
   29.8088   10.9771    8.3398 N   0  0  0  0  0  0  0  0  0  0  0  0
  1  2  1  0
  2  3  1  0
  3  4  1  0
  4  5  1  0
  4  6  2  0
  6  7  1  0
  7  8  2  0
  8  9  1  0
  9 10  1  0
 10 11  1  0
 11 12  2  0
 12 13  1  0
 13 14  2  0
 14 15  1  0
 15 16  1  0
 16 17  2  0
 17 18  1  0
 18 19  2  0
 19 20  1  0
 20 21  2  0
 14 22  1  0
 22 23  2  0
 22 24  1  0
  8  3  1  0
 24 11  1  0
 21 13  1  0
 21 16  1  0
A    1
 C1 
A    2
 C2 
A    3
 N1 
A    4
 C3 
A    5
 C4 
A    6
 N2 
A    7
 N3 
A    8
 C5 
A    9
 S1 
A   10
 C6 
A   11
 C7 
A   12
 N4 
A   13
 C8 
A   14
 C9 
A   15
 O1 
A   16
 C10
A   17
 C11
A   18
 C12
A   19
 C13
A   20
 C14
A   21
 C15
A   22
 C16
A   23
 O2 
A   24
 N5 
M  END
>  <ref_pdb>  (535) 
Ax0310a

>  <ref_mols>  (535) 
Ax0446a,Ax1080a,Ax0812a,Ax0719a,Ax1140a,Ax0528a,Ax0310a

>  <original SMILES>  (535) 
CCn1c(C)nnc1SCc1nc2c(oc3ccccc32)c(=O)[nH]1

>  <rationale>  (535) 
info info set:screening_whole;hbond:S87+S105+S125; hydroph_interaction:P107+Y89+Y90+V84; 

>  <experiment>  (535) 
screening_whole

>  <cluster_label>  (535) 
3

>  <cluster_rank>  (535) 
192

>  <N_interactions>  (535) 
8

>  <∆∆G>  (535) 
-4.045288

>  <comRMSD>  (535) 
0.826449

>  <ROCS_TanimotoCombo>  (535) 
0.46

>  <ROCS_ShapeTanimoto>  (535) 
0.258

>  <ROCS_ColorTanimoto>  (535) 
0.202

$$$$
EN300_39914087
     RDKit          3D

 15 16  0  0  0  0  0  0  0  0999 V2000
   30.5672   13.5345    9.1977 N   0  0  0  0  0  0  0  0  0  0  0  0
   31.8505   12.9872    8.2555 S   0  0  0  0  0  6  0  0  0  0  0  0
   32.0090   13.8811    7.2462 O   0  0  0  0  0  0  0  0  0  0  0  0
   33.0360   12.7500    9.0364 O   0  0  0  0  0  0  0  0  0  0  0  0
   31.2323   11.6266    7.3123 C   0  0  2  0  0  0  0  0  0  0  0  0
   30.6320   10.5068    8.0818 C   0  0  0  0  0  0  0  0  0  0  0  0
   31.0277    9.1725    7.9306 C   0  0  0  0  0  0  0  0  0  0  0  0
   32.0308    8.9006    6.9162 O   0  0  0  0  0  0  0  0  0  0  0  0
   32.7419    9.9395    6.3517 C   0  0  0  0  0  0  0  0  0  0  0  0
   33.8435    9.6113    5.5773 C   0  0  0  0  0  0  0  0  0  0  0  0
   34.6333   10.7219    4.9463 C   0  0  0  0  0  0  0  0  0  0  0  0
   36.1268   10.4435    3.8340 Br  0  0  0  0  0  0  0  0  0  0  0  0
   34.2552   12.0214    5.1674 C   0  0  0  0  0  0  0  0  0  0  0  0
   33.1645   12.2896    5.9343 C   0  0  0  0  0  0  0  0  0  0  0  0
   32.4109   11.2661    6.5123 C   0  0  0  0  0  0  0  0  0  0  0  0
  1  2  1  0
  2  3  2  0
  2  4  2  0
  5  2  1  1
  5  6  1  0
  6  7  1  0
  7  8  1  0
  8  9  1  0
  9 10  2  0
 10 11  1  0
 11 12  1  0
 11 13  2  0
 13 14  1  0
 14 15  2  0
 15  5  1  0
 15  9  1  0
A    1
 N1 
A    2
 S1 
A    3
 O1 
A    4
 O2 
A    5
 C1 
A    6
 C2 
A    7
 C3 
A    8
 O3 
A    9
 C4 
A   10
 C5 
A   11
 C6 
A   12
BR1 
A   13
 C7 
A   14
 C8 
A   15
 C9 
M  END
>  <ref_pdb>  (536) 
Ax0310a

>  <ref_mols>  (536) 
Ax0446a,Ax1080a,Ax0812a,Ax0719a,Ax1140a,Ax0528a,Ax0310a

>  <original SMILES>  (536) 
NS(=O)(=O)[C@@H]1CCOc2cc(Br)ccc21

>  <rationale>  (536) 
info info set:sulfonimide_whole;hbond:S87+S125+G127; 

>  <experiment>  (536) 
sulfonimide_whole

>  <cluster_label>  (536) 
3

>  <cluster_rank>  (536) 
193

>  <N_interactions>  (536) 
3

>  <∆∆G>  (536) 
-3.711236

>  <comRMSD>  (536) 
0.942503

>  <ROCS_TanimotoCombo>  (536) 
0.352

>  <ROCS_ShapeTanimoto>  (536) 
0.206

>  <ROCS_ColorTanimoto>  (536) 
0.147

$$$$
Z437581300
     RDKit          3D

 18 19  0  0  0  0  0  0  0  0999 V2000
   30.3509    8.4771    8.5467 C   0  0  0  0  0  0  0  0  0  0  0  0
   31.2609    8.4772    7.4670 O   0  0  0  0  0  0  0  0  0  0  0  0
   31.7833    9.6913    7.2501 C   0  0  0  0  0  0  0  0  0  0  0  0
   32.8073    9.7541    6.3390 C   0  0  0  0  0  0  0  0  0  0  0  0
   33.4439   11.0508    6.0604 C   0  0  0  0  0  0  0  0  0  0  0  0
   34.4721   11.2615    5.1864 O   0  0  0  0  0  0  0  0  0  0  0  0
   35.3456   12.3609    5.4357 C   0  0  0  0  0  0  0  0  0  0  0  0
   32.9726   12.1793    6.7478 C   0  0  0  0  0  0  0  0  0  0  0  0
   31.9037   12.0098    7.6730 C   0  0  0  0  0  0  0  0  0  0  0  0
   31.5232   13.2099    8.3111 C   0  0  0  0  0  0  0  0  0  0  0  0
   32.3788   13.8356    8.9330 O   0  0  0  0  0  0  0  0  0  0  0  0
   30.1987   13.5771    8.2015 N   0  0  0  0  0  0  0  0  0  0  0  0
   29.4479   12.8693    7.2701 C   0  0  0  0  0  0  0  0  0  0  0  0
   28.5540   13.7288    6.4511 C   0  0  0  0  0  0  0  0  0  0  0  0
   27.5481   14.7056    7.5225 S   0  0  0  0  0  0  0  0  0  0  0  0
   28.6575   15.3054    8.7954 C   0  0  0  0  0  0  0  0  0  0  0  0
   29.4660   14.2752    9.2652 C   0  0  0  0  0  0  0  0  0  0  0  0
   31.3049   10.7889    7.9242 C   0  0  0  0  0  0  0  0  0  0  0  0
  1  2  1  0
  2  3  1  0
  3  4  2  0
  4  5  1  0
  5  6  1  0
  6  7  1  0
  5  8  2  0
  8  9  1  0
  9 10  1  0
 10 11  2  0
 10 12  1  0
 12 13  1  0
 13 14  1  0
 14 15  1  0
 15 16  1  0
 16 17  1  0
  9 18  2  0
 18  3  1  0
 17 12  1  0
A    1
 C1 
A    2
 O1 
A    3
 C2 
A    4
 C3 
A    5
 C4 
A    6
 O2 
A    7
 C5 
A    8
 C6 
A    9
 C7 
A   10
 C8 
A   11
 O3 
A   12
 N1 
A   13
 C9 
A   14
 C10
A   15
 S1 
A   16
 C11
A   17
 C12
A   18
 C13
M  END
>  <ref_pdb>  (537) 
Ax0310a

>  <ref_mols>  (537) 
Ax0446a,Ax1080a,Ax0812a,Ax0719a,Ax1140a,Ax0528a,Ax0310a

>  <original SMILES>  (537) 
COc1cc(OC)cc(C(=O)N2CCSCC2)c1

>  <rationale>  (537) 
info info set:3d;hbond:S87+G127; 

>  <experiment>  (537) 
3d

>  <cluster_label>  (537) 
3

>  <cluster_rank>  (537) 
194

>  <N_interactions>  (537) 
2

>  <∆∆G>  (537) 
-9.727396

>  <comRMSD>  (537) 
0.629721

>  <ROCS_TanimotoCombo>  (537) 
0.334

>  <ROCS_ShapeTanimoto>  (537) 
0.229

>  <ROCS_ColorTanimoto>  (537) 
0.105

$$$$
EN300_205349
     RDKit          3D

 15 15  0  0  0  0  0  0  0  0999 V2000
   34.2675    9.6162    2.6349 C   0  0  0  0  0  0  0  0  0  0  0  0
   35.0590    9.9984    3.8829 C   0  0  0  0  0  0  0  0  0  0  0  0
   34.5781    9.2166    4.9879 N   0  0  0  0  0  0  0  0  0  0  0  0
   33.4959    9.6929    5.6995 C   0  0  0  0  0  0  0  0  0  0  0  0
   33.0927   10.9442    5.6509 N   0  0  0  0  0  0  0  0  0  0  0  0
   32.0352   11.1616    6.4144 C   0  0  0  0  0  0  0  0  0  0  0  0
   31.4249   12.7528    6.4325 Cl  0  0  0  0  0  0  0  0  0  0  0  0
   31.3851   10.3003    7.1669 N   0  0  0  0  0  0  0  0  0  0  0  0
   31.8961    9.0891    7.1183 C   0  0  0  0  0  0  0  0  0  0  0  0
   31.3135    8.1001    7.8457 N   0  0  0  0  0  0  0  0  0  0  0  0
   30.4381    8.4183    8.8860 C   0  0  0  0  0  0  0  0  0  0  0  0
   29.1691    7.7338    8.7179 C   0  0  0  0  0  0  0  0  0  0  0  0
   30.5901    7.6867   10.1655 C   0  0  0  0  0  0  0  0  0  0  0  0
   30.1677    9.8587    8.8638 C   0  0  0  0  0  0  0  0  0  0  0  0
   32.9238    8.7690    6.4180 N   0  0  0  0  0  0  0  0  0  0  0  0
  1  2  1  0
  2  3  1  0
  3  4  1  0
  4  5  2  0
  5  6  1  0
  6  7  1  0
  6  8  2  0
  8  9  1  0
  9 10  1  0
 10 11  1  0
 11 12  1  0
 11 13  1  0
 11 14  1  0
  9 15  2  0
 15  4  1  0
A    1
 C1 
A    2
 C2 
A    3
 N1 
A    4
 C3 
A    5
 N2 
A    6
 C4 
A    7
CL1 
A    8
 N3 
A    9
 C5 
A   10
 N4 
A   11
 C6 
A   12
 C7 
A   13
 C8 
A   14
 C9 
A   15
 N5 
M  END
>  <ref_pdb>  (538) 
Ax0310a

>  <ref_mols>  (538) 
Ax0446a,Ax1080a,Ax0812a,Ax0719a,Ax1140a,Ax0528a,Ax0310a

>  <original SMILES>  (538) 
CCNc1nc(Cl)nc(NC(C)(C)C)n1

>  <rationale>  (538) 
info info set:bb_densepocket2;hbond:S105; hydroph_interaction:V124+D109; 

>  <experiment>  (538) 
bb_densepocket2

>  <cluster_label>  (538) 
3

>  <cluster_rank>  (538) 
195

>  <N_interactions>  (538) 
4

>  <∆∆G>  (538) 
-2.63034

>  <comRMSD>  (538) 
0.830964

>  <ROCS_TanimotoCombo>  (538) 
0.644

>  <ROCS_ShapeTanimoto>  (538) 
0.23

>  <ROCS_ColorTanimoto>  (538) 
0.414

$$$$
EN300_736626
     RDKit          3D

 15 16  0  0  0  0  0  0  0  0999 V2000
   30.6524    8.1114    8.8067 C   0  0  0  0  0  0  0  0  0  0  0  0
   31.0934    9.1490    8.1286 N   0  0  0  0  0  0  0  0  0  0  0  0
   30.5810   10.2778    8.4216 C   0  0  0  0  0  0  0  0  0  0  0  0
   31.0328   11.4999    7.7041 C   0  0  0  0  0  0  0  0  0  0  0  0
   30.6400   13.1313    7.7744 S   0  0  0  0  0  6  0  0  0  0  0  0
   29.3582   13.3656    8.8312 N   0  0  0  0  0  0  0  0  0  0  0  0
   30.1201   13.4248    6.4605 O   0  0  0  0  0  0  0  0  0  0  0  0
   31.8192   13.7638    8.3302 O   0  0  0  0  0  0  0  0  0  0  0  0
   32.0269   10.5712    6.8638 C   0  0  0  0  0  0  0  0  0  0  0  0
   32.9119   11.1848    5.8083 C   0  0  0  0  0  0  0  0  0  0  0  0
   33.8891   10.1381    5.2777 C   0  0  0  0  0  0  0  0  0  0  0  0
   35.0221   10.7871    4.8521 C   0  0  0  0  0  0  0  0  0  0  0  0
   35.0319   12.0416    5.4186 C   0  0  0  0  0  0  0  0  0  0  0  0
   33.8235   12.3783    6.1857 C   0  0  0  0  0  0  0  0  0  0  0  0
   32.0098    9.2480    7.1538 N   0  0  0  0  0  0  0  0  0  0  0  0
  1  2  1  0
  2  3  1  0
  3  4  2  0
  4  5  1  0
  5  6  1  0
  5  7  2  0
  5  8  2  0
  4  9  1  0
  9 10  1  0
 10 11  1  0
 11 12  1  0
 12 13  1  0
 13 14  1  0
  9 15  2  0
 15  2  1  0
 14 10  1  0
A    1
 C1 
A    2
 N1 
A    3
 C2 
A    4
 C3 
A    5
 S1 
A    6
 N2 
A    7
 O1 
A    8
 O2 
A    9
 C4 
A   10
 C5 
A   11
 C6 
A   12
 C7 
A   13
 C8 
A   14
 C9 
A   15
 N3 
M  END
>  <ref_pdb>  (539) 
Ax0310a

>  <ref_mols>  (539) 
Ax0446a,Ax1080a,Ax0812a,Ax0719a,Ax1140a,Ax0528a,Ax0310a

>  <original SMILES>  (539) 
Cn1cc(S(N)(=O)=O)c(C2CCCC2)n1

>  <rationale>  (539) 
info info set:sulfonimide_whole;hbond:S87+S125; hydroph_interaction:P107; 

>  <experiment>  (539) 
sulfonimide_whole

>  <cluster_label>  (539) 
3

>  <cluster_rank>  (539) 
196

>  <N_interactions>  (539) 
3

>  <∆∆G>  (539) 
-6.838006

>  <comRMSD>  (539) 
0.569274

>  <ROCS_TanimotoCombo>  (539) 
0.352

>  <ROCS_ShapeTanimoto>  (539) 
0.211

>  <ROCS_ColorTanimoto>  (539) 
0.141

$$$$
Z91906008
     RDKit          3D

 29 33  0  0  0  0  0  0  0  0999 V2000
   29.8372    8.8192    8.8477 O   0  0  0  0  0  0  0  0  0  0  0  0
   30.2156    9.8490    8.2948 C   0  0  0  0  0  0  0  0  0  0  0  0
   29.6483   11.1110    8.4202 N   0  0  0  0  0  0  0  0  0  0  0  0
   29.5504   12.1708    7.5069 C   0  0  0  0  0  0  0  0  0  0  0  0
   28.4638   13.0933    7.5111 C   0  0  0  0  0  0  0  0  0  0  0  0
   28.4475   14.1518    8.9734 S   0  0  0  0  0  0  0  0  0  0  0  0
   30.1654   14.1552    9.1214 C   0  0  0  0  0  0  0  0  0  0  0  0
   30.8986   13.6419    8.1415 N   0  0  0  0  0  0  0  0  0  0  0  0
   32.2297   13.6906    8.3966 N   0  0  0  0  0  0  0  0  0  0  0  0
   32.4828   14.2327    9.5393 C   0  0  0  0  0  0  0  0  0  0  0  0
   33.6689   14.4147   10.0766 N   0  0  0  0  0  0  0  0  0  0  0  0
   34.9967   14.0300    9.7097 C   0  0  0  0  0  0  0  0  0  0  0  0
   36.0872   13.5553   10.6804 C   0  0  0  0  0  0  0  0  0  0  0  0
   37.4243   13.2517   10.1680 C   0  0  0  0  0  0  0  0  0  0  0  0
   37.9046   13.3258    8.6855 C   0  0  0  0  0  0  0  0  0  0  0  0
   36.6491   13.7860    7.8744 C   0  0  0  0  0  0  0  0  0  0  0  0
   35.4017   14.0820    8.4225 C   0  0  0  0  0  0  0  0  0  0  0  0
   34.5412   14.4690    7.4628 F   0  0  0  0  0  0  0  0  0  0  0  0
   31.0665   14.7489   10.4077 S   0  0  0  0  0  0  0  0  0  0  0  0
   30.4691   12.3145    6.5987 N   0  0  0  0  0  0  0  0  0  0  0  0
   31.4120   11.2639    6.5960 C   0  0  0  0  0  0  0  0  0  0  0  0
   31.2781   10.0119    7.4229 C   0  0  0  0  0  0  0  0  0  0  0  0
   32.2786    9.1549    7.1708 O   0  0  0  0  0  0  0  0  0  0  0  0
   33.0532    9.8258    6.2360 C   0  0  0  0  0  0  0  0  0  0  0  0
   34.3233    9.2928    5.5968 C   0  0  0  0  0  0  0  0  0  0  0  0
   34.9900   10.1064    4.6936 C   0  0  0  0  0  0  0  0  0  0  0  0
   34.4765   11.3645    4.3997 C   0  0  0  0  0  0  0  0  0  0  0  0
   33.2976   11.8694    4.9645 C   0  0  0  0  0  0  0  0  0  0  0  0
   32.5806   11.1020    5.8812 C   0  0  0  0  0  0  0  0  0  0  0  0
  1  2  2  0
  2  3  1  0
  3  4  1  0
  4  5  1  0
  5  6  1  0
  6  7  1  0
  7  8  2  0
  8  9  1  0
  9 10  2  0
 10 11  1  0
 11 12  1  0
 12 13  2  0
 13 14  1  0
 14 15  2  0
 15 16  1  0
 16 17  2  0
 17 18  1  0
 10 19  1  0
  4 20  2  0
 20 21  1  0
 21 22  2  0
 22 23  1  0
 23 24  1  0
 24 25  2  0
 25 26  1  0
 26 27  2  0
 27 28  1  0
 28 29  2  0
 22  2  1  0
 29 24  1  0
 19  7  1  0
 29 21  1  0
 17 12  1  0
A    1
 O1 
A    2
 C1 
A    3
 N1 
A    4
 C2 
A    5
 C3 
A    6
 S1 
A    7
 C4 
A    8
 N2 
A    9
 N3 
A   10
 C5 
A   11
 N4 
A   12
 C6 
A   13
 C7 
A   14
 C8 
A   15
 C9 
A   16
 C10
A   17
 C11
A   18
 F1 
A   19
 S2 
A   20
 N5 
A   21
 C12
A   22
 C13
A   23
 O2 
A   24
 C14
A   25
 C15
A   26
 C16
A   27
 C17
A   28
 C18
A   29
 C19
M  END
>  <ref_pdb>  (540) 
Ax0310a

>  <ref_mols>  (540) 
Ax0446a,Ax1080a,Ax0812a,Ax0719a,Ax1140a,Ax0528a,Ax0310a

>  <original SMILES>  (540) 
O=c1[nH]c(CSc2nnc(Nc3ccccc3F)s2)nc2c1oc1ccccc12

>  <rationale>  (540) 
info info set:screening_whole;hbond:S87+S105+G127; hydroph_interaction:P107+V84+E85; 

>  <experiment>  (540) 
screening_whole

>  <cluster_label>  (540) 
3

>  <cluster_rank>  (540) 
197

>  <N_interactions>  (540) 
7

>  <∆∆G>  (540) 
-3.330722

>  <comRMSD>  (540) 
0.942687

>  <ROCS_TanimotoCombo>  (540) 
0.461

>  <ROCS_ShapeTanimoto>  (540) 
0.271

>  <ROCS_ColorTanimoto>  (540) 
0.19

$$$$
EN300_6510878
     RDKit          3D

 14 14  0  0  0  0  0  0  0  0999 V2000
   27.9777   12.7969    7.1019 C   0  0  0  0  0  0  0  0  0  0  0  0
   29.0157   13.1467    8.1329 C   0  0  0  0  0  0  0  0  0  0  0  0
   30.3077   12.5995    7.7369 O   0  0  0  0  0  0  0  0  0  0  0  0
   30.5004   11.2974    8.0533 C   0  0  0  0  0  0  0  0  0  0  0  0
   29.9565   10.6663    8.8914 O   0  0  0  0  0  0  0  0  0  0  0  0
   31.5451   10.6057    7.2090 C   0  0  0  0  0  0  0  0  0  0  0  0
   32.1677   11.6390    6.2790 C   0  0  0  0  0  0  0  0  0  0  0  0
   33.2598   11.0909    5.3390 C   0  0  0  0  0  0  0  0  0  0  0  0
   33.4443    9.6119    5.5791 C   0  0  0  0  0  0  0  0  0  0  0  0
   34.4974    9.0938    4.6547 C   0  0  0  0  0  0  0  0  0  0  0  0
   32.8241    8.8079    6.4465 N   0  0  0  0  0  0  0  0  0  0  0  0
   31.8871    9.2678    7.2626 C   0  0  0  0  0  0  0  0  0  0  0  0
   31.3200    8.3256    8.1427 N   0  0  0  0  0  0  0  0  0  0  0  0
   29.9522    8.4653    8.5580 C   0  0  0  0  0  0  0  0  0  0  0  0
  1  2  1  0
  2  3  1  0
  3  4  1  0
  4  5  2  0
  4  6  1  0
  6  7  2  0
  7  8  1  0
  8  9  2  0
  9 10  1  0
  9 11  1  0
 11 12  2  0
 12 13  1  0
 13 14  1  0
 12  6  1  0
A    1
 C1 
A    2
 C2 
A    3
 O1 
A    4
 C3 
A    5
 O2 
A    6
 C4 
A    7
 C5 
A    8
 C6 
A    9
 C7 
A   10
 C8 
A   11
 N1 
A   12
 C9 
A   13
 N2 
A   14
 C10
M  END
>  <ref_pdb>  (541) 
Ax0310a

>  <ref_mols>  (541) 
Ax0446a,Ax1080a,Ax0812a,Ax0719a,Ax1140a,Ax0528a,Ax0310a

>  <original SMILES>  (541) 
CCOC(=O)c1ccc(C)nc1NC

>  <rationale>  (541) 
info info set:bb_densepocket2;hbond:S105; hydroph_interaction:P107; 

>  <experiment>  (541) 
bb_densepocket2

>  <cluster_label>  (541) 
3

>  <cluster_rank>  (541) 
198

>  <N_interactions>  (541) 
3

>  <∆∆G>  (541) 
-6.369232

>  <comRMSD>  (541) 
0.854135

>  <ROCS_TanimotoCombo>  (541) 
0.657

>  <ROCS_ShapeTanimoto>  (541) 
0.242

>  <ROCS_ColorTanimoto>  (541) 
0.416

$$$$
EN300_801639
     RDKit          3D

 17 18  0  0  0  0  0  0  0  0999 V2000
   30.2384    9.2819    9.5833 C   0  0  0  0  0  0  0  0  0  0  0  0
   30.2101    8.8866    8.2905 C   0  0  0  0  0  0  0  0  0  0  0  0
   30.5955    7.5654    8.4782 C   0  0  0  0  0  0  0  0  0  0  0  0
   28.7571    8.9660    8.2594 C   0  0  0  0  0  0  0  0  0  0  0  0
   31.1881    9.7386    7.4893 C   0  0  0  0  0  0  0  0  0  0  0  0
   32.1260    9.0074    6.8081 N   0  0  0  0  0  0  0  0  0  0  0  0
   33.0940    9.6928    6.0031 C   0  0  0  0  0  0  0  0  0  0  0  0
   34.1986    9.0523    5.1555 C   0  0  0  0  0  0  0  0  0  0  0  0
   35.1325    9.9308    4.3718 C   0  0  0  0  0  0  0  0  0  0  0  0
   35.1232   11.3953    4.3131 C   0  0  0  0  0  0  0  0  0  0  0  0
   36.0668   11.9877    3.5387 F   0  0  0  0  0  0  0  0  0  0  0  0
   34.0040   11.9910    5.1736 C   0  0  0  0  0  0  0  0  0  0  0  0
   33.0903   11.2268    5.9307 C   0  0  0  0  0  0  0  0  0  0  0  0
   32.0923   11.8485    6.6866 C   0  0  0  0  0  0  0  0  0  0  0  0
   31.1427   11.1468    7.4591 C   0  0  0  0  0  0  0  0  0  0  0  0
   30.1626   11.8733    8.1862 N   0  0  0  0  0  0  0  0  0  0  0  0
   29.9216   13.2272    7.9323 N   0  0  0  0  0  0  0  0  0  0  0  0
  1  2  1  0
  2  3  1  0
  2  4  1  0
  2  5  1  0
  5  6  2  0
  6  7  1  0
  7  8  2  0
  8  9  1  0
  9 10  2  0
 10 11  1  0
 10 12  1  0
 12 13  2  0
 13 14  1  0
 14 15  2  0
 15 16  1  0
 16 17  1  0
 15  5  1  0
 13  7  1  0
A    1
 C1 
A    2
 C2 
A    3
 C3 
A    4
 C4 
A    5
 C5 
A    6
 N1 
A    7
 C6 
A    8
 C7 
A    9
 C8 
A   10
 C9 
A   11
 F1 
A   12
 C10
A   13
 C11
A   14
 C12
A   15
 C13
A   16
 N2 
A   17
 N3 
M  END
>  <ref_pdb>  (542) 
Ax0310a

>  <ref_mols>  (542) 
Ax0446a,Ax1080a,Ax0812a,Ax0719a,Ax1140a,Ax0528a,Ax0310a

>  <original SMILES>  (542) 
CC(C)(C)c1nc2ccc(F)cc2cc1NN

>  <rationale>  (542) 
info info set:bb_densepocket2;hbond:S125; hydroph_interaction:D109; 

>  <experiment>  (542) 
bb_densepocket2

>  <cluster_label>  (542) 
3

>  <cluster_rank>  (542) 
199

>  <N_interactions>  (542) 
3

>  <∆∆G>  (542) 
-5.150938

>  <comRMSD>  (542) 
0.585934

>  <ROCS_TanimotoCombo>  (542) 
0.623

>  <ROCS_ShapeTanimoto>  (542) 
0.287

>  <ROCS_ColorTanimoto>  (542) 
0.336

$$$$
Z396116038
     RDKit          3D

 16 17  0  0  0  0  0  0  0  0999 V2000
   33.7220    9.1750    5.4833 C   0  0  0  0  0  0  0  0  0  0  0  0
   32.7243    9.5045    6.3355 N   0  0  0  0  0  0  0  0  0  0  0  0
   32.1921   10.7721    6.4800 C   0  0  0  0  0  0  0  0  0  0  0  0
   31.1409   10.7941    7.5214 C   0  0  0  0  0  0  0  0  0  0  0  0
   30.3795   11.8279    7.9801 N   0  0  0  0  0  0  0  0  0  0  0  0
   30.0801   12.9738    7.2496 C   0  0  0  0  0  0  0  0  0  0  0  0
   30.0723   13.0692    6.0231 O   0  0  0  0  0  0  0  0  0  0  0  0
   29.7377   14.1142    8.1918 C   0  0  0  0  0  0  0  0  0  0  0  0
   30.7904   14.7003    9.1100 C   0  0  0  0  0  0  0  0  0  0  0  0
   31.7683   15.2547    9.8584 N   0  0  0  0  0  0  0  0  0  0  0  0
   28.8745   13.4005    9.1314 C   0  0  0  0  0  0  0  0  0  0  0  0
   27.5477   13.8264    8.7758 C   0  0  0  0  0  0  0  0  0  0  0  0
   27.5680   15.0235    8.1773 C   0  0  0  0  0  0  0  0  0  0  0  0
   28.7944   15.1977    7.5949 C   0  0  0  0  0  0  0  0  0  0  0  0
   31.1726    9.4145    7.8915 C   0  0  0  0  0  0  0  0  0  0  0  0
   32.0927    8.6622    7.1983 N   0  0  0  0  0  0  0  0  0  0  0  0
  1  2  1  0
  2  3  1  0
  3  4  2  0
  4  5  1  0
  5  6  1  0
  6  7  2  0
  6  8  1  0
  8  9  1  0
  9 10  3  0
  8 11  1  0
 11 12  1  0
 12 13  1  0
 13 14  1  0
  4 15  1  0
 15 16  2  0
 16  2  1  0
 14  8  1  0
A    1
 C1 
A    2
 N1 
A    3
 C2 
A    4
 C3 
A    5
 N2 
A    6
 C4 
A    7
 O1 
A    8
 C5 
A    9
 C6 
A   10
 N3 
A   11
 C7 
A   12
 C8 
A   13
 C9 
A   14
 C10
A   15
 C11
A   16
 N4 
M  END
>  <ref_pdb>  (543) 
Ax0310a

>  <ref_mols>  (543) 
Ax0446a,Ax1080a,Ax0812a,Ax0719a,Ax1140a,Ax0528a,Ax0310a

>  <original SMILES>  (543) 
Cn1cc(NC(=O)C2(C#N)CCCC2)cn1

>  <rationale>  (543) 
info info set:3d;hbond:S87+S125; hydroph_interaction:Y89; 

>  <experiment>  (543) 
3d

>  <cluster_label>  (543) 
3

>  <cluster_rank>  (543) 
200

>  <N_interactions>  (543) 
3

>  <∆∆G>  (543) 
-3.772311

>  <comRMSD>  (543) 
0.781448

>  <ROCS_TanimotoCombo>  (543) 
0.339

>  <ROCS_ShapeTanimoto>  (543) 
0.176

>  <ROCS_ColorTanimoto>  (543) 
0.163

$$$$
EN300_1616514
     RDKit          3D

 10 10  0  0  0  0  0  0  0  0999 V2000
   29.3993    7.9505    8.5815 C   0  0  0  0  0  0  0  0  0  0  0  0
   30.8459    8.0836    8.6288 C   0  0  0  0  0  0  0  0  0  0  0  0
   30.7730    9.5002    8.5064 C   0  0  0  0  0  0  0  0  0  0  0  0
   31.6031   10.0338    7.4333 C   0  0  0  0  0  0  0  0  0  0  0  0
   32.3840    9.1140    6.8063 N   0  0  0  0  0  0  0  0  0  0  0  0
   33.1369    9.5644    5.8040 C   0  0  0  0  0  0  0  0  0  0  0  0
   33.1206   11.0365    5.3891 C   0  0  0  0  0  0  0  0  0  0  0  0
   32.2249   11.9160    6.1733 C   0  0  0  0  0  0  0  0  0  0  0  0
   31.4729   11.3805    7.1996 C   0  0  0  0  0  0  0  0  0  0  0  0
   30.6071   12.2013    7.9606 N   0  0  0  0  0  0  0  0  0  0  0  0
  1  2  1  0
  2  3  1  0
  3  4  1  0
  4  5  2  0
  5  6  1  0
  6  7  2  0
  7  8  1  0
  8  9  2  0
  9 10  1  0
  9  4  1  0
A    1
 C1 
A    2
 C2 
A    3
 C3 
A    4
 C4 
A    5
 N1 
A    6
 C5 
A    7
 C6 
A    8
 C7 
A    9
 C8 
A   10
 N2 
M  END
>  <ref_pdb>  (544) 
Ax0310a

>  <ref_mols>  (544) 
Ax0446a,Ax1080a,Ax0812a,Ax0719a,Ax1140a,Ax0528a,Ax0310a

>  <original SMILES>  (544) 
CCCc1ncccc1N

>  <rationale>  (544) 
info info set:bb_densepocket2;hbond:S125; hydroph_interaction:P107+V124+D109; 

>  <experiment>  (544) 
bb_densepocket2

>  <cluster_label>  (544) 
3

>  <cluster_rank>  (544) 
201

>  <N_interactions>  (544) 
4

>  <∆∆G>  (544) 
-3.849925

>  <comRMSD>  (544) 
0.878227

>  <ROCS_TanimotoCombo>  (544) 
0.633

>  <ROCS_ShapeTanimoto>  (544) 
0.178

>  <ROCS_ColorTanimoto>  (544) 
0.455

$$$$
Z31266397
     RDKit          3D

 26 28  0  0  0  0  0  0  0  0999 V2000
   37.7710   13.0972    5.2313 C   0  0  0  0  0  0  0  0  0  0  0  0
   36.4697   12.9364    4.6556 O   0  0  0  0  0  0  0  0  0  0  0  0
   36.0849   11.5713    4.4572 C   0  0  0  0  0  0  0  0  0  0  0  0
   36.6434   10.7013    3.8093 O   0  0  0  0  0  0  0  0  0  0  0  0
   34.8249   11.0844    5.1808 C   0  0  0  0  0  0  0  0  0  0  0  0
   34.3151    9.4706    5.4161 S   0  0  0  0  0  0  0  0  0  0  0  0
   32.9742   10.0008    6.3436 C   0  0  0  0  0  0  0  0  0  0  0  0
   32.0881    9.0498    6.9539 N   0  0  0  0  0  0  0  0  0  0  0  0
   31.0461    9.6136    7.6776 C   0  0  0  0  0  0  0  0  0  0  0  0
   29.9950    8.7575    8.4494 C   0  0  0  0  0  0  0  0  0  0  0  0
   30.8560   10.9297    7.7794 N   0  0  0  0  0  0  0  0  0  0  0  0
   31.7138   11.7895    7.1923 C   0  0  0  0  0  0  0  0  0  0  0  0
   31.4745   13.1607    7.3375 O   0  0  0  0  0  0  0  0  0  0  0  0
   30.1824   13.5024    7.5701 C   0  0  0  0  0  0  0  0  0  0  0  0
   29.1675   13.0537    6.7562 C   0  0  0  0  0  0  0  0  0  0  0  0
   27.7497   13.4627    7.0230 C   0  0  0  0  0  0  0  0  0  0  0  0
   26.7650   13.0231    6.2245 F   0  0  0  0  0  0  0  0  0  0  0  0
   27.4657   14.2870    8.0802 C   0  0  0  0  0  0  0  0  0  0  0  0
   28.5077   14.7080    8.8830 C   0  0  0  0  0  0  0  0  0  0  0  0
   29.8436   14.3301    8.6401 C   0  0  0  0  0  0  0  0  0  0  0  0
   30.8960   14.8226    9.5226 N   0  0  0  0  0  4  0  0  0  0  0  0
   32.0492   14.5084    9.2018 O   0  0  0  0  0  0  0  0  0  0  0  0
   30.6352   15.7972   10.2290 O   0  0  0  0  0  1  0  0  0  0  0  0
   32.8213   11.3775    6.4649 C   0  0  0  0  0  0  0  0  0  0  0  0
   33.8450   12.0076    5.8193 C   0  0  0  0  0  0  0  0  0  0  0  0
   33.9379   13.5040    5.8068 C   0  0  0  0  0  0  0  0  0  0  0  0
  1  2  1  0
  2  3  1  0
  3  4  2  0
  3  5  1  0
  5  6  1  0
  6  7  1  0
  7  8  2  0
  8  9  1  0
  9 10  1  0
  9 11  2  0
 11 12  1  0
 12 13  1  0
 13 14  1  0
 14 15  2  0
 15 16  1  0
 16 17  1  0
 16 18  2  0
 18 19  1  0
 19 20  2  0
 20 21  1  0
 21 22  2  0
 21 23  1  0
 12 24  2  0
 24 25  1  0
 25 26  1  0
 25  5  2  0
 24  7  1  0
 20 14  1  0
M  CHG  2  21   1  23  -1
A    1
 C1 
A    2
 O1 
A    3
 C2 
A    4
 O2 
A    5
 C3 
A    6
 S1 
A    7
 C4 
A    8
 N1 
A    9
 C5 
A   10
 C6 
A   11
 N2 
A   12
 C7 
A   13
 O3 
A   14
 C8 
A   15
 C9 
A   16
 C10
A   17
 F1 
A   18
 C11
A   19
 C12
A   20
 C13
A   21
 N3 
A   22
 O4 
A   23
 O5 
A   24
 C14
A   25
 C15
A   26
 C16
M  END
>  <ref_pdb>  (545) 
Ax0310a

>  <ref_mols>  (545) 
Ax0446a,Ax1080a,Ax0812a,Ax0719a,Ax1140a,Ax0528a,Ax0310a

>  <original SMILES>  (545) 
COC(=O)c1sc2nc(C)nc(Oc3cc(F)ccc3[N+](=O)[O-])c2c1C

>  <rationale>  (545) 
info info set:screening_whole;hydroph_interaction:P107+Y89+Y90+V124; 

>  <experiment>  (545) 
screening_whole

>  <cluster_label>  (545) 
3

>  <cluster_rank>  (545) 
202

>  <N_interactions>  (545) 
4

>  <∆∆G>  (545) 
-8.412294

>  <comRMSD>  (545) 
0.495721

>  <ROCS_TanimotoCombo>  (545) 
0.468

>  <ROCS_ShapeTanimoto>  (545) 
0.267

>  <ROCS_ColorTanimoto>  (545) 
0.201

$$$$
EN300_755291
     RDKit          3D

 14 15  0  0  0  0  0  0  0  0999 V2000
   29.0292   13.1243    8.8812 N   0  0  0  0  0  0  0  0  0  0  0  0
   30.4453   13.3270    8.0334 S   0  0  0  0  0  6  0  0  0  0  0  0
   31.3472   14.0850    8.8798 O   0  0  0  0  0  0  0  0  0  0  0  0
   29.9330   13.8072    6.7775 O   0  0  0  0  0  0  0  0  0  0  0  0
   31.1302   11.7045    7.6991 C   0  0  0  0  0  0  0  0  0  0  0  0
   30.6573   10.4197    8.3587 C   0  0  0  0  0  0  0  0  0  0  0  0
   31.4358    9.4380    7.7949 N   0  0  0  0  0  0  0  0  0  0  0  0
   32.3224    9.9952    6.8626 C   0  0  0  0  0  0  0  0  0  0  0  0
   33.2581    9.3618    6.0664 C   0  0  0  0  0  0  0  0  0  0  0  0
   34.0600   10.0700    5.1863 C   0  0  0  0  0  0  0  0  0  0  0  0
   35.2991    9.1741    4.0816 Br  0  0  0  0  0  0  0  0  0  0  0  0
   33.9274   11.4434    5.1237 C   0  0  0  0  0  0  0  0  0  0  0  0
   32.9885   12.0981    5.9188 C   0  0  0  0  0  0  0  0  0  0  0  0
   32.1494   11.3849    6.8081 C   0  0  0  0  0  0  0  0  0  0  0  0
  1  2  1  0
  2  3  2  0
  2  4  2  0
  2  5  1  0
  5  6  2  0
  6  7  1  0
  7  8  1  0
  8  9  2  0
  9 10  1  0
 10 11  1  0
 10 12  2  0
 12 13  1  0
 13 14  2  0
 14  5  1  0
 14  8  1  0
A    1
 N1 
A    2
 S1 
A    3
 O1 
A    4
 O2 
A    5
 C1 
A    6
 C2 
A    7
 N2 
A    8
 C3 
A    9
 C4 
A   10
 C5 
A   11
BR1 
A   12
 C6 
A   13
 C7 
A   14
 C8 
M  END
>  <ref_pdb>  (546) 
Ax0310a

>  <ref_mols>  (546) 
Ax0446a,Ax1080a,Ax0812a,Ax0719a,Ax1140a,Ax0528a,Ax0310a

>  <original SMILES>  (546) 
NS(=O)(=O)c1c[nH]c2cc(Br)ccc12

>  <rationale>  (546) 
info info set:sulfonimide_whole;hbond:S87+S125; 

>  <experiment>  (546) 
sulfonimide_whole

>  <cluster_label>  (546) 
3

>  <cluster_rank>  (546) 
203

>  <N_interactions>  (546) 
2

>  <∆∆G>  (546) 
-6.123354

>  <comRMSD>  (546) 
0.664297

>  <ROCS_TanimotoCombo>  (546) 
0.351

>  <ROCS_ShapeTanimoto>  (546) 
0.19

>  <ROCS_ColorTanimoto>  (546) 
0.161

$$$$
EN300_30867146
     RDKit          3D

 13 13  0  0  0  0  0  0  0  0999 V2000
   29.7322    8.1848    8.4757 C   0  0  0  0  0  0  0  0  0  0  0  0
   31.1138    8.7126    8.5731 C   0  0  0  0  0  0  0  0  0  0  0  0
   31.8076    9.4021    7.3966 C   0  0  0  0  0  0  0  0  0  0  0  0
   32.7059    8.7622    6.6538 N   0  0  0  0  0  0  0  0  0  0  0  0
   33.3429    9.4136    5.6512 C   0  0  0  0  0  0  0  0  0  0  0  0
   34.2704    8.7225    4.8868 N   0  0  0  0  0  0  0  0  0  0  0  0
   33.0545   10.9177    5.3384 C   0  0  0  0  0  0  0  0  0  0  0  0
   32.1106   11.6537    6.0736 C   0  0  0  0  0  0  0  0  0  0  0  0
   31.4506   10.8410    7.1539 C   0  0  0  0  0  0  0  0  0  0  0  0
   30.4144   11.4908    8.0044 C   0  0  0  0  0  0  0  0  0  0  0  0
   29.9094   10.8577    8.8499 O   0  0  0  0  0  0  0  0  0  0  0  0
   30.1651   12.7743    7.6553 O   0  0  0  0  0  0  0  0  0  0  0  0
   28.8838   13.2348    8.0897 C   0  0  0  0  0  0  0  0  0  0  0  0
  1  2  1  0
  2  3  1  0
  3  4  2  0
  4  5  1  0
  5  6  1  0
  5  7  2  0
  7  8  1  0
  8  9  2  0
  9 10  1  0
 10 11  2  0
 10 12  1  0
 12 13  1  0
  9  3  1  0
A    1
 C1 
A    2
 C2 
A    3
 C3 
A    4
 N1 
A    5
 C4 
A    6
 N2 
A    7
 C5 
A    8
 C6 
A    9
 C7 
A   10
 C8 
A   11
 O1 
A   12
 O2 
A   13
 C9 
M  END
>  <ref_pdb>  (547) 
Ax0310a

>  <ref_mols>  (547) 
Ax0446a,Ax1080a,Ax0812a,Ax0719a,Ax1140a,Ax0528a,Ax0310a

>  <original SMILES>  (547) 
CCc1nc(N)ccc1C(=O)OC

>  <rationale>  (547) 
info info set:bb_densepocket2;hbond:S105; hydroph_interaction:P107+V124; 

>  <experiment>  (547) 
bb_densepocket2

>  <cluster_label>  (547) 
3

>  <cluster_rank>  (547) 
204

>  <N_interactions>  (547) 
3

>  <∆∆G>  (547) 
-4.357665

>  <comRMSD>  (547) 
0.508491

>  <ROCS_TanimotoCombo>  (547) 
0.683

>  <ROCS_ShapeTanimoto>  (547) 
0.243

>  <ROCS_ColorTanimoto>  (547) 
0.44

$$$$
EN300_1622605
     RDKit          3D

 11 11  0  0  0  0  0  0  0  0999 V2000
   29.4640    7.9692    8.5744 C   0  0  0  0  0  0  0  0  0  0  0  0
   30.9386    8.0699    8.5505 C   0  0  0  0  0  0  0  0  0  0  0  0
   30.6650    9.5067    8.6025 C   0  0  0  0  0  0  0  0  0  0  0  0
   31.5180    9.9521    7.4946 C   0  0  0  0  0  0  0  0  0  0  0  0
   32.2935    9.0240    6.8662 N   0  0  0  0  0  0  0  0  0  0  0  0
   33.0028    9.4829    5.8369 C   0  0  0  0  0  0  0  0  0  0  0  0
   32.9607   10.9842    5.3634 C   0  0  0  0  0  0  0  0  0  0  0  0
   33.6717   11.3794    4.3110 F   0  0  0  0  0  0  0  0  0  0  0  0
   32.1105   11.9860    6.0989 C   0  0  0  0  0  0  0  0  0  0  0  0
   31.3131   11.4765    7.2589 C   0  0  0  0  0  0  0  0  0  0  0  0
   30.4640   12.2892    8.0388 N   0  0  0  0  0  0  0  0  0  0  0  0
  1  2  1  0
  2  3  1  0
  3  4  1  0
  4  5  2  0
  5  6  1  0
  6  7  2  0
  7  8  1  0
  7  9  1  0
  9 10  2  0
 10 11  1  0
 10  4  1  0
A    1
 C1 
A    2
 C2 
A    3
 C3 
A    4
 C4 
A    5
 N1 
A    6
 C5 
A    7
 C6 
A    8
 F1 
A    9
 C7 
A   10
 C8 
A   11
 N2 
M  END
>  <ref_pdb>  (548) 
Ax0310a

>  <ref_mols>  (548) 
Ax0446a,Ax1080a,Ax0812a,Ax0719a,Ax1140a,Ax0528a,Ax0310a

>  <original SMILES>  (548) 
CCCc1ncc(F)cc1N

>  <rationale>  (548) 
info info set:bb_densepocket2;hbond:S125; hydroph_interaction:P107+V124+D109; 

>  <experiment>  (548) 
bb_densepocket2

>  <cluster_label>  (548) 
3

>  <cluster_rank>  (548) 
205

>  <N_interactions>  (548) 
4

>  <∆∆G>  (548) 
-3.112499

>  <comRMSD>  (548) 
0.935537

>  <ROCS_TanimotoCombo>  (548) 
0.639

>  <ROCS_ShapeTanimoto>  (548) 
0.184

>  <ROCS_ColorTanimoto>  (548) 
0.455

$$$$
EN300_158303
     RDKit          3D

 19 20  0  0  0  0  0  0  0  0999 V2000
   30.2213    8.5659    8.8804 C   0  0  0  0  0  0  0  0  0  0  0  0
   31.0704    9.4209    8.0191 C   0  0  0  0  0  0  0  0  0  0  0  0
   30.8726   10.9370    8.0684 C   0  0  0  0  0  0  0  0  0  0  0  0
   32.0070   11.2254    7.0593 C   0  0  0  0  0  0  0  0  0  0  0  0
   32.2254   12.6350    6.7850 N   0  0  0  0  0  0  0  0  0  0  0  0
   31.9886   12.8732    5.4959 C   0  0  0  0  0  0  0  0  0  0  0  0
   32.6576   13.9238    4.6776 C   0  0  0  0  0  0  0  0  0  0  0  0
   33.8821   14.3054    5.1582 C   0  0  0  0  0  0  0  0  0  0  0  0
   34.3165   14.0662    6.6085 C   0  0  2  0  0  0  0  0  0  0  0  0
   35.4880   13.4781    6.6972 N   0  0  0  0  0  0  0  0  0  0  0  0
   36.4766   14.3058    5.6602 S   0  0  0  0  0  6  0  0  0  0  0  0
   38.0419   13.5881    6.1118 C   0  0  0  0  0  0  0  0  0  0  0  0
   36.2266   13.9475    4.2969 O   0  0  0  0  0  0  0  0  0  0  0  0
   36.2216   15.6426    6.0732 O   0  0  0  0  0  0  0  0  0  0  0  0
   33.3355   13.2169    7.4489 C   0  0  0  0  0  0  0  0  0  0  0  0
   33.5918   13.0452    8.6495 O   0  0  0  0  0  0  0  0  0  0  0  0
   32.5774   10.0597    6.6316 N   0  0  0  0  0  0  0  0  0  0  0  0
   33.6562    9.8649    5.6964 C   0  0  0  0  0  0  0  0  0  0  0  0
   32.0274    8.9627    7.1945 N   0  0  0  0  0  0  0  0  0  0  0  0
  1  2  1  0
  2  3  1  0
  3  4  2  0
  4  5  1  0
  5  6  1  0
  6  7  1  0
  7  8  1  0
  8  9  1  0
  9 10  1  6
 10 11  1  0
 11 12  1  0
 11 13  2  0
 11 14  2  0
  9 15  1  0
 15 16  2  0
  4 17  1  0
 17 18  1  0
 17 19  1  0
 19  2  2  0
 15  5  1  0
A    1
 C1 
A    2
 C2 
A    3
 C3 
A    4
 C4 
A    5
 N1 
A    6
 C5 
A    7
 C6 
A    8
 C7 
A    9
 C8 
A   10
 N2 
A   11
 S1 
A   12
 C9 
A   13
 O1 
A   14
 O2 
A   15
 C10
A   16
 O3 
A   17
 N3 
A   18
 C11
A   19
 N4 
M  END
>  <ref_pdb>  (549) 
Ax0310a

>  <ref_mols>  (549) 
Ax0446a,Ax1080a,Ax0812a,Ax0719a,Ax1140a,Ax0528a,Ax0310a

>  <original SMILES>  (549) 
Cc1cc(N2CCC[C@H](NS(C)(=O)=O)C2=O)n(C)n1

>  <rationale>  (549) 
info info set:sulfonimide_whole;hbond:G127; hydroph_interaction:V124; 

>  <experiment>  (549) 
sulfonimide_whole

>  <cluster_label>  (549) 
3

>  <cluster_rank>  (549) 
206

>  <N_interactions>  (549) 
3

>  <∆∆G>  (549) 
-6.170467

>  <comRMSD>  (549) 
0.961013

>  <ROCS_TanimotoCombo>  (549) 
0.397

>  <ROCS_ShapeTanimoto>  (549) 
0.225

>  <ROCS_ColorTanimoto>  (549) 
0.172

$$$$
Z1376314303
     RDKit          3D

 21 23  0  0  0  0  0  0  0  0999 V2000
   30.3276    8.7820    8.6305 C   0  0  0  0  0  0  0  0  0  0  0  0
   31.1709    9.6689    7.7793 C   0  0  0  0  0  0  0  0  0  0  0  0
   32.1602    9.0543    7.0108 N   0  0  0  0  0  0  0  0  0  0  0  0
   32.9932    9.9083    6.2191 C   0  0  0  0  0  0  0  0  0  0  0  0
   32.7158   11.4122    6.3108 C   0  0  0  0  0  0  0  0  0  0  0  0
   31.6083   11.8062    7.1855 C   0  0  0  0  0  0  0  0  0  0  0  0
   31.4392   13.1705    7.1941 O   0  0  0  0  0  0  0  0  0  0  0  0
   30.2136   13.6130    7.4901 C   0  0  0  0  0  0  0  0  0  0  0  0
   29.0211   13.2856    6.5808 C   0  0  0  0  0  0  0  0  0  0  0  0
   27.6836   13.8791    6.9914 C   0  0  0  0  0  0  0  0  0  0  0  0
   27.6116   14.7365    8.2458 C   0  0  0  0  0  0  0  0  0  0  0  0
   28.6494   14.9812    9.0121 N   0  0  0  0  0  0  0  0  0  0  0  0
   29.8673   14.4945    8.7177 C   0  0  0  0  0  0  0  0  0  0  0  0
   30.9297   14.7851    9.5197 N   0  0  0  0  0  4  0  0  0  0  0  0
   32.0139   14.3041    9.1626 O   0  0  0  0  0  0  0  0  0  0  0  0
   30.8674   15.8723   10.0990 O   0  0  0  0  0  1  0  0  0  0  0  0
   30.8663   10.9712    7.8833 N   0  0  0  0  0  0  0  0  0  0  0  0
   33.5124   12.2593    5.5808 C   0  0  0  0  0  0  0  0  0  0  0  0
   34.3733   11.5892    4.5170 C   0  0  0  0  0  0  0  0  0  0  0  0
   34.9268   10.3636    4.8900 C   0  0  0  0  0  0  0  0  0  0  0  0
   34.0836    9.3449    5.3513 C   0  0  0  0  0  0  0  0  0  0  0  0
  1  2  1  0
  2  3  2  0
  3  4  1  0
  4  5  2  0
  5  6  1  0
  6  7  1  0
  7  8  1  0
  8  9  2  0
  9 10  1  0
 10 11  2  0
 11 12  1  0
 12 13  2  0
 13 14  1  0
 14 15  2  0
 14 16  1  0
  6 17  2  0
  5 18  1  0
 18 19  1  0
 19 20  1  0
 20 21  1  0
 17  2  1  0
 21  4  1  0
 13  8  1  0
M  CHG  2  14   1  16  -1
A    1
 C1 
A    2
 C2 
A    3
 N1 
A    4
 C3 
A    5
 C4 
A    6
 C5 
A    7
 O1 
A    8
 C6 
A    9
 C7 
A   10
 C8 
A   11
 C9 
A   12
 N2 
A   13
 C10
A   14
 N3 
A   15
 O2 
A   16
 O3 
A   17
 N4 
A   18
 C11
A   19
 C12
A   20
 C13
A   21
 C14
M  END
>  <ref_pdb>  (550) 
Ax0310a

>  <ref_mols>  (550) 
Ax0446a,Ax1080a,Ax0812a,Ax0719a,Ax1140a,Ax0528a,Ax0310a

>  <original SMILES>  (550) 
Cc1nc2c(c(Oc3cccnc3[N+](=O)[O-])n1)CCCC2

>  <rationale>  (550) 
info info set:screening_whole;hbond:S87; hydroph_interaction:P107+Y89+V124; 

>  <experiment>  (550) 
screening_whole

>  <cluster_label>  (550) 
3

>  <cluster_rank>  (550) 
207

>  <N_interactions>  (550) 
4

>  <∆∆G>  (550) 
-7.553357

>  <comRMSD>  (550) 
0.620245

>  <ROCS_TanimotoCombo>  (550) 
0.461

>  <ROCS_ShapeTanimoto>  (550) 
0.261

>  <ROCS_ColorTanimoto>  (550) 
0.2

$$$$
EN300_27730106
     RDKit          3D

 18 19  0  0  0  0  0  0  0  0999 V2000
   29.8194    8.0843   10.3693 C   0  0  0  0  0  0  0  0  0  0  0  0
   29.9457    8.5931    9.0609 C   0  0  0  0  0  0  0  0  0  0  0  0
   28.9969    9.7092    8.6910 C   0  0  0  0  0  0  0  0  0  0  0  0
   29.4343    7.3677    8.5961 C   0  0  0  0  0  0  0  0  0  0  0  0
   31.2302    8.8053    8.5787 O   0  0  0  0  0  0  0  0  0  0  0  0
   31.2517   10.0425    8.1120 C   0  0  0  0  0  0  0  0  0  0  0  0
   30.6480   10.9598    8.6398 O   0  0  0  0  0  0  0  0  0  0  0  0
   32.1122   10.2704    6.8645 C   0  0  0  0  0  0  0  0  0  0  0  0
   33.0289    9.3346    6.5335 N   0  0  0  0  0  0  0  0  0  0  0  0
   33.7795    9.5772    5.4752 C   0  0  0  0  0  0  0  0  0  0  0  0
   34.7225    8.6467    5.0932 N   0  0  0  0  0  0  0  0  0  0  0  0
   33.6134   10.8911    4.6641 C   0  0  0  0  0  0  0  0  0  0  0  0
   32.6309   11.7562    5.0848 C   0  0  0  0  0  0  0  0  0  0  0  0
   32.3459   13.0528    4.3500 C   0  0  0  0  0  0  0  0  0  0  0  0
   31.3165   13.8673    4.7798 C   0  0  0  0  0  0  0  0  0  0  0  0
   30.5583   13.5001    5.8983 C   0  0  0  0  0  0  0  0  0  0  0  0
   30.8234   12.3430    6.5914 C   0  0  0  0  0  0  0  0  0  0  0  0
   31.8468   11.4475    6.2051 C   0  0  0  0  0  0  0  0  0  0  0  0
  1  2  1  0
  2  3  1  0
  2  4  1  0
  2  5  1  0
  5  6  1  0
  6  7  2  0
  6  8  1  0
  8  9  2  0
  9 10  1  0
 10 11  1  0
 10 12  2  0
 12 13  1  0
 13 14  2  0
 14 15  1  0
 15 16  2  0
 16 17  1  0
 17 18  2  0
 18  8  1  0
 18 13  1  0
A    1
 C1 
A    2
 C2 
A    3
 C3 
A    4
 C4 
A    5
 O1 
A    6
 C5 
A    7
 O2 
A    8
 C6 
A    9
 N1 
A   10
 C7 
A   11
 N2 
A   12
 C8 
A   13
 C9 
A   14
 C10
A   15
 C11
A   16
 C12
A   17
 C13
A   18
 C14
M  END
>  <ref_pdb>  (551) 
Ax0310a

>  <ref_mols>  (551) 
Ax0446a,Ax1080a,Ax0812a,Ax0719a,Ax1140a,Ax0528a,Ax0310a

>  <original SMILES>  (551) 
CC(C)(C)OC(=O)c1nc(N)cc2ccccc12

>  <rationale>  (551) 
info info set:bb_densepocket2;hbond:S105; hydroph_interaction:P107+V124+D109; 

>  <experiment>  (551) 
bb_densepocket2

>  <cluster_label>  (551) 
3

>  <cluster_rank>  (551) 
208

>  <N_interactions>  (551) 
4

>  <∆∆G>  (551) 
-3.569141

>  <comRMSD>  (551) 
0.596918

>  <ROCS_TanimotoCombo>  (551) 
0.621

>  <ROCS_ShapeTanimoto>  (551) 
0.24

>  <ROCS_ColorTanimoto>  (551) 
0.381

$$$$
Z324552648
     RDKit          3D

 30 35  0  0  0  0  0  0  0  0999 V2000
   30.8683   14.3595   10.8899 O   0  0  0  0  0  0  0  0  0  0  0  0
   30.9830   14.0556    9.7404 C   0  0  0  0  0  0  0  0  0  0  0  0
   32.2007   13.5618    8.9908 C   0  0  0  0  0  0  0  0  0  0  0  0
   33.3017   13.3166    9.4250 O   0  0  0  0  0  0  0  0  0  0  0  0
   31.8395   13.4233    7.6510 N   0  0  0  0  0  0  0  0  0  0  0  0
   32.9940   13.5908    6.8603 C   0  0  0  0  0  0  0  0  0  0  0  0
   33.0002   13.1473    5.4483 C   0  0  0  0  0  0  0  0  0  0  0  0
   33.2441   11.8900    5.5253 N   0  0  0  0  0  0  0  0  0  0  0  0
   34.2601   11.2778    4.9192 C   0  0  0  0  0  0  0  0  0  0  0  0
   35.3413   11.8481    4.0323 C   0  0  0  0  0  0  0  0  0  0  0  0
   36.3301   10.8176    3.4924 C   0  0  0  0  0  0  0  0  0  0  0  0
   36.1934    9.4564    3.8261 C   0  0  0  0  0  0  0  0  0  0  0  0
   35.1586    9.0044    4.6854 C   0  0  0  0  0  0  0  0  0  0  0  0
   34.1434    9.9441    5.2668 C   0  0  0  0  0  0  0  0  0  0  0  0
   32.9256    9.8349    6.2012 C   0  0  0  0  0  0  0  0  0  0  0  0
   32.2918    8.8380    6.8896 N   0  0  0  0  0  0  0  0  0  0  0  0
   31.2064    9.3036    7.5310 C   0  0  0  0  0  0  0  0  0  0  0  0
   30.3529    8.4328    8.2598 C   0  0  0  0  0  0  0  0  0  0  0  0
   29.2249    8.9620    8.8644 C   0  0  0  0  0  0  0  0  0  0  0  0
   28.9463   10.2845    8.7961 C   0  0  0  0  0  0  0  0  0  0  0  0
   29.7402   11.1153    8.1325 C   0  0  0  0  0  0  0  0  0  0  0  0
   30.8331   10.6643    7.5046 C   0  0  0  0  0  0  0  0  0  0  0  0
   31.4601   11.5903    6.8852 N   0  0  0  0  0  0  0  0  0  0  0  0
   32.4760   11.1115    6.2519 C   0  0  0  0  0  0  0  0  0  0  0  0
   30.4261   13.7370    7.5482 C   0  0  0  0  0  0  0  0  0  0  0  0
   29.5520   13.7394    6.4666 C   0  0  0  0  0  0  0  0  0  0  0  0
   28.2165   14.1256    6.6896 C   0  0  0  0  0  0  0  0  0  0  0  0
   27.7516   14.4947    7.9604 C   0  0  0  0  0  0  0  0  0  0  0  0
   28.6106   14.4900    9.0376 C   0  0  0  0  0  0  0  0  0  0  0  0
   29.9117   14.1178    8.7916 C   0  0  0  0  0  0  0  0  0  0  0  0
  1  2  2  0
  2  3  1  0
  3  4  2  0
  3  5  1  0
  5  6  1  0
  6  7  1  0
  7  8  1  0
  8  9  1  0
  9 10  2  0
 10 11  1  0
 11 12  2  0
 12 13  1  0
 13 14  2  0
 14 15  1  0
 15 16  2  0
 16 17  1  0
 17 18  2  0
 18 19  1  0
 19 20  2  0
 20 21  1  0
 21 22  2  0
 22 23  1  0
 23 24  2  0
  5 25  1  0
 25 26  2  0
 26 27  1  0
 27 28  2  0
 28 29  1  0
 29 30  2  0
 30  2  1  0
 24  8  1  0
 30 25  1  0
 14  9  1  0
 24 15  1  0
 22 17  1  0
A    1
 O1 
A    2
 C1 
A    3
 C2 
A    4
 O2 
A    5
 N1 
A    6
 C3 
A    7
 C4 
A    8
 N2 
A    9
 C5 
A   10
 C6 
A   11
 C7 
A   12
 C8 
A   13
 C9 
A   14
 C10
A   15
 C11
A   16
 N3 
A   17
 C12
A   18
 C13
A   19
 C14
A   20
 C15
A   21
 C16
A   22
 C17
A   23
 N4 
A   24
 C18
A   25
 C19
A   26
 C20
A   27
 C21
A   28
 C22
A   29
 C23
A   30
 C24
M  END
>  <ref_pdb>  (552) 
Ax0310a

>  <ref_mols>  (552) 
Ax0446a,Ax1080a,Ax0812a,Ax0719a,Ax1140a,Ax0528a,Ax0310a

>  <original SMILES>  (552) 
O=C1C(=O)N(CCn2c3ccccc3c3nc4ccccc4nc32)c2ccccc21

>  <rationale>  (552) 
info info set:screening_whole;hbond:G127; hydroph_interaction:Y90+V124; 

>  <experiment>  (552) 
screening_whole

>  <cluster_label>  (552) 
3

>  <cluster_rank>  (552) 
209

>  <N_interactions>  (552) 
3

>  <∆∆G>  (552) 
-3.729397

>  <comRMSD>  (552) 
0.972266

>  <ROCS_TanimotoCombo>  (552) 
0.47

>  <ROCS_ShapeTanimoto>  (552) 
0.303

>  <ROCS_ColorTanimoto>  (552) 
0.167

$$$$
EN300_7443177
     RDKit          3D

 13 13  0  0  0  0  0  0  0  0999 V2000
   34.4427   15.0746    8.8994 N   0  0  0  0  0  0  0  0  0  0  0  0
   33.5692   13.7375    8.4369 S   0  0  0  0  0  6  0  0  0  0  0  0
   34.1651   12.7467    9.2486 O   0  0  0  0  0  0  0  0  0  0  0  0
   32.1666   14.0624    8.5745 O   0  0  0  0  0  0  0  0  0  0  0  0
   34.0541   13.5091    6.7296 C   0  0  0  0  0  0  0  0  0  0  0  0
   32.9960   12.8044    5.8868 C   0  0  0  0  0  0  0  0  0  0  0  0
   32.3573   11.5881    6.5735 C   0  0  0  0  0  0  0  0  0  0  0  0
   31.2277   11.7860    7.4889 C   0  0  0  0  0  0  0  0  0  0  0  0
   30.5851   10.7644    8.1486 C   0  0  0  0  0  0  0  0  0  0  0  0
   31.1029    9.4789    7.8741 C   0  0  0  0  0  0  0  0  0  0  0  0
   30.5008    8.4703    8.5034 F   0  0  0  0  0  0  0  0  0  0  0  0
   32.1384    9.1742    7.0464 N   0  0  0  0  0  0  0  0  0  0  0  0
   32.7774   10.2884    6.3797 C   0  0  0  0  0  0  0  0  0  0  0  0
  1  2  1  0
  2  3  2  0
  2  4  2  0
  2  5  1  0
  5  6  1  0
  6  7  1  0
  7  8  2  0
  8  9  1  0
  9 10  2  0
 10 11  1  0
 10 12  1  0
 12 13  2  0
 13  7  1  0
A    1
 N1 
A    2
 S1 
A    3
 O1 
A    4
 O2 
A    5
 C1 
A    6
 C2 
A    7
 C3 
A    8
 C4 
A    9
 C5 
A   10
 C6 
A   11
 F1 
A   12
 N2 
A   13
 C7 
M  END
>  <ref_pdb>  (553) 
Ax0310a

>  <ref_mols>  (553) 
Ax0446a,Ax1080a,Ax0812a,Ax0719a,Ax1140a,Ax0528a,Ax0310a

>  <original SMILES>  (553) 
NS(=O)(=O)CCc1ccc(F)nc1

>  <rationale>  (553) 
info info set:sulfonimide_whole;hbond:S87+G127+E85; 

>  <experiment>  (553) 
sulfonimide_whole

>  <cluster_label>  (553) 
3

>  <cluster_rank>  (553) 
210

>  <N_interactions>  (553) 
3

>  <∆∆G>  (553) 
-3.456504

>  <comRMSD>  (553) 
0.358643

>  <ROCS_TanimotoCombo>  (553) 
0.378

>  <ROCS_ShapeTanimoto>  (553) 
0.184

>  <ROCS_ColorTanimoto>  (553) 
0.193

$$$$
EN300_158533
     RDKit          3D

 15 16  0  0  0  0  0  0  0  0999 V2000
   35.4917   14.0358    9.5145 C   0  0  0  0  0  0  0  0  0  0  0  0
   33.7948   14.1717    8.9334 S   0  0  0  0  0  6  0  0  0  0  0  0
   33.1257   15.3303    9.4884 O   0  0  0  0  0  0  0  0  0  0  0  0
   33.1741   12.8859    8.9906 O   0  0  0  0  0  0  0  0  0  0  0  0
   34.1906   14.3380    7.3129 N   0  0  0  0  0  0  0  0  0  0  0  0
   34.6372   13.1718    6.7972 C   0  0  0  0  0  0  0  0  0  0  0  0
   34.1810   12.5384    5.4951 C   0  0  1  0  0  0  0  0  0  0  0  0
   34.7941   11.3335    5.0830 C   0  0  0  0  0  0  0  0  0  0  0  0
   33.9470   10.0581    5.4053 C   0  0  0  0  0  0  0  0  0  0  0  0
   32.8131   10.1889    6.2381 N   0  0  0  0  0  0  0  0  0  0  0  0
   32.1366    9.2677    7.1116 C   0  0  0  0  0  0  0  0  0  0  0  0
   31.0236   10.1273    7.6664 C   0  0  0  0  0  0  0  0  0  0  0  0
   31.1443   11.3891    7.0843 N   0  0  0  0  0  0  0  0  0  0  0  0
   32.2039   11.3931    6.2488 C   0  0  0  0  0  0  0  0  0  0  0  0
   32.6756   12.4403    5.4596 C   0  0  0  0  0  0  0  0  0  0  0  0
  1  2  1  0
  2  3  2  0
  2  4  2  0
  2  5  1  0
  5  6  1  0
  7  6  1  1
  7  8  1  0
  8  9  1  0
  9 10  1  0
 10 11  1  0
 11 12  2  0
 12 13  1  0
 13 14  2  0
 14 15  1  0
 15  7  1  0
 14 10  1  0
A    1
 C1 
A    2
 S1 
A    3
 O1 
A    4
 O2 
A    5
 N1 
A    6
 C2 
A    7
 C3 
A    8
 C4 
A    9
 C5 
A   10
 N2 
A   11
 C6 
A   12
 C7 
A   13
 N3 
A   14
 C8 
A   15
 C9 
M  END
>  <ref_pdb>  (554) 
Ax0310a

>  <ref_mols>  (554) 
Ax0446a,Ax1080a,Ax0812a,Ax0719a,Ax1140a,Ax0528a,Ax0310a

>  <original SMILES>  (554) 
CS(=O)(=O)NC[C@H]1CCn2ccnc2C1

>  <rationale>  (554) 
info info set:sulfonimide_whole;hbond:S87+G127+E85; hydroph_interaction:P107; 

>  <experiment>  (554) 
sulfonimide_whole

>  <cluster_label>  (554) 
3

>  <cluster_rank>  (554) 
211

>  <N_interactions>  (554) 
4

>  <∆∆G>  (554) 
-4.162988

>  <comRMSD>  (554) 
0.785355

>  <ROCS_TanimotoCombo>  (554) 
0.353

>  <ROCS_ShapeTanimoto>  (554) 
0.189

>  <ROCS_ColorTanimoto>  (554) 
0.164

$$$$
EN300_223688
     RDKit          3D

 14 15  0  0  0  0  0  0  0  0999 V2000
   29.1432   13.2931    8.9259 N   0  0  0  0  0  0  0  0  0  0  0  0
   30.5281   13.2639    8.0026 S   0  0  0  0  0  6  0  0  0  0  0  0
   31.5570   13.9568    8.7541 O   0  0  0  0  0  0  0  0  0  0  0  0
   30.0793   13.6405    6.6883 O   0  0  0  0  0  0  0  0  0  0  0  0
   31.1087   11.6653    7.7446 C   0  0  0  0  0  0  0  0  0  0  0  0
   30.6416   10.3434    8.3310 C   0  0  0  0  0  0  0  0  0  0  0  0
   31.4127    9.3547    7.8083 N   0  0  0  0  0  0  0  0  0  0  0  0
   32.3287    9.9235    6.9398 C   0  0  0  0  0  0  0  0  0  0  0  0
   33.2245    9.1928    6.2639 N   0  0  0  0  0  0  0  0  0  0  0  0
   34.0448    9.9166    5.4765 C   0  0  0  0  0  0  0  0  0  0  0  0
   34.0126   11.2948    5.3380 C   0  0  0  0  0  0  0  0  0  0  0  0
   35.2410   12.1599    4.1988 Br  0  0  0  0  0  0  0  0  0  0  0  0
   33.0589   12.0335    6.0544 C   0  0  0  0  0  0  0  0  0  0  0  0
   32.1831   11.3250    6.8830 C   0  0  0  0  0  0  0  0  0  0  0  0
  1  2  1  0
  2  3  2  0
  2  4  2  0
  2  5  1  0
  5  6  2  0
  6  7  1  0
  7  8  1  0
  8  9  2  0
  9 10  1  0
 10 11  2  0
 11 12  1  0
 11 13  1  0
 13 14  2  0
 14  5  1  0
 14  8  1  0
A    1
 N1 
A    2
 S1 
A    3
 O1 
A    4
 O2 
A    5
 C1 
A    6
 C2 
A    7
 N2 
A    8
 C3 
A    9
 N3 
A   10
 C4 
A   11
 C5 
A   12
BR1 
A   13
 C6 
A   14
 C7 
M  END
>  <ref_pdb>  (555) 
Ax0310a

>  <ref_mols>  (555) 
Ax0446a,Ax1080a,Ax0812a,Ax0719a,Ax1140a,Ax0528a,Ax0310a

>  <original SMILES>  (555) 
NS(=O)(=O)c1c[nH]c2ncc(Br)cc12

>  <rationale>  (555) 
info info set:sulfonimide_whole;hbond:S87+S125; 

>  <experiment>  (555) 
sulfonimide_whole

>  <cluster_label>  (555) 
3

>  <cluster_rank>  (555) 
212

>  <N_interactions>  (555) 
2

>  <∆∆G>  (555) 
-5.121842

>  <comRMSD>  (555) 
0.543838

>  <ROCS_TanimotoCombo>  (555) 
0.354

>  <ROCS_ShapeTanimoto>  (555) 
0.194

>  <ROCS_ColorTanimoto>  (555) 
0.159

$$$$
EN300_7369708
     RDKit          3D

  9  9  0  0  0  0  0  0  0  0999 V2000
   29.4123    7.9852    8.7030 C   0  0  0  0  0  0  0  0  0  0  0  0
   31.1238    8.2853    8.8599 S   0  0  0  0  0  0  0  0  0  0  0  0
   31.6818    9.3939    7.5802 C   0  0  0  0  0  0  0  0  0  0  0  0
   32.5606    8.8443    6.7332 N   0  0  0  0  0  0  0  0  0  0  0  0
   33.0539    9.6204    5.7627 C   0  0  0  0  0  0  0  0  0  0  0  0
   32.7045   10.9415    5.5963 C   0  0  0  0  0  0  0  0  0  0  0  0
   31.7880   11.4994    6.4786 C   0  0  0  0  0  0  0  0  0  0  0  0
   31.2506   10.7278    7.5003 C   0  0  0  0  0  0  0  0  0  0  0  0
   30.3362   11.3166    8.3795 N   0  0  0  0  0  0  0  0  0  0  0  0
  1  2  1  0
  2  3  1  0
  3  4  2  0
  4  5  1  0
  5  6  2  0
  6  7  1  0
  7  8  2  0
  8  9  1  0
  8  3  1  0
A    1
 C1 
A    2
 S1 
A    3
 C2 
A    4
 N1 
A    5
 C3 
A    6
 C4 
A    7
 C5 
A    8
 C6 
A    9
 N2 
M  END
>  <ref_pdb>  (556) 
Ax0310a

>  <ref_mols>  (556) 
Ax0446a,Ax1080a,Ax0812a,Ax0719a,Ax1140a,Ax0528a,Ax0310a

>  <original SMILES>  (556) 
CSc1ncccc1N

>  <rationale>  (556) 
info info set:bb_densepocket2;hbond:S125; hydroph_interaction:P107; 

>  <experiment>  (556) 
bb_densepocket2

>  <cluster_label>  (556) 
3

>  <cluster_rank>  (556) 
213

>  <N_interactions>  (556) 
2

>  <∆∆G>  (556) 
-4.889805

>  <comRMSD>  (556) 
0.292677

>  <ROCS_TanimotoCombo>  (556) 
0.645

>  <ROCS_ShapeTanimoto>  (556) 
0.181

>  <ROCS_ColorTanimoto>  (556) 
0.464

$$$$
Z3889886214
     RDKit          3D

 23 25  0  0  0  0  0  0  0  0999 V2000
   29.1638   15.3371    8.8478 C   0  0  0  0  0  0  0  0  0  0  0  0
   28.2545   14.7366    8.0439 C   0  0  0  0  0  0  0  0  0  0  0  0
   27.2664   15.3577    7.4730 N   0  0  0  0  0  0  0  0  0  0  0  0
   26.3726   14.7166    6.6465 C   0  0  0  0  0  0  0  0  0  0  0  0
   26.4245   13.3845    6.3395 C   0  0  0  0  0  0  0  0  0  0  0  0
   27.4268   12.7142    6.9323 C   0  0  0  0  0  0  0  0  0  0  0  0
   28.3880   13.4284    7.8369 C   0  0  0  0  0  0  0  0  0  0  0  0
   29.4574   12.7666    8.5164 C   0  0  0  0  0  0  0  0  0  0  0  0
   30.3504   12.2824    7.7349 N   0  0  0  0  0  0  0  0  0  0  0  0
   30.7312   10.9823    8.0601 C   0  0  0  0  0  0  0  0  0  0  0  0
   30.3176   10.2772    8.9550 O   0  0  0  0  0  0  0  0  0  0  0  0
   31.7476   10.5297    7.1455 C   0  0  0  0  0  0  0  0  0  0  0  0
   31.9812    9.1175    7.0919 C   0  0  0  0  0  0  0  0  0  0  0  0
   31.2838    8.2491    7.8562 O   0  0  0  0  0  0  0  0  0  0  0  0
   32.8936    8.6440    6.2797 N   0  0  0  0  0  0  0  0  0  0  0  0
   33.5974    9.4970    5.4950 C   0  0  0  0  0  0  0  0  0  0  0  0
   34.5483    8.9209    4.6406 C   0  0  0  0  0  0  0  0  0  0  0  0
   35.3273    9.6909    3.7953 C   0  0  0  0  0  0  0  0  0  0  0  0
   35.1804   11.0605    3.7783 C   0  0  0  0  0  0  0  0  0  0  0  0
   34.2498   11.6691    4.6048 C   0  0  0  0  0  0  0  0  0  0  0  0
   33.4594   10.9175    5.4587 C   0  0  0  0  0  0  0  0  0  0  0  0
   32.5031   11.5070    6.3075 C   0  0  0  0  0  0  0  0  0  0  0  0
   32.2538   12.9826    6.3751 C   0  0  0  0  0  0  0  0  0  0  0  0
  1  2  1  0
  2  3  2  0
  3  4  1  0
  4  5  2  0
  5  6  1  0
  6  7  2  0
  7  8  1  0
  8  9  1  0
  9 10  1  0
 10 11  2  0
 10 12  1  0
 12 13  2  0
 13 14  1  0
 13 15  1  0
 15 16  2  0
 16 17  1  0
 17 18  2  0
 18 19  1  0
 19 20  2  0
 20 21  1  0
 21 22  2  0
 22 23  1  0
  7  2  1  0
 22 12  1  0
 21 16  1  0
A    1
 C1 
A    2
 C2 
A    3
 N1 
A    4
 C3 
A    5
 C4 
A    6
 C5 
A    7
 C6 
A    8
 C7 
A    9
 N2 
A   10
 C8 
A   11
 O1 
A   12
 C9 
A   13
 C10
A   14
 O2 
A   15
 N3 
A   16
 C11
A   17
 C12
A   18
 C13
A   19
 C14
A   20
 C15
A   21
 C16
A   22
 C17
A   23
 C18
M  END
>  <ref_pdb>  (557) 
Ax0310a

>  <ref_mols>  (557) 
Ax0446a,Ax1080a,Ax0812a,Ax0719a,Ax1140a,Ax0528a,Ax0310a

>  <original SMILES>  (557) 
Cc1ncccc1CNC(=O)c1c(O)nc2ccccc2c1C

>  <rationale>  (557) 
info info set:screening_pocket;hbond:S105; hydroph_interaction:P107+Y90; pistack:H21; 

>  <experiment>  (557) 
screening_pocket

>  <cluster_label>  (557) 
3

>  <cluster_rank>  (557) 
214

>  <N_interactions>  (557) 
4

>  <∆∆G>  (557) 
-4.241579

>  <comRMSD>  (557) 
0.866187

>  <ROCS_TanimotoCombo>  (557) 
0.679

>  <ROCS_ShapeTanimoto>  (557) 
0.298

>  <ROCS_ColorTanimoto>  (557) 
0.381

$$$$
Z1436940824
     RDKit          3D

 17 18  0  0  0  0  0  0  0  0999 V2000
   29.8831    8.9872    8.4455 C   0  0  0  0  0  0  0  0  0  0  0  0
   30.4738   10.3470    8.2302 C   0  0  0  0  0  0  0  0  0  0  0  0
   29.5821   11.5096    7.7235 C   0  0  0  0  0  0  0  0  0  0  0  0
   31.6100   10.2470    7.3312 N   0  0  0  0  0  0  0  0  0  0  0  0
   31.9470    9.1626    7.0088 N   0  0  0  0  0  0  0  0  0  0  0  0
   33.0976    9.3554    6.1184 C   0  0  0  0  0  0  0  0  0  0  0  0
   33.3592   10.7797    5.9939 C   0  0  0  0  0  0  0  0  0  0  0  0
   32.4046   11.3574    6.7726 C   0  0  0  0  0  0  0  0  0  0  0  0
   32.1369   12.6951    7.0580 C   0  0  0  0  0  0  0  0  0  0  0  0
   31.1240   13.2185    6.6236 O   0  0  0  0  0  0  0  0  0  0  0  0
   33.0180   13.4277    7.8544 N   0  0  0  0  0  0  0  0  0  0  0  0
   32.5862   14.0909    8.9001 C   0  0  0  0  0  0  0  0  0  0  0  0
   33.3753   14.9870    9.6087 C   0  0  0  0  0  0  0  0  0  0  0  0
   34.7362   15.0446    9.1587 N   0  0  0  0  0  0  0  0  0  0  0  0
   35.2492   14.1198    8.3271 C   0  0  0  0  0  0  0  0  0  0  0  0
   36.4294   13.7789    8.4608 O   0  0  0  0  0  0  0  0  0  0  0  0
   34.3716   13.6414    7.3615 C   0  0  0  0  0  0  0  0  0  0  0  0
  1  2  1  0
  2  3  1  0
  2  4  1  0
  4  5  1  0
  5  6  2  0
  6  7  1  0
  7  8  2  0
  8  9  1  0
  9 10  2  0
  9 11  1  0
 11 12  1  0
 12 13  1  0
 13 14  1  0
 14 15  1  0
 15 16  2  0
 15 17  1  0
  8  4  1  0
 17 11  1  0
A    1
 C1 
A    2
 C2 
A    3
 C3 
A    4
 N1 
A    5
 N2 
A    6
 C4 
A    7
 C5 
A    8
 C6 
A    9
 C7 
A   10
 O1 
A   11
 N3 
A   12
 C8 
A   13
 C9 
A   14
 N4 
A   15
 C10
A   16
 O2 
A   17
 C11
M  END
>  <ref_pdb>  (558) 
Ax0310a

>  <ref_mols>  (558) 
Ax0446a,Ax1080a,Ax0812a,Ax0719a,Ax1140a,Ax0528a,Ax0310a

>  <original SMILES>  (558) 
CC(C)n1nccc1C(=O)N1CCNC(=O)C1

>  <rationale>  (558) 
info info set:3d;hbond:E85; hydroph_interaction:V124; 

>  <experiment>  (558) 
3d

>  <cluster_label>  (558) 
3

>  <cluster_rank>  (558) 
215

>  <N_interactions>  (558) 
3

>  <∆∆G>  (558) 
-5.901608

>  <comRMSD>  (558) 
0.722054

>  <ROCS_TanimotoCombo>  (558) 
0.332

>  <ROCS_ShapeTanimoto>  (558) 
0.209

>  <ROCS_ColorTanimoto>  (558) 
0.123

$$$$
Z1492980784
     RDKit          3D

 15 16  0  0  0  0  0  0  0  0999 V2000
   29.3280   13.1810    5.9252 C   0  0  0  0  0  0  0  0  0  0  0  0
   28.7993   13.3115    7.3137 C   0  0  0  0  0  0  0  0  0  0  0  0
   27.5664   14.1556    7.4777 C   0  0  0  0  0  0  0  0  0  0  0  0
   29.7732   13.7851    8.1015 N   0  0  0  0  0  0  0  0  0  0  0  0
   29.6987   14.9061    8.8556 C   0  0  0  0  0  0  0  0  0  0  0  0
   30.8335   15.0861    9.4976 N   0  0  0  0  0  0  0  0  0  0  0  0
   31.6815   14.0208    9.1384 N   0  0  0  0  0  0  0  0  0  0  0  0
   31.0172   13.2462    8.3034 C   0  0  0  0  0  0  0  0  0  0  0  0
   31.5221   11.9419    7.6668 C   0  0  0  0  0  0  0  0  0  0  0  0
   30.7705   10.7179    8.1487 C   0  0  0  0  0  0  0  0  0  0  0  0
   31.3068    9.4521    7.5216 C   0  0  0  0  0  0  0  0  0  0  0  0
   32.3541    9.3839    6.6076 C   0  0  0  0  0  0  0  0  0  0  0  0
   32.9610   10.6021    6.2407 C   0  0  0  0  0  0  0  0  0  0  0  0
   32.5773   11.8448    6.7370 C   0  0  0  0  0  0  0  0  0  0  0  0
   33.4641   13.2073    6.1548 Cl  0  0  0  0  0  0  0  0  0  0  0  0
  1  2  1  0
  2  3  1  0
  2  4  1  0
  4  5  1  0
  5  6  2  0
  6  7  1  0
  7  8  2  0
  8  9  1  0
  9 10  2  0
 10 11  1  0
 11 12  2  0
 12 13  1  0
 13 14  2  0
 14 15  1  0
  8  4  1  0
 14  9  1  0
A    1
 C1 
A    2
 C2 
A    3
 C3 
A    4
 N1 
A    5
 C4 
A    6
 N2 
A    7
 N3 
A    8
 C5 
A    9
 C6 
A   10
 C7 
A   11
 C8 
A   12
 C9 
A   13
 C10
A   14
 C11
A   15
CL1 
M  END
>  <ref_pdb>  (559) 
Ax0310a

>  <ref_mols>  (559) 
Ax0446a,Ax1080a,Ax0812a,Ax0719a,Ax1140a,Ax0528a,Ax0310a

>  <original SMILES>  (559) 
CC(C)n1cnnc1-c1ccccc1Cl

>  <rationale>  (559) 
info info set:3d;hbond:S87; hydroph_interaction:P107+Y89; 

>  <experiment>  (559) 
3d

>  <cluster_label>  (559) 
3

>  <cluster_rank>  (559) 
216

>  <N_interactions>  (559) 
3

>  <∆∆G>  (559) 
-8.253879

>  <comRMSD>  (559) 
0.442639

>  <ROCS_TanimotoCombo>  (559) 
0.322

>  <ROCS_ShapeTanimoto>  (559) 
0.206

>  <ROCS_ColorTanimoto>  (559) 
0.116

$$$$
EN300_306892
     RDKit          3D

 14 15  0  0  0  0  0  0  0  0999 V2000
   29.5407    8.2395    8.5942 C   0  0  0  0  0  0  0  0  0  0  0  0
   31.2570    8.2520    8.7313 S   0  0  0  0  0  0  0  0  0  0  0  0
   31.7546    9.4080    7.4945 C   0  0  0  0  0  0  0  0  0  0  0  0
   32.6728    8.9005    6.6818 N   0  0  0  0  0  0  0  0  0  0  0  0
   33.1345    9.6603    5.7260 C   0  0  0  0  0  0  0  0  0  0  0  0
   34.2006    9.1116    4.7474 C   0  0  0  0  0  0  0  0  0  0  0  0
   34.7467    9.9792    3.6140 C   0  0  0  0  0  0  0  0  0  0  0  0
   34.2157   11.4013    3.4816 C   0  0  0  0  0  0  0  0  0  0  0  0
   33.1774   11.8908    4.4757 C   0  0  0  0  0  0  0  0  0  0  0  0
   32.6748   11.0833    5.5135 C   0  0  0  0  0  0  0  0  0  0  0  0
   31.6877   11.5447    6.4314 C   0  0  0  0  0  0  0  0  0  0  0  0
   31.1331   12.9518    6.3224 C   0  0  0  0  0  0  0  0  0  0  0  0
   31.2138   10.7018    7.4342 C   0  0  0  0  0  0  0  0  0  0  0  0
   30.2201   11.1714    8.3250 N   0  0  0  0  0  0  0  0  0  0  0  0
  1  2  1  0
  2  3  1  0
  3  4  2  0
  4  5  1  0
  5  6  2  0
  6  7  1  0
  7  8  2  0
  8  9  1  0
  9 10  2  0
 10 11  1  0
 11 12  1  0
 11 13  2  0
 13 14  1  0
 13  3  1  0
 10  5  1  0
A    1
 C1 
A    2
 S1 
A    3
 C2 
A    4
 N1 
A    5
 C3 
A    6
 C4 
A    7
 C5 
A    8
 C6 
A    9
 C7 
A   10
 C8 
A   11
 C9 
A   12
 C10
A   13
 C11
A   14
 N2 
M  END
>  <ref_pdb>  (560) 
Ax0310a

>  <ref_mols>  (560) 
Ax0446a,Ax1080a,Ax0812a,Ax0719a,Ax1140a,Ax0528a,Ax0310a

>  <original SMILES>  (560) 
CSc1nc2ccccc2c(C)c1N

>  <rationale>  (560) 
info info set:bb_densepocket2;hbond:S125; hydroph_interaction:P107; 

>  <experiment>  (560) 
bb_densepocket2

>  <cluster_label>  (560) 
3

>  <cluster_rank>  (560) 
217

>  <N_interactions>  (560) 
2

>  <∆∆G>  (560) 
-5.511085

>  <comRMSD>  (560) 
0.439665

>  <ROCS_TanimotoCombo>  (560) 
0.651

>  <ROCS_ShapeTanimoto>  (560) 
0.234

>  <ROCS_ColorTanimoto>  (560) 
0.417

$$$$
Z2905688936
     RDKit          3D

 21 23  0  0  0  0  0  0  0  0999 V2000
   34.2159    9.6169    5.1514 C   0  0  0  0  0  0  0  0  0  0  0  0
   32.9930    9.7815    6.0463 C   0  0  0  0  0  0  0  0  0  0  0  0
   32.4327   11.1035    6.2547 C   0  0  0  0  0  0  0  0  0  0  0  0
   31.2465   10.8708    7.1745 C   0  0  0  0  0  0  0  0  0  0  0  0
   30.2894   11.5902    7.7715 N   0  0  0  0  0  0  0  0  0  0  0  0
   30.2587   12.9145    7.8719 C   0  0  0  0  0  0  0  0  0  0  0  0
   31.1443   13.7480    7.8453 O   0  0  0  0  0  0  0  0  0  0  0  0
   28.8962   13.3823    8.0800 C   0  0  2  0  0  0  0  0  0  0  0  0
   27.9906   13.0805    6.8096 C   0  0  0  0  0  0  0  0  0  0  0  0
   28.8252   14.2073    6.0672 C   0  0  0  0  0  0  0  0  0  0  0  0
   28.6831   15.3171    6.9431 O   0  0  0  0  0  0  0  0  0  0  0  0
   28.7348   14.7200    8.2192 C   0  0  1  0  0  0  0  0  0  0  0  0
   27.5921   14.8449    8.8860 C   0  0  0  0  0  0  0  0  0  0  0  0
   27.7337   15.9933    9.6633 C   0  0  0  0  0  0  0  0  0  0  0  0
   27.6031   14.8650   10.5229 C   0  0  0  0  0  0  0  0  0  0  0  0
   31.2612    9.5376    7.3776 N   0  0  0  0  0  0  0  0  0  0  0  0
   30.3257    8.8129    8.2066 C   0  0  0  0  0  0  0  0  0  0  0  0
   29.0278    8.7243    8.1283 C   0  0  0  0  0  0  0  0  0  0  0  0
   30.3335    9.2777    9.5124 C   0  0  0  0  0  0  0  0  0  0  0  0
   30.7326    7.5624    8.4159 C   0  0  0  0  0  0  0  0  0  0  0  0
   32.3022    8.8381    6.7163 N   0  0  0  0  0  0  0  0  0  0  0  0
  1  2  1  0
  2  3  1  0
  3  4  2  0
  4  5  1  0
  5  6  1  0
  6  7  2  0
  8  6  1  6
  8  9  1  0
  9 10  1  0
 10 11  1  0
 11 12  1  0
 12 13  1  6
 13 14  1  0
 14 15  1  0
  4 16  1  0
 16 17  1  0
 17 18  1  0
 17 19  1  0
 17 20  1  0
 16 21  1  0
 21  2  2  0
 12  8  1  0
 15 13  1  0
A    1
 C1 
A    2
 C2 
A    3
 C3 
A    4
 C4 
A    5
 N1 
A    6
 C5 
A    7
 O1 
A    8
 C6 
A    9
 C7 
A   10
 C8 
A   11
 O2 
A   12
 C9 
A   13
 C10
A   14
 C11
A   15
 C12
A   16
 N2 
A   17
 C13
A   18
 C14
A   19
 C15
A   20
 C16
A   21
 N3 
M  END
>  <ref_pdb>  (561) 
Ax0310a

>  <ref_mols>  (561) 
Ax0446a,Ax1080a,Ax0812a,Ax0719a,Ax1140a,Ax0528a,Ax0310a

>  <original SMILES>  (561) 
Cc1cc(NC(=O)[C@@H]2CCO[C@H]2C2CC2)n(C(C)(C)C)n1

>  <rationale>  (561) 
info info set:screening_pocket;hbond:S87+S125; hydroph_interaction:P107+Y89+Y90; 

>  <experiment>  (561) 
screening_pocket

>  <cluster_label>  (561) 
3

>  <cluster_rank>  (561) 
218

>  <N_interactions>  (561) 
7

>  <∆∆G>  (561) 
-2.963715

>  <comRMSD>  (561) 
0.509447

>  <ROCS_TanimotoCombo>  (561) 
0.634

>  <ROCS_ShapeTanimoto>  (561) 
0.249

>  <ROCS_ColorTanimoto>  (561) 
0.386

$$$$
EN300_372004
     RDKit          3D

 13 14  0  0  0  0  0  0  0  0999 V2000
   29.1286   13.3041    8.9218 N   0  0  0  0  0  0  0  0  0  0  0  0
   30.5163   13.2410    7.9929 S   0  0  0  0  0  6  0  0  0  0  0  0
   30.0654   13.6445    6.6856 O   0  0  0  0  0  0  0  0  0  0  0  0
   31.5205   13.9709    8.7465 O   0  0  0  0  0  0  0  0  0  0  0  0
   31.1060   11.6469    7.7390 C   0  0  0  0  0  0  0  0  0  0  0  0
   30.6411   10.3312    8.3466 C   0  0  0  0  0  0  0  0  0  0  0  0
   31.4340    9.3609    7.8070 N   0  0  0  0  0  0  0  0  0  0  0  0
   32.3381    9.9324    6.9299 C   0  0  0  0  0  0  0  0  0  0  0  0
   33.2405    9.2168    6.2489 N   0  0  0  0  0  0  0  0  0  0  0  0
   34.0420    9.9486    5.4519 C   0  0  0  0  0  0  0  0  0  0  0  0
   33.9897   11.3221    5.3063 C   0  0  0  0  0  0  0  0  0  0  0  0
   33.0360   12.0352    6.0277 C   0  0  0  0  0  0  0  0  0  0  0  0
   32.1709   11.3205    6.8737 C   0  0  0  0  0  0  0  0  0  0  0  0
  1  2  1  0
  2  3  2  0
  2  4  2  0
  2  5  1  0
  5  6  2  0
  6  7  1  0
  7  8  1  0
  8  9  2  0
  9 10  1  0
 10 11  2  0
 11 12  1  0
 12 13  2  0
 13  5  1  0
 13  8  1  0
A    1
 N1 
A    2
 S1 
A    3
 O1 
A    4
 O2 
A    5
 C1 
A    6
 C2 
A    7
 N2 
A    8
 C3 
A    9
 N3 
A   10
 C4 
A   11
 C5 
A   12
 C6 
A   13
 C7 
M  END
>  <ref_pdb>  (562) 
Ax0310a

>  <ref_mols>  (562) 
Ax0446a,Ax1080a,Ax0812a,Ax0719a,Ax1140a,Ax0528a,Ax0310a

>  <original SMILES>  (562) 
NS(=O)(=O)c1c[nH]c2ncccc12

>  <rationale>  (562) 
info info set:sulfonimide_whole;hbond:S87+S125; 

>  <experiment>  (562) 
sulfonimide_whole

>  <cluster_label>  (562) 
3

>  <cluster_rank>  (562) 
219

>  <N_interactions>  (562) 
2

>  <∆∆G>  (562) 
-4.986126

>  <comRMSD>  (562) 
0.562787

>  <ROCS_TanimotoCombo>  (562) 
0.354

>  <ROCS_ShapeTanimoto>  (562) 
0.191

>  <ROCS_ColorTanimoto>  (562) 
0.163

$$$$
Z1068186302
     RDKit          3D

 17 18  0  0  0  0  0  0  0  0999 V2000
   29.4939   14.6217   10.8592 C   0  0  0  0  0  0  0  0  0  0  0  0
   29.3850   13.8289    9.6408 N   0  0  0  0  0  0  0  0  0  0  0  0
   30.5700   13.7540    8.8008 C   0  0  0  0  0  0  0  0  0  0  0  0
   31.8452   14.3393    9.0719 O   0  0  0  0  0  0  0  0  0  0  0  0
   30.2701   12.9331    7.5492 C   0  0  0  0  0  0  0  0  0  0  0  0
   31.0598   11.8082    7.2703 C   0  0  0  0  0  0  0  0  0  0  0  0
   30.6013   10.5059    7.9211 C   0  0  0  0  0  0  0  0  0  0  0  0
   31.4157    9.2308    7.6146 C   0  0  0  0  0  0  0  0  0  0  0  0
   32.6346    9.3691    6.6877 C   0  0  0  0  0  0  0  0  0  0  0  0
   32.9420   10.6538    6.1837 C   0  0  0  0  0  0  0  0  0  0  0  0
   34.0873   10.6468    5.3703 C   0  0  0  0  0  0  0  0  0  0  0  0
   33.8433   10.9028    4.0666 F   0  0  0  0  0  0  0  0  0  0  0  0
   35.0011   11.5914    5.7060 F   0  0  0  0  0  0  0  0  0  0  0  0
   34.7317    9.4485    5.3808 F   0  0  0  0  0  0  0  0  0  0  0  0
   32.1986   11.8132    6.4546 C   0  0  0  0  0  0  0  0  0  0  0  0
   29.5908   13.6130    6.3394 C   0  0  0  0  0  0  0  0  0  0  0  0
   28.7721   12.7464    7.2670 C   0  0  0  0  0  0  0  0  0  0  0  0
  1  2  1  0
  2  3  1  0
  3  4  2  0
  3  5  1  0
  5  6  1  0
  6  7  2  0
  7  8  1  0
  8  9  2  0
  9 10  1  0
 10 11  1  0
 11 12  1  0
 11 13  1  0
 11 14  1  0
 10 15  2  0
  5 16  1  0
 16 17  1  0
 17  5  1  0
 15  6  1  0
A    1
 C1 
A    2
 N1 
A    3
 C2 
A    4
 O1 
A    5
 C3 
A    6
 C4 
A    7
 C5 
A    8
 C6 
A    9
 C7 
A   10
 C8 
A   11
 C9 
A   12
 F1 
A   13
 F2 
A   14
 F3 
A   15
 C10
A   16
 C11
A   17
 C12
M  END
>  <ref_pdb>  (563) 
Ax0310a

>  <ref_mols>  (563) 
Ax0446a,Ax1080a,Ax0812a,Ax0719a,Ax1140a,Ax0528a,Ax0310a

>  <original SMILES>  (563) 
CNC(=O)C1(c2cccc(C(F)(F)F)c2)CC1

>  <rationale>  (563) 
info info set:3d;halogenbond:S105; hbond:S87; 

>  <experiment>  (563) 
3d

>  <cluster_label>  (563) 
3

>  <cluster_rank>  (563) 
220

>  <N_interactions>  (563) 
2

>  <∆∆G>  (563) 
-6.27725

>  <comRMSD>  (563) 
0.709877

>  <ROCS_TanimotoCombo>  (563) 
0.331

>  <ROCS_ShapeTanimoto>  (563) 
0.209

>  <ROCS_ColorTanimoto>  (563) 
0.122

$$$$
EN300_125547
     RDKit          3D

 18 18  0  0  0  0  0  0  0  0999 V2000
   32.5574   13.2681    5.4053 C   0  0  0  0  0  0  0  0  0  0  0  0
   32.7359   12.2334    6.4865 C   0  0  0  0  0  0  0  0  0  0  0  0
   31.4083   11.7772    7.1096 C   0  0  0  0  0  0  0  0  0  0  0  0
   33.3641   10.9651    5.8952 C   0  0  0  0  0  0  0  0  0  0  0  0
   33.6336   12.8341    7.5952 C   0  0  0  0  0  0  0  0  0  0  0  0
   33.3338   12.9168    8.7728 O   0  0  0  0  0  0  0  0  0  0  0  0
   34.8958   13.3304    7.3447 N   0  0  0  0  0  0  0  0  0  0  0  0
   35.9113   13.7223    8.3624 C   0  0  0  0  0  0  0  0  0  0  0  0
   35.6093   13.1751    9.7852 C   0  0  0  0  0  0  0  0  0  0  0  0
   36.7592   12.6259   10.7101 C   0  0  0  0  0  0  0  0  0  0  0  0
   36.6590   11.3073   11.5204 C   0  0  0  0  0  0  0  0  0  0  0  0
   37.9223   11.1211   12.3519 C   0  0  0  0  0  0  0  0  0  0  0  0
   38.8609   12.3032   12.0955 C   0  0  0  0  0  0  0  0  0  0  0  0
   40.4410   12.8160   12.6974 S   0  0  0  0  0  6  0  0  0  0  0  0
   41.6406   11.8779   12.0393 N   0  0  0  0  0  0  0  0  0  0  0  0
   40.6325   14.0970   12.0755 O   0  0  0  0  0  0  0  0  0  0  0  0
   40.4276   12.5881   14.1222 O   0  0  0  0  0  0  0  0  0  0  0  0
   38.2321   13.4177   10.9580 S   0  0  0  0  0  0  0  0  0  0  0  0
  1  2  1  0
  2  3  1  0
  2  4  1  0
  2  5  1  0
  5  6  2  0
  5  7  1  0
  7  8  1  0
  8  9  1  0
  9 10  1  0
 10 11  2  0
 11 12  1  0
 12 13  2  0
 13 14  1  0
 14 15  1  0
 14 16  2  0
 14 17  2  0
 13 18  1  0
 18 10  1  0
A    1
 C1 
A    2
 C2 
A    3
 C3 
A    4
 C4 
A    5
 C5 
A    6
 O1 
A    7
 N1 
A    8
 C6 
A    9
 C7 
A   10
 C8 
A   11
 C9 
A   12
 C10
A   13
 C11
A   14
 S1 
A   15
 N2 
A   16
 O2 
A   17
 O3 
A   18
 S2 
M  END
>  <ref_pdb>  (564) 
Ax0310a

>  <ref_mols>  (564) 
Ax0446a,Ax1080a,Ax0812a,Ax0719a,Ax1140a,Ax0528a,Ax0310a

>  <original SMILES>  (564) 
CC(C)(C)C(=O)NCCc1ccc(S(N)(=O)=O)s1

>  <rationale>  (564) 
info info set:sulfonimide_joint;hbond:G127; hydroph_interaction:V84+L100; 

>  <experiment>  (564) 
sulfonimide_joint

>  <cluster_label>  (564) 
3

>  <cluster_rank>  (564) 
221

>  <N_interactions>  (564) 
3

>  <∆∆G>  (564) 
-5.455319

>  <comRMSD>  (564) 
0.908211

>  <ROCS_TanimotoCombo>  (564) 
0.355

>  <ROCS_ShapeTanimoto>  (564) 
0.237

>  <ROCS_ColorTanimoto>  (564) 
0.118

$$$$
EN300_28265738
     RDKit          3D

 17 18  0  0  0  0  0  0  0  0999 V2000
   35.8986   14.5050    4.2449 C   0  0  0  0  0  0  0  0  0  0  0  0
   34.7953   13.6018    4.2760 O   0  0  0  0  0  0  0  0  0  0  0  0
   35.1599   12.3121    4.4597 C   0  0  0  0  0  0  0  0  0  0  0  0
   36.1674   11.7810    4.0099 O   0  0  0  0  0  0  0  0  0  0  0  0
   34.1630   11.5784    5.3090 C   0  0  0  0  0  0  0  0  0  0  0  0
   34.2420   10.1899    5.3576 C   0  0  0  0  0  0  0  0  0  0  0  0
   33.3751    9.3356    6.1311 C   0  0  0  0  0  0  0  0  0  0  0  0
   32.3824    9.9101    6.8923 C   0  0  0  0  0  0  0  0  0  0  0  0
   31.4088    9.4094    7.7487 N   0  0  0  0  0  0  0  0  0  0  0  0
   30.6654   10.4700    8.2428 C   0  0  0  0  0  0  0  0  0  0  0  0
   31.1044   11.6848    7.7499 C   0  0  0  0  0  0  0  0  0  0  0  0
   30.5334   13.2734    8.0262 S   0  0  0  0  0  6  0  0  0  0  0  0
   29.1524   13.3242    8.9300 N   0  0  0  0  0  0  0  0  0  0  0  0
   31.5617   13.9764    8.7666 O   0  0  0  0  0  0  0  0  0  0  0  0
   30.0722   13.6673    6.7198 O   0  0  0  0  0  0  0  0  0  0  0  0
   32.2499   11.2621    6.8715 C   0  0  0  0  0  0  0  0  0  0  0  0
   33.1484   12.2136    6.0634 C   0  0  0  0  0  0  0  0  0  0  0  0
  1  2  1  0
  2  3  1  0
  3  4  2  0
  3  5  1  0
  5  6  2  0
  6  7  1  0
  7  8  2  0
  8  9  1  0
  9 10  1  0
 10 11  2  0
 11 12  1  0
 12 13  1  0
 12 14  2  0
 12 15  2  0
 11 16  1  0
 16 17  2  0
 17  5  1  0
 16  8  1  0
A    1
 C1 
A    2
 O1 
A    3
 C2 
A    4
 O2 
A    5
 C3 
A    6
 C4 
A    7
 C5 
A    8
 C6 
A    9
 N1 
A   10
 C7 
A   11
 C8 
A   12
 S1 
A   13
 N2 
A   14
 O3 
A   15
 O4 
A   16
 C9 
A   17
 C10
M  END
>  <ref_pdb>  (565) 
Ax0310a

>  <ref_mols>  (565) 
Ax0446a,Ax1080a,Ax0812a,Ax0719a,Ax1140a,Ax0528a,Ax0310a

>  <original SMILES>  (565) 
COC(=O)c1ccc2[nH]cc(S(N)(=O)=O)c2c1

>  <rationale>  (565) 
info info set:sulfonimide_whole;hbond:S87+S125; 

>  <experiment>  (565) 
sulfonimide_whole

>  <cluster_label>  (565) 
3

>  <cluster_rank>  (565) 
222

>  <N_interactions>  (565) 
2

>  <∆∆G>  (565) 
-6.660695

>  <comRMSD>  (565) 
0.498423

>  <ROCS_TanimotoCombo>  (565) 
0.359

>  <ROCS_ShapeTanimoto>  (565) 
0.198

>  <ROCS_ColorTanimoto>  (565) 
0.161

$$$$
Z31479147
     RDKit          3D

 15 16  0  0  0  0  0  0  0  0999 V2000
   32.0588   14.0593    8.8600 O   0  0  0  0  0  0  0  0  0  0  0  0
   31.2289   13.3709    8.2666 C   0  0  0  0  0  0  0  0  0  0  0  0
   31.5283   12.1207    7.7528 C   0  0  0  0  0  0  0  0  0  0  0  0
   32.5095   11.9661    6.7756 C   0  0  0  0  0  0  0  0  0  0  0  0
   32.8019   10.6878    6.2939 C   0  0  0  0  0  0  0  0  0  0  0  0
   33.7451   10.5632    5.3538 F   0  0  0  0  0  0  0  0  0  0  0  0
   32.1431    9.5645    6.7708 C   0  0  0  0  0  0  0  0  0  0  0  0
   31.1668    9.7188    7.7369 C   0  0  0  0  0  0  0  0  0  0  0  0
   30.5087    8.6706    8.2275 F   0  0  0  0  0  0  0  0  0  0  0  0
   30.8488   10.9796    8.2232 C   0  0  0  0  0  0  0  0  0  0  0  0
   29.9459   13.8013    8.0913 N   0  0  0  0  0  0  0  0  0  0  0  0
   28.8881   13.1139    7.3623 C   0  0  0  0  0  0  0  0  0  0  0  0
   27.6428   13.8775    7.7736 C   0  0  0  0  0  0  0  0  0  0  0  0
   28.1695   15.1981    8.2481 C   0  0  0  0  0  0  0  0  0  0  0  0
   29.3637   14.7290    9.0287 C   0  0  0  0  0  0  0  0  0  0  0  0
  1  2  2  0
  2  3  1  0
  3  4  2  0
  4  5  1  0
  5  6  1  0
  5  7  2  0
  7  8  1  0
  8  9  1  0
  8 10  2  0
  2 11  1  0
 11 12  1  0
 12 13  1  0
 13 14  1  0
 14 15  1  0
 10  3  1  0
 15 11  1  0
A    1
 O1 
A    2
 C1 
A    3
 C2 
A    4
 C3 
A    5
 C4 
A    6
 F1 
A    7
 C5 
A    8
 C6 
A    9
 F2 
A   10
 C7 
A   11
 N1 
A   12
 C8 
A   13
 C9 
A   14
 C10
A   15
 C11
M  END
>  <ref_pdb>  (566) 
Ax0310a

>  <ref_mols>  (566) 
Ax0446a,Ax1080a,Ax0812a,Ax0719a,Ax1140a,Ax0528a,Ax0310a

>  <original SMILES>  (566) 
O=C(c1cc(F)cc(F)c1)N1CCCC1

>  <rationale>  (566) 
info info set:3d;hbond:S87; hydroph_interaction:Y89+Y90; 

>  <experiment>  (566) 
3d

>  <cluster_label>  (566) 
3

>  <cluster_rank>  (566) 
223

>  <N_interactions>  (566) 
3

>  <∆∆G>  (566) 
-5.550601

>  <comRMSD>  (566) 
0.555128

>  <ROCS_TanimotoCombo>  (566) 
0.313

>  <ROCS_ShapeTanimoto>  (566) 
0.215

>  <ROCS_ColorTanimoto>  (566) 
0.098

$$$$
EN300_28297877
     RDKit          3D

 24 26  0  0  0  0  0  0  0  0999 V2000
   35.6984   13.4146   10.0291 C   0  0  0  0  0  0  0  0  0  0  0  0
   34.4666   13.9786    9.2576 C   0  0  0  0  0  0  0  0  0  0  0  0
   35.0135   14.4702    7.9291 C   0  0  0  0  0  0  0  0  0  0  0  0
   33.5872   15.0802    9.8625 C   0  0  0  0  0  0  0  0  0  0  0  0
   33.4590   13.0412    8.9047 O   0  0  0  0  0  0  0  0  0  0  0  0
   32.2740   13.6968    8.8354 C   0  0  0  0  0  0  0  0  0  0  0  0
   31.9871   14.6927    9.4634 O   0  0  0  0  0  0  0  0  0  0  0  0
   31.4511   13.1062    7.9731 N   0  0  0  0  0  0  0  0  0  0  0  0
   30.0824   13.5190    7.8486 C   0  0  0  0  0  0  0  0  0  0  0  0
   29.6131   14.2943    9.0834 C   0  0  0  0  0  0  0  0  0  0  0  0
   28.1788   14.7812    9.0231 C   0  0  0  0  0  0  0  0  0  0  0  0
   27.3196   14.4913    7.8063 C   0  0  0  0  0  0  0  0  0  0  0  0
   27.8054   13.7680    6.7140 C   0  0  0  0  0  0  0  0  0  0  0  0
   29.2553   13.2709    6.7620 C   0  0  0  0  0  0  0  0  0  0  0  0
   31.7368   11.8132    7.5555 C   0  0  0  0  0  0  0  0  0  0  0  0
   30.9726   10.8181    7.9955 N   0  0  0  0  0  0  0  0  0  0  0  0
   31.2207    9.5688    7.6326 C   0  0  0  0  0  0  0  0  0  0  0  0
   30.1216    8.5178    8.3746 Cl  0  0  0  0  0  0  0  0  0  0  0  0
   32.1672    9.0691    6.8233 N   0  0  0  0  0  0  0  0  0  0  0  0
   32.9593   10.0314    6.3560 C   0  0  0  0  0  0  0  0  0  0  0  0
   34.0308    9.9178    5.5212 N   0  0  0  0  0  0  0  0  0  0  0  0
   34.4956   11.1485    5.3624 C   0  0  0  0  0  0  0  0  0  0  0  0
   33.7778   12.1002    6.0542 N   0  0  0  0  0  0  0  0  0  0  0  0
   32.7692   11.4736    6.7204 C   0  0  0  0  0  0  0  0  0  0  0  0
  1  2  1  0
  2  3  1  0
  2  4  1  0
  2  5  1  0
  5  6  1  0
  6  7  2  0
  6  8  1  0
  8  9  1  0
  9 10  2  0
 10 11  1  0
 11 12  2  0
 12 13  1  0
 13 14  2  0
  8 15  1  0
 15 16  2  0
 16 17  1  0
 17 18  1  0
 17 19  2  0
 19 20  1  0
 20 21  1  0
 21 22  2  0
 22 23  1  0
 23 24  1  0
 14  9  1  0
 24 15  1  0
 24 20  2  0
A    1
 C1 
A    2
 C2 
A    3
 C3 
A    4
 C4 
A    5
 O1 
A    6
 C5 
A    7
 O2 
A    8
 N1 
A    9
 C6 
A   10
 C7 
A   11
 C8 
A   12
 C9 
A   13
 C10
A   14
 C11
A   15
 C12
A   16
 N2 
A   17
 C13
A   18
CL1 
A   19
 N3 
A   20
 C14
A   21
 N4 
A   22
 C15
A   23
 N5 
A   24
 C16
M  END
>  <ref_pdb>  (567) 
Ax0310a

>  <ref_mols>  (567) 
Ax0446a,Ax1080a,Ax0812a,Ax0719a,Ax1140a,Ax0528a,Ax0310a

>  <original SMILES>  (567) 
CC(C)(C)OC(=O)N(c1ccccc1)c1nc(Cl)nc2nc[nH]c12

>  <rationale>  (567) 
info info set:bb_whole;hbond:S87+G127; hydroph_interaction:Y89+Y90+V84; 

>  <experiment>  (567) 
bb_whole

>  <cluster_label>  (567) 
3

>  <cluster_rank>  (567) 
224

>  <N_interactions>  (567) 
5

>  <∆∆G>  (567) 
-5.427507

>  <comRMSD>  (567) 
0.647579

>  <ROCS_TanimotoCombo>  (567) 
0.414

>  <ROCS_ShapeTanimoto>  (567) 
0.26

>  <ROCS_ColorTanimoto>  (567) 
0.154

$$$$
EN300_27723276
     RDKit          3D

 16 16  0  0  0  0  0  0  0  0999 V2000
   27.7199   11.7962    7.8769 C   0  0  0  0  0  0  0  0  0  0  0  0
   28.5885   13.0506    7.8766 C   0  0  0  0  0  0  0  0  0  0  0  0
   28.3107   13.7032    9.2335 C   0  0  0  0  0  0  0  0  0  0  0  0
   28.1452   14.0413    6.8023 C   0  0  0  0  0  0  0  0  0  0  0  0
   30.0224   12.7384    7.7833 O   0  0  0  0  0  0  0  0  0  0  0  0
   30.3947   11.4472    8.0437 C   0  0  0  0  0  0  0  0  0  0  0  0
   29.8758   10.7006    8.8331 O   0  0  0  0  0  0  0  0  0  0  0  0
   31.5326   10.9275    7.2252 C   0  0  0  0  0  0  0  0  0  0  0  0
   32.3448   11.7669    6.5313 N   0  0  0  0  0  0  0  0  0  0  0  0
   33.3134   11.0827    5.8407 C   0  0  0  0  0  0  0  0  0  0  0  0
   34.3930   12.0529    4.9333 Cl  0  0  0  0  0  0  0  0  0  0  0  0
   33.4501    9.5679    5.8537 C   0  0  0  0  0  0  0  0  0  0  0  0
   34.4228    8.9134    5.1543 O   0  0  0  0  0  0  0  0  0  0  0  0
   32.6123    8.7968    6.5690 N   0  0  0  0  0  0  0  0  0  0  0  0
   31.6476    9.4235    7.2688 C   0  0  0  0  0  0  0  0  0  0  0  0
   30.7755    8.6195    8.0172 N   0  0  0  0  0  0  0  0  0  0  0  0
  1  2  1  0
  2  3  1  0
  2  4  1  0
  2  5  1  0
  5  6  1  0
  6  7  2  0
  6  8  1  0
  8  9  2  0
  9 10  1  0
 10 11  1  0
 10 12  2  0
 12 13  1  0
 12 14  1  0
 14 15  2  0
 15 16  1  0
 15  8  1  0
A    1
 C1 
A    2
 C2 
A    3
 C3 
A    4
 C4 
A    5
 O1 
A    6
 C5 
A    7
 O2 
A    8
 C6 
A    9
 N1 
A   10
 C7 
A   11
CL1 
A   12
 C8 
A   13
 O3 
A   14
 N2 
A   15
 C9 
A   16
 N3 
M  END
>  <ref_pdb>  (568) 
Ax0310a

>  <ref_mols>  (568) 
Ax0446a,Ax1080a,Ax0812a,Ax0719a,Ax1140a,Ax0528a,Ax0310a

>  <original SMILES>  (568) 
CC(C)(C)OC(=O)c1nc(Cl)c(O)nc1N

>  <rationale>  (568) 
info info set:bb_densepocket2;hbond:S87+S105+G127; hydroph_interaction:Y89+Y90; 

>  <experiment>  (568) 
bb_densepocket2

>  <cluster_label>  (568) 
3

>  <cluster_rank>  (568) 
225

>  <N_interactions>  (568) 
5

>  <∆∆G>  (568) 
-4.282219

>  <comRMSD>  (568) 
0.622951

>  <ROCS_TanimotoCombo>  (568) 
0.618

>  <ROCS_ShapeTanimoto>  (568) 
0.266

>  <ROCS_ColorTanimoto>  (568) 
0.352

$$$$
Z838909206
     RDKit          3D

 15 16  0  0  0  0  0  0  0  0999 V2000
   32.2880   13.6478    8.9255 O   0  0  0  0  0  0  0  0  0  0  0  0
   31.1804   14.4978    9.1275 C   0  0  0  0  0  0  0  0  0  0  0  0
   31.1417   15.6409    9.8965 O   0  0  0  0  0  0  0  0  0  0  0  0
   29.9435   14.1431    8.3716 C   0  0  0  0  0  0  0  0  0  0  0  0
   28.7181   14.8751    8.3253 N   0  0  0  0  0  0  0  0  0  0  0  0
   27.8652   14.1438    7.4939 C   0  0  0  0  0  0  0  0  0  0  0  0
   28.3754   12.9950    6.9540 O   0  0  0  0  0  0  0  0  0  0  0  0
   29.6273   12.9741    7.4780 C   0  0  0  0  0  0  0  0  0  0  0  0
   30.6540   11.9311    7.2654 C   0  0  0  0  0  0  0  0  0  0  0  0
   31.8110   12.1308    6.3175 C   0  0  0  0  0  0  0  0  0  0  0  0
   32.7031   11.0733    6.1258 C   0  0  0  0  0  0  0  0  0  0  0  0
   32.5071    9.8673    6.8012 C   0  0  0  0  0  0  0  0  0  0  0  0
   31.3916    9.6795    7.7343 C   0  0  0  0  0  0  0  0  0  0  0  0
   31.2329    8.5343    8.3630 F   0  0  0  0  0  0  0  0  0  0  0  0
   30.4648   10.6386    8.0108 C   0  0  0  0  0  0  0  0  0  0  0  0
  1  2  2  0
  2  3  1  0
  2  4  1  0
  4  5  1  0
  5  6  2  0
  6  7  1  0
  7  8  1  0
  8  9  1  0
  9 10  2  0
 10 11  1  0
 11 12  2  0
 12 13  1  0
 13 14  1  0
 13 15  2  0
  8  4  2  0
 15  9  1  0
A    1
 O1 
A    2
 C1 
A    3
 O2 
A    4
 C2 
A    5
 N1 
A    6
 C3 
A    7
 O3 
A    8
 C4 
A    9
 C5 
A   10
 C6 
A   11
 C7 
A   12
 C8 
A   13
 C9 
A   14
 F1 
A   15
 C10
M  END
>  <ref_pdb>  (569) 
Ax0310a

>  <ref_mols>  (569) 
Ax0446a,Ax1080a,Ax0812a,Ax0719a,Ax1140a,Ax0528a,Ax0310a

>  <original SMILES>  (569) 
O=C(O)c1ncoc1-c1cccc(F)c1

>  <rationale>  (569) 
info info set:3d;halogenbond:S105; hbond:S87+G127; hydroph_interaction:P107; 

>  <experiment>  (569) 
3d

>  <cluster_label>  (569) 
3

>  <cluster_rank>  (569) 
226

>  <N_interactions>  (569) 
4

>  <∆∆G>  (569) 
-3.143992

>  <comRMSD>  (569) 
0.651961

>  <ROCS_TanimotoCombo>  (569) 
0.32

>  <ROCS_ShapeTanimoto>  (569) 
0.203

>  <ROCS_ColorTanimoto>  (569) 
0.116

$$$$
EN300_1618108
     RDKit          3D

 16 16  0  0  0  0  0  0  0  0999 V2000
   33.9605   14.5539    4.9275 C   0  0  0  0  0  0  0  0  0  0  0  0
   32.6330   14.1980    5.3249 O   0  0  0  0  0  0  0  0  0  0  0  0
   32.6490   13.3719    6.3996 C   0  0  0  0  0  0  0  0  0  0  0  0
   33.6705   12.9844    6.9305 O   0  0  0  0  0  0  0  0  0  0  0  0
   31.3611   13.0056    6.7979 C   0  0  2  0  0  0  0  0  0  0  0  0
   30.8343   13.5691    7.9931 C   0  0  0  0  0  0  0  0  0  0  0  0
   32.0589   14.1108    9.1994 S   0  0  0  0  0  6  0  0  0  0  0  0
   30.9828   14.0381   10.4542 N   0  0  0  0  0  0  0  0  0  0  0  0
   32.3219   15.5098    9.3917 O   0  0  0  0  0  0  0  0  0  0  0  0
   33.1397   13.1462    9.2963 O   0  0  0  0  0  0  0  0  0  0  0  0
   31.5004   11.5225    7.0349 C   0  0  0  0  0  0  0  0  0  0  0  0
   30.7339   10.8298    7.9800 C   0  0  0  0  0  0  0  0  0  0  0  0
   30.9313    9.3735    8.1514 C   0  0  0  0  0  0  0  0  0  0  0  0
   31.8880    8.7669    7.3448 C   0  0  0  0  0  0  0  0  0  0  0  0
   32.6318    9.4703    6.4191 C   0  0  0  0  0  0  0  0  0  0  0  0
   32.4438   10.8285    6.2639 C   0  0  0  0  0  0  0  0  0  0  0  0
  1  2  1  0
  2  3  1  0
  3  4  2  0
  3  5  1  0
  5  6  1  1
  6  7  1  0
  7  8  1  0
  7  9  2  0
  7 10  2  0
  5 11  1  0
 11 12  2  0
 12 13  1  0
 13 14  2  0
 14 15  1  0
 15 16  2  0
 16 11  1  0
A    1
 C1 
A    2
 O1 
A    3
 C2 
A    4
 O2 
A    5
 C3 
A    6
 C4 
A    7
 S1 
A    8
 N1 
A    9
 O3 
A   10
 O4 
A   11
 C5 
A   12
 C6 
A   13
 C7 
A   14
 C8 
A   15
 C9 
A   16
 C10
M  END
>  <ref_pdb>  (570) 
Ax0310a

>  <ref_mols>  (570) 
Ax0446a,Ax1080a,Ax0812a,Ax0719a,Ax1140a,Ax0528a,Ax0310a

>  <original SMILES>  (570) 
COC(=O)[C@H](CS(N)(=O)=O)c1ccccc1

>  <rationale>  (570) 
info info set:sulfonimide_whole;hbond:S87+S125+G127; hydroph_interaction:P107; 

>  <experiment>  (570) 
sulfonimide_whole

>  <cluster_label>  (570) 
3

>  <cluster_rank>  (570) 
227

>  <N_interactions>  (570) 
4

>  <∆∆G>  (570) 
-5.934989

>  <comRMSD>  (570) 
0.583963

>  <ROCS_TanimotoCombo>  (570) 
0.342

>  <ROCS_ShapeTanimoto>  (570) 
0.185

>  <ROCS_ColorTanimoto>  (570) 
0.157

$$$$
Z972994828
     RDKit          3D

 18 19  0  0  0  0  0  0  0  0999 V2000
   34.1316    9.0142    4.5091 C   0  0  0  0  0  0  0  0  0  0  0  0
   34.3864   10.0865    4.9002 C   0  0  0  0  0  0  0  0  0  0  0  0
   35.4570   10.7801    4.4773 N   0  0  0  0  0  0  0  0  0  0  0  0
   35.3987   11.9293    5.1596 C   0  0  0  0  0  0  0  0  0  0  0  0
   34.2205   11.9169    6.0340 C   0  0  0  0  0  0  0  0  0  0  0  0
   33.6077   10.6932    5.8232 N   0  0  0  0  0  0  0  0  0  0  0  0
   32.4378   10.4610    6.6083 C   0  0  0  0  0  0  0  0  0  0  0  0
   32.1587    9.2137    7.1313 C   0  0  0  0  0  0  0  0  0  0  0  0
   31.1203    8.8826    7.9515 C   0  0  0  0  0  0  0  0  0  0  0  0
   30.2689    9.8561    8.2992 C   0  0  0  0  0  0  0  0  0  0  0  0
   30.4305   11.2556    7.7714 C   0  0  0  0  0  0  0  0  0  0  0  0
   31.6012   11.5318    6.8675 C   0  0  0  0  0  0  0  0  0  0  0  0
   31.7681   12.8052    6.3940 C   0  0  0  0  0  0  0  0  0  0  0  0
   31.6373   13.5587    7.6172 N   0  0  0  0  0  0  0  0  0  0  0  0
   32.9696   13.8805    8.5656 S   0  0  0  0  0  6  0  0  0  0  0  0
   34.2847   14.4023    7.4599 C   0  0  0  0  0  0  0  0  0  0  0  0
   32.5084   14.9638    9.4035 O   0  0  0  0  0  0  0  0  0  0  0  0
   33.4680   12.6903    9.0980 O   0  0  0  0  0  0  0  0  0  0  0  0
  1  2  1  0
  2  3  2  0
  3  4  1  0
  4  5  2  0
  5  6  1  0
  6  7  1  0
  7  8  2  0
  8  9  1  0
  9 10  2  0
 10 11  1  0
 11 12  2  0
 12 13  1  0
 13 14  1  0
 14 15  1  0
 15 16  1  0
 15 17  2  0
 15 18  2  0
  6  2  1  0
 12  7  1  0
A    1
 C1 
A    2
 C2 
A    3
 N1 
A    4
 C3 
A    5
 C4 
A    6
 N2 
A    7
 C5 
A    8
 C6 
A    9
 C7 
A   10
 C8 
A   11
 C9 
A   12
 C10
A   13
 C11
A   14
 N3 
A   15
 S1 
A   16
 C12
A   17
 O1 
A   18
 O2 
M  END
>  <ref_pdb>  (571) 
Ax0310a

>  <ref_mols>  (571) 
Ax0446a,Ax1080a,Ax0812a,Ax0719a,Ax1140a,Ax0528a,Ax0310a

>  <original SMILES>  (571) 
Cc1nccn1-c1ccccc1CNS(C)(=O)=O

>  <rationale>  (571) 
info info set:3d;hbond:S87+G127; hydroph_interaction:P107; 

>  <experiment>  (571) 
3d

>  <cluster_label>  (571) 
3

>  <cluster_rank>  (571) 
228

>  <N_interactions>  (571) 
4

>  <∆∆G>  (571) 
-5.453044

>  <comRMSD>  (571) 
0.881152

>  <ROCS_TanimotoCombo>  (571) 
0.342

>  <ROCS_ShapeTanimoto>  (571) 
0.218

>  <ROCS_ColorTanimoto>  (571) 
0.125

$$$$
EN300_26587182
     RDKit          3D

 23 25  0  0  0  0  0  0  0  0999 V2000
   31.2797   16.2466   10.2894 O   0  0  0  0  0  0  0  0  0  0  0  0
   30.3303   15.2148   10.5764 C   0  0  0  0  0  0  0  0  0  0  0  0
   29.6385   14.6267    9.3675 C   0  0  0  0  0  0  0  0  0  0  0  0
   28.0689   14.7182    9.2837 C   0  0  0  0  0  0  0  0  0  0  0  0
   27.7027   14.0507    7.9441 C   0  0  0  0  0  0  0  0  0  0  0  0
   28.5464   13.3711    6.7875 C   0  0  0  0  0  0  0  0  0  0  0  0
   30.0191   13.5054    7.2859 C   0  0  0  0  0  0  0  0  0  0  0  0
   30.9697   13.0066    6.4459 O   0  0  0  0  0  0  0  0  0  0  0  0
   31.3701   11.6912    6.7180 C   0  0  0  0  0  0  0  0  0  0  0  0
   30.5646   10.8850    7.6021 N   0  0  0  0  0  0  0  0  0  0  0  0
   31.0804    9.5432    7.7718 C   0  0  0  0  0  0  0  0  0  0  0  0
   30.3292    8.6083    8.7013 C   0  0  0  0  0  0  0  0  0  0  0  0
   31.1102    7.7089    9.2761 F   0  0  0  0  0  0  0  0  0  0  0  0
   29.8746    9.2468    9.7418 F   0  0  0  0  0  0  0  0  0  0  0  0
   29.2430    7.9789    8.2464 F   0  0  0  0  0  0  0  0  0  0  0  0
   32.1958    9.1065    7.1532 N   0  0  0  0  0  0  0  0  0  0  0  0
   32.8813    9.9488    6.3523 C   0  0  0  0  0  0  0  0  0  0  0  0
   34.0311    9.4956    5.7286 C   0  0  0  0  0  0  0  0  0  0  0  0
   34.8105   10.3048    4.9011 C   0  0  0  0  0  0  0  0  0  0  0  0
   34.4429   11.6143    4.6677 C   0  0  0  0  0  0  0  0  0  0  0  0
   33.2923   12.1006    5.2625 C   0  0  0  0  0  0  0  0  0  0  0  0
   32.5171   11.2699    6.1003 C   0  0  0  0  0  0  0  0  0  0  0  0
   30.4660   14.0670    8.4442 C   0  0  0  0  0  0  0  0  0  0  0  0
  1  2  2  0
  2  3  1  0
  3  4  2  0
  4  5  1  0
  5  6  2  0
  6  7  1  0
  7  8  1  0
  8  9  1  0
  9 10  2  0
 10 11  1  0
 11 12  1  0
 12 13  1  0
 12 14  1  0
 12 15  1  0
 11 16  2  0
 16 17  1  0
 17 18  2  0
 18 19  1  0
 19 20  2  0
 20 21  1  0
 21 22  2  0
  7 23  2  0
 23  3  1  0
 22  9  1  0
 22 17  1  0
A    1
 O1 
A    2
 C1 
A    3
 C2 
A    4
 C3 
A    5
 C4 
A    6
 C5 
A    7
 C6 
A    8
 O2 
A    9
 C7 
A   10
 N1 
A   11
 C8 
A   12
 C9 
A   13
 F1 
A   14
 F2 
A   15
 F3 
A   16
 N2 
A   17
 C10
A   18
 C11
A   19
 C12
A   20
 C13
A   21
 C14
A   22
 C15
A   23
 C16
M  END
>  <ref_pdb>  (572) 
Ax0310a

>  <ref_mols>  (572) 
Ax0446a,Ax1080a,Ax0812a,Ax0719a,Ax1140a,Ax0528a,Ax0310a

>  <original SMILES>  (572) 
O=Cc1cccc(Oc2nc(C(F)(F)F)nc3ccccc23)c1

>  <rationale>  (572) 
info info set:bb_whole;hbond:S87; hydroph_interaction:P107+Y90; pistack:H21; 

>  <experiment>  (572) 
bb_whole

>  <cluster_label>  (572) 
3

>  <cluster_rank>  (572) 
229

>  <N_interactions>  (572) 
4

>  <∆∆G>  (572) 
-2.927422

>  <comRMSD>  (572) 
0.577396

>  <ROCS_TanimotoCombo>  (572) 
0.423

>  <ROCS_ShapeTanimoto>  (572) 
0.261

>  <ROCS_ColorTanimoto>  (572) 
0.163

$$$$
EN300_680152
     RDKit          3D

 15 15  0  0  0  0  0  0  0  0999 V2000
   33.8577   14.5935    4.5920 C   0  0  0  0  0  0  0  0  0  0  0  0
   34.3223   14.3543    5.9648 C   0  0  0  0  0  0  0  0  0  0  0  0
   33.7236   13.4243    6.8335 C   0  0  2  0  0  0  0  0  0  0  0  0
   32.5367   12.9967    6.2762 C   0  0  0  0  0  0  0  0  0  0  0  0
   32.1209   11.6476    6.7698 C   0  0  0  0  0  0  0  0  0  0  0  0
   32.7156   10.4850    6.2843 C   0  0  0  0  0  0  0  0  0  0  0  0
   32.3105    9.2384    6.7618 C   0  0  0  0  0  0  0  0  0  0  0  0
   31.3080    9.1649    7.7310 C   0  0  0  0  0  0  0  0  0  0  0  0
   30.7179   10.3153    8.2128 C   0  0  0  0  0  0  0  0  0  0  0  0
   31.1178   11.5566    7.7384 C   0  0  0  0  0  0  0  0  0  0  0  0
   33.5667   13.8751    8.5913 S   0  0  0  0  0  6  0  0  0  0  0  0
   33.8109   12.6924    9.2753 O   0  0  0  0  0  0  0  0  0  0  0  0
   32.3717   14.5866    8.9749 O   0  0  0  0  0  0  0  0  0  0  0  0
   34.9376   14.7322    8.9766 N   0  0  0  0  0  0  0  0  0  0  0  0
   36.1364   13.9748    9.2880 C   0  0  0  0  0  0  0  0  0  0  0  0
  1  2  1  0
  3  2  1  6
  3  4  1  0
  4  5  1  0
  5  6  2  0
  6  7  1  0
  7  8  2  0
  8  9  1  0
  9 10  2  0
  3 11  1  0
 11 12  2  0
 11 13  2  0
 11 14  1  0
 14 15  1  0
 10  5  1  0
A    1
 C1 
A    2
 C2 
A    3
 C3 
A    4
 C4 
A    5
 C5 
A    6
 C6 
A    7
 C7 
A    8
 C8 
A    9
 C9 
A   10
 C10
A   11
 S1 
A   12
 O1 
A   13
 O2 
A   14
 N1 
A   15
 C11
M  END
>  <ref_pdb>  (573) 
Ax0310a

>  <ref_mols>  (573) 
Ax0446a,Ax1080a,Ax0812a,Ax0719a,Ax1140a,Ax0528a,Ax0310a

>  <original SMILES>  (573) 
CC[C@H](Cc1ccccc1)S(=O)(=O)NC

>  <rationale>  (573) 
info info set:sulfonimide_whole;hbond:S87+G127+E85; 

>  <experiment>  (573) 
sulfonimide_whole

>  <cluster_label>  (573) 
3

>  <cluster_rank>  (573) 
230

>  <N_interactions>  (573) 
3

>  <∆∆G>  (573) 
-7.744389

>  <comRMSD>  (573) 
0.702735

>  <ROCS_TanimotoCombo>  (573) 
0.373

>  <ROCS_ShapeTanimoto>  (573) 
0.197

>  <ROCS_ColorTanimoto>  (573) 
0.175

$$$$
EN300_27733407
     RDKit          3D

 17 18  0  0  0  0  0  0  0  0999 V2000
   34.7818   14.9101    9.0015 N   0  0  0  0  0  0  0  0  0  0  0  0
   33.5693   13.8597    8.5658 S   0  0  0  0  0  6  0  0  0  0  0  0
   34.0272   12.6902    9.1799 O   0  0  0  0  0  0  0  0  0  0  0  0
   32.2858   14.4233    8.9483 O   0  0  0  0  0  0  0  0  0  0  0  0
   33.7448   13.6503    6.8093 C   0  0  0  0  0  0  0  0  0  0  0  0
   32.4580   13.1385    6.1427 C   0  0  0  0  0  0  0  0  0  0  0  0
   32.3041   11.6978    6.1730 N   0  0  0  0  0  0  0  0  0  0  0  0
   33.4011   10.9305    5.8244 C   0  0  0  0  0  0  0  0  0  0  0  0
   34.4180   11.3209    5.2708 O   0  0  0  0  0  0  0  0  0  0  0  0
   33.3100    9.4504    6.1894 C   0  0  0  0  0  0  0  0  0  0  0  0
   32.3802    8.9325    6.8991 N   0  0  0  0  0  0  0  0  0  0  0  0
   31.3646    9.7669    7.3290 C   0  0  0  0  0  0  0  0  0  0  0  0
   30.3293    9.0790    8.2072 C   0  0  0  0  0  0  0  0  0  0  0  0
   29.1838    9.9522    8.6698 C   0  0  0  0  0  0  0  0  0  0  0  0
   29.0917   11.4274    8.2618 C   0  0  0  0  0  0  0  0  0  0  0  0
   30.0841   11.9838    7.4688 C   0  0  0  0  0  0  0  0  0  0  0  0
   31.2783   11.1313    6.9805 C   0  0  0  0  0  0  0  0  0  0  0  0
  1  2  1  0
  2  3  2  0
  2  4  2  0
  2  5  1  0
  5  6  1  0
  6  7  1  0
  7  8  1  0
  8  9  2  0
  8 10  1  0
 10 11  2  0
 11 12  1  0
 12 13  2  0
 13 14  1  0
 14 15  2  0
 15 16  1  0
 16 17  2  0
 17  7  1  0
 17 12  1  0
A    1
 N1 
A    2
 S1 
A    3
 O1 
A    4
 O2 
A    5
 C1 
A    6
 C2 
A    7
 N2 
A    8
 C3 
A    9
 O3 
A   10
 C4 
A   11
 N3 
A   12
 C5 
A   13
 C6 
A   14
 C7 
A   15
 C8 
A   16
 C9 
A   17
 C10
M  END
>  <ref_pdb>  (574) 
Ax0310a

>  <ref_mols>  (574) 
Ax0446a,Ax1080a,Ax0812a,Ax0719a,Ax1140a,Ax0528a,Ax0310a

>  <original SMILES>  (574) 
NS(=O)(=O)CCn1c(=O)cnc2ccccc21

>  <rationale>  (574) 
info info set:bb_whole;hbond:S87+G127+E85; 

>  <experiment>  (574) 
bb_whole

>  <cluster_label>  (574) 
3

>  <cluster_rank>  (574) 
231

>  <N_interactions>  (574) 
3

>  <∆∆G>  (574) 
-4.173715

>  <comRMSD>  (574) 
0.538066

>  <ROCS_TanimotoCombo>  (574) 
0.434

>  <ROCS_ShapeTanimoto>  (574) 
0.233

>  <ROCS_ColorTanimoto>  (574) 
0.201

$$$$
Z1640901244
     RDKit          3D

 18 19  0  0  0  0  0  0  0  0999 V2000
   32.1558   13.0361    4.9555 C   0  0  0  0  0  0  0  0  0  0  0  0
   31.3677   12.5895    6.1051 N   0  0  0  0  0  0  0  0  0  0  0  0
   31.5851   13.3319    7.1657 C   0  0  0  0  0  0  0  0  0  0  0  0
   30.2748   13.8527    7.6832 C   0  0  0  0  0  0  0  0  0  0  0  0
   29.0738   13.7877    6.7580 C   0  0  0  0  0  0  0  0  0  0  0  0
   27.7740   14.3214    7.2708 C   0  0  0  0  0  0  0  0  0  0  0  0
   27.7830   14.8515    8.6127 C   0  0  0  0  0  0  0  0  0  0  0  0
   29.0419   14.8492    9.4448 C   0  0  0  0  0  0  0  0  0  0  0  0
   30.2127   14.3732    8.9529 C   0  0  0  0  0  0  0  0  0  0  0  0
   31.6060   14.4453    9.9236 Cl  0  0  0  0  0  0  0  0  0  0  0  0
   31.4900   11.3748    6.6146 C   0  0  0  0  0  0  0  0  0  0  0  0
   30.7065   11.0724    7.5910 N   0  0  0  0  0  0  0  0  0  0  0  0
   30.8094    9.8827    8.2027 C   0  0  0  0  0  0  0  0  0  0  0  0
   30.3000    9.6406    9.2771 O   0  0  0  0  0  0  0  0  0  0  0  0
   31.5142    8.9336    7.5686 N   0  0  0  0  0  0  0  0  0  0  0  0
   32.4726    9.2329    6.6602 C   0  0  0  0  0  0  0  0  0  0  0  0
   33.2851    8.4581    6.3195 O   0  0  0  0  0  0  0  0  0  0  0  0
   32.5384   10.4994    6.1172 C   0  0  0  0  0  0  0  0  0  0  0  0
  1  2  1  0
  2  3  1  0
  3  4  1  0
  4  5  2  0
  5  6  1  0
  6  7  2  0
  7  8  1  0
  8  9  2  0
  9 10  1  0
  2 11  1  0
 11 12  2  0
 12 13  1  0
 13 14  2  0
 13 15  1  0
 15 16  1  0
 16 17  2  0
 16 18  1  0
  9  4  1  0
 18 11  1  0
A    1
 C1 
A    2
 N1 
A    3
 C2 
A    4
 C3 
A    5
 C4 
A    6
 C5 
A    7
 C6 
A    8
 C7 
A    9
 C8 
A   10
CL1 
A   11
 C9 
A   12
 N2 
A   13
 C10
A   14
 O1 
A   15
 N3 
A   16
 C11
A   17
 O2 
A   18
 C12
M  END
>  <ref_pdb>  (575) 
Ax0310a

>  <ref_mols>  (575) 
Ax0446a,Ax1080a,Ax0812a,Ax0719a,Ax1140a,Ax0528a,Ax0310a

>  <original SMILES>  (575) 
CN(Cc1ccccc1Cl)C1=NC(=O)NC(=O)C1

>  <rationale>  (575) 
info info set:3d;hbond:S105; hydroph_interaction:P107+Y89+Y90; 

>  <experiment>  (575) 
3d

>  <cluster_label>  (575) 
3

>  <cluster_rank>  (575) 
232

>  <N_interactions>  (575) 
5

>  <∆∆G>  (575) 
-0.567252

>  <comRMSD>  (575) 
0.739301

>  <ROCS_TanimotoCombo>  (575) 
0.328

>  <ROCS_ShapeTanimoto>  (575) 
0.194

>  <ROCS_ColorTanimoto>  (575) 
0.135

$$$$
EN300_7466146
     RDKit          3D

 25 28  0  0  0  0  0  0  0  0999 V2000
   32.7136   13.6545    9.3492 N   0  0  0  0  0  0  0  0  0  0  0  0
   31.7112   14.6760    9.5506 C   0  0  0  0  0  0  0  0  0  0  0  0
   31.9928   15.9470   10.1013 O   0  0  0  0  0  0  0  0  0  0  0  0
   30.3460   14.3571    9.0410 C   0  0  0  0  0  0  0  0  0  0  0  0
   29.0040   14.6666    9.5981 C   0  0  0  0  0  0  0  0  0  0  0  0
   27.6475   14.3625    9.0255 C   0  0  0  0  0  0  0  0  0  0  0  0
   27.5976   13.6176    7.6935 C   0  0  0  0  0  0  0  0  0  0  0  0
   28.8124   13.3040    7.1592 C   0  0  0  0  0  0  0  0  0  0  0  0
   30.0429   13.6100    7.7127 C   0  0  0  0  0  0  0  0  0  0  0  0
   31.1410   13.2441    7.0364 O   0  0  0  0  0  0  0  0  0  0  0  0
   31.4598   11.9225    6.9819 C   0  0  0  0  0  0  0  0  0  0  0  0
   30.6433   10.9473    7.4101 N   0  0  0  0  0  0  0  0  0  0  0  0
   31.0725    9.6821    7.2635 C   0  0  0  0  0  0  0  0  0  0  0  0
   32.1981    9.2821    6.7038 N   0  0  0  0  0  0  0  0  0  0  0  0
   32.9544   10.3125    6.3273 C   0  0  0  0  0  0  0  0  0  0  0  0
   34.4336   10.0512    5.6051 S   0  0  0  0  0  0  0  0  0  0  0  0
   34.8382   11.7315    5.6364 C   0  0  0  0  0  0  0  0  0  0  0  0
   36.2348   12.0937    5.3046 C   0  0  0  0  0  0  0  0  0  0  0  0
   36.7414   12.8890    6.3504 C   0  0  0  0  0  0  0  0  0  0  0  0
   38.0602   13.3070    6.3861 C   0  0  0  0  0  0  0  0  0  0  0  0
   38.9117   12.9642    5.3569 C   0  0  0  0  0  0  0  0  0  0  0  0
   38.4222   12.1980    4.2910 C   0  0  0  0  0  0  0  0  0  0  0  0
   37.0663   11.7488    4.2555 C   0  0  0  0  0  0  0  0  0  0  0  0
   33.7674   12.4797    6.0478 C   0  0  0  0  0  0  0  0  0  0  0  0
   32.6827   11.6405    6.4648 C   0  0  0  0  0  0  0  0  0  0  0  0
  1  2  1  0
  2  3  2  0
  2  4  1  0
  4  5  2  0
  5  6  1  0
  6  7  2  0
  7  8  1  0
  8  9  2  0
  9 10  1  0
 10 11  1  0
 11 12  2  0
 12 13  1  0
 13 14  2  0
 14 15  1  0
 15 16  1  0
 16 17  1  0
 17 18  1  0
 18 19  2  0
 19 20  1  0
 20 21  2  0
 21 22  1  0
 22 23  2  0
 17 24  2  0
 24 25  1  0
  9  4  1  0
 25 11  1  0
 25 15  2  0
 23 18  1  0
A    1
 N1 
A    2
 C1 
A    3
 O1 
A    4
 C2 
A    5
 C3 
A    6
 C4 
A    7
 C5 
A    8
 C6 
A    9
 C7 
A   10
 O2 
A   11
 C8 
A   12
 N2 
A   13
 C9 
A   14
 N3 
A   15
 C10
A   16
 S1 
A   17
 C11
A   18
 C12
A   19
 C13
A   20
 C14
A   21
 C15
A   22
 C16
A   23
 C17
A   24
 C18
A   25
 C19
M  END
>  <ref_pdb>  (576) 
Ax0310a

>  <ref_mols>  (576) 
Ax0446a,Ax1080a,Ax0812a,Ax0719a,Ax1140a,Ax0528a,Ax0310a

>  <original SMILES>  (576) 
NC(=O)c1ccccc1Oc1ncnc2sc(-c3ccccc3)cc12

>  <rationale>  (576) 
info info set:bb_whole;hbond:S87+S125+G127; hydroph_interaction:Y90+E85; pistack:H21; 

>  <experiment>  (576) 
bb_whole

>  <cluster_label>  (576) 
3

>  <cluster_rank>  (576) 
233

>  <N_interactions>  (576) 
6

>  <∆∆G>  (576) 
-3.58953

>  <comRMSD>  (576) 
0.986186

>  <ROCS_TanimotoCombo>  (576) 
0.417

>  <ROCS_ShapeTanimoto>  (576) 
0.227

>  <ROCS_ColorTanimoto>  (576) 
0.191

$$$$
Z31227441
     RDKit          3D

 26 29  0  0  0  0  0  0  0  0999 V2000
   26.1724   11.8892    6.0122 C   0  0  0  0  0  0  0  0  0  0  0  0
   26.5929   13.2368    6.1018 O   0  0  0  0  0  0  0  0  0  0  0  0
   27.6266   13.5993    6.9529 C   0  0  0  0  0  0  0  0  0  0  0  0
   27.4783   14.3331    8.1199 C   0  0  0  0  0  0  0  0  0  0  0  0
   28.5336   14.6783    8.9336 C   0  0  0  0  0  0  0  0  0  0  0  0
   29.8077   14.3027    8.5926 C   0  0  0  0  0  0  0  0  0  0  0  0
   30.9624   14.6889    9.4518 C   0  0  0  0  0  0  0  0  0  0  0  0
   30.8664   15.6815   10.5799 C   0  0  0  0  0  0  0  0  0  0  0  0
   32.1160   14.0794    9.1024 O   0  0  0  0  0  0  0  0  0  0  0  0
   30.0030   13.5683    7.4265 C   0  0  0  0  0  0  0  0  0  0  0  0
   31.2641   13.1912    7.0441 O   0  0  0  0  0  0  0  0  0  0  0  0
   31.5460   11.8475    7.0676 C   0  0  0  0  0  0  0  0  0  0  0  0
   30.7849   11.0119    7.7850 N   0  0  0  0  0  0  0  0  0  0  0  0
   31.0965    9.7124    7.7792 C   0  0  0  0  0  0  0  0  0  0  0  0
   30.2541    8.8514    8.6274 C   0  0  0  0  0  0  0  0  0  0  0  0
   32.0879    9.1357    7.1001 N   0  0  0  0  0  0  0  0  0  0  0  0
   32.8233   10.0084    6.4010 C   0  0  0  0  0  0  0  0  0  0  0  0
   34.1576    9.4899    5.4590 S   0  0  0  0  0  0  0  0  0  0  0  0
   34.5293   11.0887    5.0030 C   0  0  0  0  0  0  0  0  0  0  0  0
   33.6109   11.9643    5.5507 C   0  0  0  0  0  0  0  0  0  0  0  0
   32.6294   11.3763    6.3458 C   0  0  0  0  0  0  0  0  0  0  0  0
   33.7452   13.4263    5.2675 C   0  0  0  0  0  0  0  0  0  0  0  0
   35.2248   13.7971    5.0886 C   0  0  0  0  0  0  0  0  0  0  0  0
   35.9060   12.9697    3.9853 C   0  0  0  0  0  0  0  0  0  0  0  0
   35.6948   11.4466    4.1300 C   0  0  0  0  0  0  0  0  0  0  0  0
   28.9234   13.2125    6.6110 C   0  0  0  0  0  0  0  0  0  0  0  0
  1  2  1  0
  2  3  1  0
  3  4  2  0
  4  5  1  0
  5  6  2  0
  6  7  1  0
  7  8  1  0
  7  9  2  0
  6 10  1  0
 10 11  1  0
 11 12  1  0
 12 13  2  0
 13 14  1  0
 14 15  1  0
 14 16  2  0
 16 17  1  0
 17 18  1  0
 18 19  1  0
 19 20  2  0
 20 21  1  0
 20 22  1  0
 22 23  1  0
 23 24  1  0
 24 25  1  0
 10 26  2  0
 26  3  1  0
 21 12  1  0
 21 17  2  0
 25 19  1  0
A    1
 C1 
A    2
 O1 
A    3
 C2 
A    4
 C3 
A    5
 C4 
A    6
 C5 
A    7
 C6 
A    8
 C7 
A    9
 O2 
A   10
 C8 
A   11
 O3 
A   12
 C9 
A   13
 N1 
A   14
 C10
A   15
 C11
A   16
 N2 
A   17
 C12
A   18
 S1 
A   19
 C13
A   20
 C14
A   21
 C15
A   22
 C16
A   23
 C17
A   24
 C18
A   25
 C19
A   26
 C20
M  END
>  <ref_pdb>  (577) 
Ax0310a

>  <ref_mols>  (577) 
Ax0446a,Ax1080a,Ax0812a,Ax0719a,Ax1140a,Ax0528a,Ax0310a

>  <original SMILES>  (577) 
COc1ccc(C(C)=O)c(Oc2nc(C)nc3sc4c(c23)CCCC4)c1

>  <rationale>  (577) 
info info set:screening_whole;hbond:S87; hydroph_interaction:P107+Y89+V124; 

>  <experiment>  (577) 
screening_whole

>  <cluster_label>  (577) 
3

>  <cluster_rank>  (577) 
234

>  <N_interactions>  (577) 
4

>  <∆∆G>  (577) 
-11.605221

>  <comRMSD>  (577) 
0.610322

>  <ROCS_TanimotoCombo>  (577) 
0.461

>  <ROCS_ShapeTanimoto>  (577) 
0.272

>  <ROCS_ColorTanimoto>  (577) 
0.189

$$$$
Z1937846200
     RDKit          3D

 17 18  0  0  0  0  0  0  0  0999 V2000
   34.8568    9.0991    3.7693 C   0  0  0  0  0  0  0  0  0  0  0  0
   34.4767    8.8764    5.0696 N   0  0  0  0  0  0  0  0  0  0  0  0
   33.5100    9.5617    5.8027 C   0  0  0  0  0  0  0  0  0  0  0  0
   33.3851   10.9338    5.8697 C   0  0  0  0  0  0  0  0  0  0  0  0
   32.3872   11.5041    6.6184 C   0  0  0  0  0  0  0  0  0  0  0  0
   31.5084   10.7032    7.3041 C   0  0  0  0  0  0  0  0  0  0  0  0
   30.3928   11.2031    8.1294 C   0  0  0  0  0  0  0  0  0  0  0  0
   30.1004   10.2282    9.0962 O   0  0  0  0  0  0  0  0  0  0  0  0
   29.7803   12.4377    7.8742 N   0  0  0  0  0  0  0  0  0  0  0  0
   28.6171   12.8220    8.4402 C   0  0  0  0  0  0  0  0  0  0  0  0
   28.6018   14.2770    8.6535 C   0  0  0  0  0  0  0  0  0  0  0  0
   28.7877   15.2260    7.4579 C   0  0  0  0  0  0  0  0  0  0  0  0
   28.8198   16.4245    7.4391 O   0  0  0  0  0  0  0  0  0  0  0  0
   28.9260   14.0815    6.4156 C   0  0  0  0  0  0  0  0  0  0  0  0
   29.9056   13.1279    6.7513 C   0  0  0  0  0  0  0  0  0  0  0  0
   31.6789    9.3443    7.2139 C   0  0  0  0  0  0  0  0  0  0  0  0
   32.6566    8.7735    6.4796 N   0  0  0  0  0  0  0  0  0  0  0  0
  1  2  1  0
  2  3  1  0
  3  4  2  0
  4  5  1  0
  5  6  2  0
  6  7  1  0
  7  8  2  0
  7  9  1  0
  9 10  1  0
 10 11  1  0
 11 12  1  0
 12 13  2  0
 12 14  1  0
 14 15  1  0
  6 16  1  0
 16 17  2  0
 17  3  1  0
 15  9  1  0
A    1
 C1 
A    2
 N1 
A    3
 C2 
A    4
 C3 
A    5
 C4 
A    6
 C5 
A    7
 C6 
A    8
 O1 
A    9
 N2 
A   10
 C7 
A   11
 C8 
A   12
 C9 
A   13
 O2 
A   14
 C10
A   15
 C11
A   16
 C12
A   17
 N3 
M  END
>  <ref_pdb>  (578) 
Ax0310a

>  <ref_mols>  (578) 
Ax0446a,Ax1080a,Ax0812a,Ax0719a,Ax1140a,Ax0528a,Ax0310a

>  <original SMILES>  (578) 
CNc1ccc(C(=O)N2CCC(=O)CC2)cn1

>  <rationale>  (578) 
info info set:screening_pocket;hbond:S105+Y90; 

>  <experiment>  (578) 
screening_pocket

>  <cluster_label>  (578) 
3

>  <cluster_rank>  (578) 
235

>  <N_interactions>  (578) 
2

>  <∆∆G>  (578) 
-2.943377

>  <comRMSD>  (578) 
0.582879

>  <ROCS_TanimotoCombo>  (578) 
0.694

>  <ROCS_ShapeTanimoto>  (578) 
0.245

>  <ROCS_ColorTanimoto>  (578) 
0.449

$$$$
EN300_106712
     RDKit          3D

 11 12  0  0  0  0  0  0  0  0999 V2000
   33.2597   10.4843    5.4695 C   0  0  0  0  0  0  0  0  0  0  0  0
   33.2676    9.2340    6.0202 C   0  0  0  0  0  0  0  0  0  0  0  0
   32.3938    8.8127    6.9664 N   0  0  0  0  0  0  0  0  0  0  0  0
   31.4606    9.6583    7.4008 C   0  0  0  0  0  0  0  0  0  0  0  0
   31.3670   10.9748    6.8600 C   0  0  0  0  0  0  0  0  0  0  0  0
   32.2914   11.3559    5.9000 C   0  0  0  0  0  0  0  0  0  0  0  0
   30.4442   11.9615    7.1738 N   0  0  0  0  0  0  0  0  0  0  0  0
   29.8836   11.7266    8.4305 C   0  0  0  0  0  0  0  0  0  0  0  0
   28.7717   10.7234    8.4650 C   0  0  0  0  0  0  0  0  0  0  0  0
   29.2355    9.2666    8.5588 C   0  0  0  0  0  0  0  0  0  0  0  0
   30.6730    9.0503    8.4150 N   0  0  0  0  0  0  0  0  0  0  0  0
  1  2  2  0
  2  3  1  0
  3  4  2  0
  4  5  1  0
  5  6  2  0
  5  7  1  0
  7  8  1  0
  8  9  1  0
  9 10  1  0
 10 11  1  0
  6  1  1  0
 11  4  1  0
A    1
 C1 
A    2
 C2 
A    3
 N1 
A    4
 C3 
A    5
 C4 
A    6
 C5 
A    7
 N2 
A    8
 C6 
A    9
 C7 
A   10
 C8 
A   11
 N3 
M  END
>  <ref_pdb>  (579) 
Ax0310a

>  <ref_mols>  (579) 
Ax0446a,Ax1080a,Ax0812a,Ax0719a,Ax1140a,Ax0528a,Ax0310a

>  <original SMILES>  (579) 
c1cnc2c(c1)NCCCN2

>  <rationale>  (579) 
info info set:bb_densepocket2;hbond:T126; hydroph_interaction:P107; 

>  <experiment>  (579) 
bb_densepocket2

>  <cluster_label>  (579) 
3

>  <cluster_rank>  (579) 
236

>  <N_interactions>  (579) 
2

>  <∆∆G>  (579) 
-2.709804

>  <comRMSD>  (579) 
0.769061

>  <ROCS_TanimotoCombo>  (579) 
0.627

>  <ROCS_ShapeTanimoto>  (579) 
0.209

>  <ROCS_ColorTanimoto>  (579) 
0.418

$$$$
EN300_9196113
     RDKit          3D

 15 16  0  0  0  0  0  0  0  0999 V2000
   30.3572    7.8805    8.6517 C   0  0  0  0  0  0  0  0  0  0  0  0
   30.9713    9.0582    8.0441 C   0  0  0  0  0  0  0  0  0  0  0  0
   30.6789   10.3023    8.4245 C   0  0  0  0  0  0  0  0  0  0  0  0
   31.4061   11.1972    7.7170 C   0  0  0  0  0  0  0  0  0  0  0  0
   31.4404   12.9096    7.8325 S   0  0  0  0  0  6  0  0  0  0  0  0
   30.2459   13.4015    8.9084 N   0  0  0  0  0  0  0  0  0  0  0  0
   32.7130   13.1666    8.4871 O   0  0  0  0  0  0  0  0  0  0  0  0
   31.0373   13.3624    6.5305 O   0  0  0  0  0  0  0  0  0  0  0  0
   32.1157   10.3977    6.8904 N   0  0  0  0  0  0  0  0  0  0  0  0
   32.9884   10.9005    5.9587 C   0  0  0  0  0  0  0  0  0  0  0  0
   33.8775   10.0659    5.2716 C   0  0  0  0  0  0  0  0  0  0  0  0
   34.9625   10.9384    4.8430 C   0  0  0  0  0  0  0  0  0  0  0  0
   34.7265   12.1520    5.4931 C   0  0  0  0  0  0  0  0  0  0  0  0
   33.6197   12.1175    6.3512 C   0  0  0  0  0  0  0  0  0  0  0  0
   31.8833    9.0635    7.0633 N   0  0  0  0  0  0  0  0  0  0  0  0
  1  2  1  0
  2  3  1  0
  3  4  2  0
  4  5  1  0
  5  6  1  0
  5  7  2  0
  5  8  2  0
  4  9  1  0
  9 10  1  0
 10 11  1  0
 11 12  1  0
 12 13  1  0
 13 14  1  0
  9 15  1  0
 15  2  2  0
 14 10  1  0
A    1
 C1 
A    2
 C2 
A    3
 C3 
A    4
 C4 
A    5
 S1 
A    6
 N1 
A    7
 O1 
A    8
 O2 
A    9
 N2 
A   10
 C5 
A   11
 C6 
A   12
 C7 
A   13
 C8 
A   14
 C9 
A   15
 N3 
M  END
>  <ref_pdb>  (580) 
Ax0310a

>  <ref_mols>  (580) 
Ax0446a,Ax1080a,Ax0812a,Ax0719a,Ax1140a,Ax0528a,Ax0310a

>  <original SMILES>  (580) 
Cc1cc(S(N)(=O)=O)n(C2CCCC2)n1

>  <rationale>  (580) 
info info set:sulfonimide_whole;hbond:S87+S125+G127; hydroph_interaction:V124; 

>  <experiment>  (580) 
sulfonimide_whole

>  <cluster_label>  (580) 
3

>  <cluster_rank>  (580) 
237

>  <N_interactions>  (580) 
4

>  <∆∆G>  (580) 
-6.576377

>  <comRMSD>  (580) 
0.564768

>  <ROCS_TanimotoCombo>  (580) 
0.343

>  <ROCS_ShapeTanimoto>  (580) 
0.208

>  <ROCS_ColorTanimoto>  (580) 
0.135

$$$$
EN300_2982593
     RDKit          3D

 10 10  0  0  0  0  0  0  0  0999 V2000
   29.6012    7.9968    8.5378 C   0  0  0  0  0  0  0  0  0  0  0  0
   30.3601    9.2018    8.9401 C   0  0  0  0  0  0  0  0  0  0  0  0
   31.2625    9.6887    7.8606 C   0  0  0  0  0  0  0  0  0  0  0  0
   32.0003    8.7952    7.2245 N   0  0  0  0  0  0  0  0  0  0  0  0
   32.8436    9.2556    6.2585 C   0  0  0  0  0  0  0  0  0  0  0  0
   33.1607   10.7231    5.6900 C   0  0  0  0  0  0  0  0  0  0  0  0
   32.3187   11.5915    6.4283 C   0  0  0  0  0  0  0  0  0  0  0  0
   32.3250   13.0580    6.1856 C   0  0  0  0  0  0  0  0  0  0  0  0
   31.3175   11.1715    7.5441 C   0  0  0  0  0  0  0  0  0  0  0  0
   30.5256   12.1204    8.2133 N   0  0  0  0  0  0  0  0  0  0  0  0
  1  2  3  0
  2  3  1  0
  3  4  2  0
  4  5  1  0
  5  6  2  0
  6  7  1  0
  7  8  1  0
  7  9  2  0
  9 10  1  0
  9  3  1  0
A    1
 C1 
A    2
 C2 
A    3
 C3 
A    4
 N1 
A    5
 C4 
A    6
 C5 
A    7
 C6 
A    8
 C7 
A    9
 C8 
A   10
 N2 
M  END
>  <ref_pdb>  (581) 
Ax0310a

>  <ref_mols>  (581) 
Ax0446a,Ax1080a,Ax0812a,Ax0719a,Ax1140a,Ax0528a,Ax0310a

>  <original SMILES>  (581) 
C#Cc1nccc(C)c1N

>  <rationale>  (581) 
info info set:bb_densepocket2;hbond:S125; hydroph_interaction:P107+V124+D109; 

>  <experiment>  (581) 
bb_densepocket2

>  <cluster_label>  (581) 
3

>  <cluster_rank>  (581) 
238

>  <N_interactions>  (581) 
4

>  <∆∆G>  (581) 
-3.767491

>  <comRMSD>  (581) 
0.44504

>  <ROCS_TanimotoCombo>  (581) 
0.62

>  <ROCS_ShapeTanimoto>  (581) 
0.204

>  <ROCS_ColorTanimoto>  (581) 
0.416

$$$$
Z224209256
     RDKit          3D

 15 15  0  0  0  0  0  0  0  0999 V2000
   35.9333   14.1543    8.1468 C   0  0  0  0  0  0  0  0  0  0  0  0
   34.7854   14.3438    7.2141 C   0  0  0  0  0  0  0  0  0  0  0  0
   33.7730   13.2586    7.5599 C   0  0  0  0  0  0  0  0  0  0  0  0
   33.4165   13.0438    8.7240 O   0  0  0  0  0  0  0  0  0  0  0  0
   33.3446   12.4829    6.3591 N   0  0  0  0  0  0  0  0  0  0  0  0
   34.2150   12.4116    5.2926 C   0  0  0  0  0  0  0  0  0  0  0  0
   32.5673   11.4567    6.7685 C   0  0  0  0  0  0  0  0  0  0  0  0
   32.9658   10.0060    6.5964 C   0  0  0  0  0  0  0  0  0  0  0  0
   32.1028    8.8816    7.1072 C   0  0  0  0  0  0  0  0  0  0  0  0
   30.9297    9.1918    7.7357 C   0  0  0  0  0  0  0  0  0  0  0  0
   30.4626   10.6265    7.9174 C   0  0  0  0  0  0  0  0  0  0  0  0
   31.2565   11.6399    7.4411 C   0  0  0  0  0  0  0  0  0  0  0  0
   30.6163   12.9962    7.6900 C   0  0  0  0  0  0  0  0  0  0  0  0
   30.8207   13.7572    8.6145 O   0  0  0  0  0  0  0  0  0  0  0  0
   29.7456   13.2941    6.7010 O   0  0  0  0  0  0  0  0  0  0  0  0
  1  2  1  0
  2  3  1  0
  3  4  2  0
  3  5  1  0
  5  6  1  0
  5  7  1  0
  7  8  2  0
  8  9  1  0
  9 10  2  0
 10 11  1  0
 11 12  2  0
 12 13  1  0
 13 14  2  0
 13 15  1  0
 12  7  1  0
A    1
 C1 
A    2
 C2 
A    3
 C3 
A    4
 O1 
A    5
 N1 
A    6
 C4 
A    7
 C5 
A    8
 C6 
A    9
 C7 
A   10
 C8 
A   11
 C9 
A   12
 C10
A   13
 C11
A   14
 O2 
A   15
 O3 
M  END
>  <ref_pdb>  (582) 
Ax0310a

>  <ref_mols>  (582) 
Ax0446a,Ax1080a,Ax0812a,Ax0719a,Ax1140a,Ax0528a,Ax0310a

>  <original SMILES>  (582) 
CCC(=O)N(C)c1ccccc1C(=O)O

>  <rationale>  (582) 
info info set:3d;hbond:S87+G127; hydroph_interaction:V84+E85; 

>  <experiment>  (582) 
3d

>  <cluster_label>  (582) 
3

>  <cluster_rank>  (582) 
239

>  <N_interactions>  (582) 
4

>  <∆∆G>  (582) 
-6.669119

>  <comRMSD>  (582) 
0.618972

>  <ROCS_TanimotoCombo>  (582) 
0.323

>  <ROCS_ShapeTanimoto>  (582) 
0.209

>  <ROCS_ColorTanimoto>  (582) 
0.114

$$$$
Z5186256512
     RDKit          3D

 20 21  0  0  0  0  0  0  0  0999 V2000
   34.0862   12.3134    4.4799 C   0  0  0  0  0  0  0  0  0  0  0  0
   34.2135   11.1338    4.6400 C   0  0  0  0  0  0  0  0  0  0  0  0
   34.7496    9.8088    4.4792 C   0  0  0  0  0  0  0  0  0  0  0  0
   34.1795    8.8569    5.1900 N   0  0  0  0  0  0  0  0  0  0  0  0
   33.2171    9.3804    5.9101 C   0  0  0  0  0  0  0  0  0  0  0  0
   32.4536    8.6544    6.7486 N   0  0  0  0  0  0  0  0  0  0  0  0
   31.4855    9.4317    7.3994 C   0  0  0  0  0  0  0  0  0  0  0  0
   31.2909   10.7740    7.2454 C   0  0  0  0  0  0  0  0  0  0  0  0
   30.3225   11.3793    7.9290 C   0  0  0  0  0  0  0  0  0  0  0  0
   30.0130   10.7617    8.8836 O   0  0  0  0  0  0  0  0  0  0  0  0
   29.6811   12.5291    7.5897 N   0  0  0  0  0  0  0  0  0  0  0  0
   29.5869   13.0547    6.2485 C   0  0  0  0  0  0  0  0  0  0  0  0
   28.4727   12.7838    8.3802 C   0  0  0  0  0  0  0  0  0  0  0  0
   28.2428   14.0296    9.0453 C   0  0  0  0  0  0  0  0  0  0  0  0
   29.5868   15.0416    8.7256 S   0  0  0  0  0  6  0  0  0  0  0  0
   30.2195   15.4226   10.2283 N   0  0  0  0  0  0  0  0  0  0  0  0
   30.6264   14.2246    8.1556 O   0  0  0  0  0  0  0  0  0  0  0  0
   29.0401   16.2187    8.0971 O   0  0  0  0  0  0  0  0  0  0  0  0
   32.2105   11.5227    6.2813 C   0  0  0  0  0  0  0  0  0  0  0  0
   33.1892   10.7582    5.6147 C   0  0  0  0  0  0  0  0  0  0  0  0
  1  2  1  0
  2  3  2  0
  3  4  1  0
  4  5  1  0
  5  6  2  0
  6  7  1  0
  7  8  2  0
  8  9  1  0
  9 10  2  0
  9 11  1  0
 11 12  1  0
 11 13  1  0
 13 14  1  0
 14 15  1  0
 15 16  1  0
 15 17  2  0
 15 18  2  0
  8 19  1  0
 19 20  2  0
 20  2  1  0
 20  5  1  0
A    1
 C1 
A    2
 C2 
A    3
 C3 
A    4
 N1 
A    5
 C4 
A    6
 N2 
A    7
 C5 
A    8
 C6 
A    9
 C7 
A   10
 O1 
A   11
 N3 
A   12
 C8 
A   13
 C9 
A   14
 C10
A   15
 S1 
A   16
 N4 
A   17
 O2 
A   18
 O3 
A   19
 C11
A   20
 C12
M  END
>  <ref_pdb>  (583) 
Ax0310a

>  <ref_mols>  (583) 
Ax0446a,Ax1080a,Ax0812a,Ax0719a,Ax1140a,Ax0528a,Ax0310a

>  <original SMILES>  (583) 
Cc1c[nH]c2ncc(C(=O)N(C)CCS(N)(=O)=O)cc12

>  <rationale>  (583) 
info info set:screening_pocket;hbond:S87+S105+Y90; hydroph_interaction:P107; 

>  <experiment>  (583) 
screening_pocket

>  <cluster_label>  (583) 
3

>  <cluster_rank>  (583) 
240

>  <N_interactions>  (583) 
5

>  <∆∆G>  (583) 
-3.717985

>  <comRMSD>  (583) 
0.586653

>  <ROCS_TanimotoCombo>  (583) 
0.671

>  <ROCS_ShapeTanimoto>  (583) 
0.28

>  <ROCS_ColorTanimoto>  (583) 
0.391

$$$$
EN300_283874
     RDKit          3D

 13 13  0  0  0  0  0  0  0  0999 V2000
   30.2742    9.0905    8.8717 C   0  0  0  0  0  0  0  0  0  0  0  0
   31.1647    9.7524    7.8811 C   0  0  0  0  0  0  0  0  0  0  0  0
   31.9745    8.9342    7.1280 C   0  0  0  0  0  0  0  0  0  0  0  0
   32.8368    9.4540    6.1879 C   0  0  0  0  0  0  0  0  0  0  0  0
   32.8651   10.8145    6.0271 C   0  0  0  0  0  0  0  0  0  0  0  0
   32.0825   11.6917    6.7481 C   0  0  0  0  0  0  0  0  0  0  0  0
   32.1839   13.0510    6.5281 C   0  0  0  0  0  0  0  0  0  0  0  0
   33.5262   13.6407    6.8551 C   0  0  0  0  0  0  0  0  0  0  0  0
   33.5806   13.9298    8.6386 S   0  0  0  0  0  6  0  0  0  0  0  0
   35.0065   14.7784    8.8510 N   0  0  0  0  0  0  0  0  0  0  0  0
   33.8646   12.7082    9.2464 O   0  0  0  0  0  0  0  0  0  0  0  0
   32.4749   14.7125    9.1463 O   0  0  0  0  0  0  0  0  0  0  0  0
   31.2052   11.1462    7.7005 C   0  0  0  0  0  0  0  0  0  0  0  0
  1  2  1  0
  2  3  2  0
  3  4  1  0
  4  5  2  0
  5  6  1  0
  6  7  1  0
  7  8  1  0
  8  9  1  0
  9 10  1  0
  9 11  2  0
  9 12  2  0
  6 13  2  0
 13  2  1  0
A    1
 C1 
A    2
 C2 
A    3
 C3 
A    4
 C4 
A    5
 C5 
A    6
 C6 
A    7
 C7 
A    8
 C8 
A    9
 S1 
A   10
 N1 
A   11
 O1 
A   12
 O2 
A   13
 C9 
M  END
>  <ref_pdb>  (584) 
Ax0310a

>  <ref_mols>  (584) 
Ax0446a,Ax1080a,Ax0812a,Ax0719a,Ax1140a,Ax0528a,Ax0310a

>  <original SMILES>  (584) 
Cc1cccc(CCS(N)(=O)=O)c1

>  <rationale>  (584) 
info info set:sulfonimide_whole;hbond:S87+G127+E85; hydroph_interaction:P107+V124; 

>  <experiment>  (584) 
sulfonimide_whole

>  <cluster_label>  (584) 
3

>  <cluster_rank>  (584) 
241

>  <N_interactions>  (584) 
5

>  <∆∆G>  (584) 
-8.865292

>  <comRMSD>  (584) 
0.543094

>  <ROCS_TanimotoCombo>  (584) 
0.335

>  <ROCS_ShapeTanimoto>  (584) 
0.184

>  <ROCS_ColorTanimoto>  (584) 
0.151

$$$$
EN300_59807
     RDKit          3D

 14 15  0  0  0  0  0  0  0  0999 V2000
   29.3045   12.2038    8.3700 N   0  0  0  0  0  0  0  0  0  0  0  0
   30.6884   12.7733    7.6642 S   0  0  0  0  0  6  0  0  0  0  0  0
   30.2142   13.3970    6.4553 O   0  0  0  0  0  0  0  0  0  0  0  0
   31.4161   13.5113    8.6774 O   0  0  0  0  0  0  0  0  0  0  0  0
   31.5945   11.3121    7.2063 C   0  0  0  0  0  0  0  0  0  0  0  0
   31.3196    9.8988    7.6640 C   0  0  0  0  0  0  0  0  0  0  0  0
   30.2164    9.1411    8.6827 Cl  0  0  0  0  0  0  0  0  0  0  0  0
   32.2979    9.1806    6.9944 N   0  0  0  0  0  0  0  0  0  0  0  0
   33.0970    9.9302    6.2356 C   0  0  0  0  0  0  0  0  0  0  0  0
   34.2848    9.5979    5.3474 C   0  0  0  0  0  0  0  0  0  0  0  0
   35.1537   10.6701    4.5412 C   0  0  0  0  0  0  0  0  0  0  0  0
   34.5897   11.9503    4.7955 C   0  0  0  0  0  0  0  0  0  0  0  0
   33.3741   12.2332    5.6814 C   0  0  0  0  0  0  0  0  0  0  0  0
   32.6939   11.2513    6.3548 N   0  0  0  0  0  0  0  0  0  0  0  0
  1  2  1  0
  2  3  2  0
  2  4  2  0
  2  5  1  0
  5  6  2  0
  6  7  1  0
  6  8  1  0
  8  9  2  0
  9 10  1  0
 10 11  2  0
 11 12  1  0
 12 13  2  0
 13 14  1  0
 14  5  1  0
 14  9  1  0
A    1
 N1 
A    2
 S1 
A    3
 O1 
A    4
 O2 
A    5
 C1 
A    6
 C2 
A    7
CL1 
A    8
 N2 
A    9
 C3 
A   10
 C4 
A   11
 C5 
A   12
 C6 
A   13
 C7 
A   14
 N3 
M  END
>  <ref_pdb>  (585) 
Ax0310a

>  <ref_mols>  (585) 
Ax0446a,Ax1080a,Ax0812a,Ax0719a,Ax1140a,Ax0528a,Ax0310a

>  <original SMILES>  (585) 
NS(=O)(=O)c1c(Cl)nc2ccccn12

>  <rationale>  (585) 
info info set:sulfonimide_whole;hbond:S87+S125; 

>  <experiment>  (585) 
sulfonimide_whole

>  <cluster_label>  (585) 
3

>  <cluster_rank>  (585) 
242

>  <N_interactions>  (585) 
2

>  <∆∆G>  (585) 
-3.419959

>  <comRMSD>  (585) 
0.482763

>  <ROCS_TanimotoCombo>  (585) 
0.358

>  <ROCS_ShapeTanimoto>  (585) 
0.209

>  <ROCS_ColorTanimoto>  (585) 
0.148

$$$$
EN300_366415
     RDKit          3D

 18 18  0  0  0  0  0  0  0  0999 V2000
   35.1424   14.4401    7.5461 C   0  0  0  0  0  0  0  0  0  0  0  0
   35.6787   14.4067    6.1497 C   0  0  0  0  0  0  0  0  0  0  0  0
   35.1744   13.5722    5.2421 C   0  0  0  0  0  0  0  0  0  0  0  0
   35.2375   12.2049    5.5974 C   0  0  0  0  0  0  0  0  0  0  0  0
   34.9156   11.2428    4.7538 C   0  0  0  0  0  0  0  0  0  0  0  0
   33.5184   10.6293    4.8812 C   0  0  0  0  0  0  0  0  0  0  0  0
   32.7432   10.7106    6.0624 N   0  0  0  0  0  0  0  0  0  0  0  0
   32.1163   11.8638    6.4838 C   0  0  0  0  0  0  0  0  0  0  0  0
   31.1065   11.7881    7.5706 C   0  0  0  0  0  0  0  0  0  0  0  0
   30.3595   13.3887    7.9891 S   0  0  0  0  0  6  0  0  0  0  0  0
   29.0068   13.2575    8.9581 N   0  0  0  0  0  0  0  0  0  0  0  0
   29.7460   13.8665    6.7749 O   0  0  0  0  0  0  0  0  0  0  0  0
   31.3261   14.1570    8.7495 O   0  0  0  0  0  0  0  0  0  0  0  0
   30.8591   10.3970    8.1410 C   0  0  0  0  0  0  0  0  0  0  0  0
   30.1693   10.1961    9.0910 O   0  0  0  0  0  0  0  0  0  0  0  0
   31.4787    9.3621    7.5263 N   0  0  0  0  0  0  0  0  0  0  0  0
   32.4947    9.4855    6.6420 C   0  0  0  0  0  0  0  0  0  0  0  0
   33.1533    8.5266    6.3892 O   0  0  0  0  0  0  0  0  0  0  0  0
  1  2  1  0
  2  3  1  0
  3  4  1  0
  4  5  1  0
  5  6  1  0
  6  7  1  0
  7  8  1  0
  8  9  2  0
  9 10  1  0
 10 11  1  0
 10 12  2  0
 10 13  2  0
  9 14  1  0
 14 15  2  0
 14 16  1  0
 16 17  1  0
 17 18  2  0
 17  7  1  0
A    1
 C1 
A    2
 C2 
A    3
 C3 
A    4
 C4 
A    5
 C5 
A    6
 C6 
A    7
 N1 
A    8
 C7 
A    9
 C8 
A   10
 S1 
A   11
 N2 
A   12
 O1 
A   13
 O2 
A   14
 C9 
A   15
 O3 
A   16
 N3 
A   17
 C10
A   18
 O4 
M  END
>  <ref_pdb>  (586) 
Ax0310a

>  <ref_mols>  (586) 
Ax0446a,Ax1080a,Ax0812a,Ax0719a,Ax1140a,Ax0528a,Ax0310a

>  <original SMILES>  (586) 
CCCCCCn1cc(S(N)(=O)=O)c(=O)[nH]c1=O

>  <rationale>  (586) 
info info set:sulfonimide_whole;hbond:S87+S105+S125; hydroph_interaction:V84+E85; 

>  <experiment>  (586) 
sulfonimide_whole

>  <cluster_label>  (586) 
3

>  <cluster_rank>  (586) 
243

>  <N_interactions>  (586) 
5

>  <∆∆G>  (586) 
-4.521826

>  <comRMSD>  (586) 
0.613177

>  <ROCS_TanimotoCombo>  (586) 
0.375

>  <ROCS_ShapeTanimoto>  (586) 
0.216

>  <ROCS_ColorTanimoto>  (586) 
0.159

$$$$
EN300_39050
     RDKit          3D

 15 16  0  0  0  0  0  0  0  0999 V2000
   30.9394    8.6112    8.8599 C   0  0  0  0  0  0  0  0  0  0  0  0
   30.8676    9.4916    7.6984 C   0  0  1  0  0  0  0  0  0  0  0  0
   30.4596   10.7958    7.9483 C   0  0  0  0  0  0  0  0  0  0  0  0
   31.6345   11.5429    8.2563 N   0  0  0  0  0  0  0  0  0  0  0  0
   32.6435   11.5513    7.3407 C   0  0  0  0  0  0  0  0  0  0  0  0
   32.8196   10.5005    6.5529 C   0  0  0  0  0  0  0  0  0  0  0  0
   33.8631   10.5145    5.5065 C   0  0  0  0  0  0  0  0  0  0  0  0
   34.6768   11.6245    5.3688 C   0  0  0  0  0  0  0  0  0  0  0  0
   34.4916   12.6799    6.2608 C   0  0  0  0  0  0  0  0  0  0  0  0
   33.4952   12.6061    7.2300 C   0  0  0  0  0  0  0  0  0  0  0  0
   33.3219   13.8434    8.4112 S   0  0  0  0  0  6  0  0  0  0  0  0
   34.5263   14.8872    7.8647 N   0  0  0  0  0  0  0  0  0  0  0  0
   33.8814   13.1927    9.5190 O   0  0  0  0  0  0  0  0  0  0  0  0
   31.9701   14.3252    8.5105 O   0  0  0  0  0  0  0  0  0  0  0  0
   31.9674    9.3274    6.7725 C   0  0  0  0  0  0  0  0  0  0  0  0
  2  1  1  1
  2  3  1  0
  3  4  1  0
  4  5  1  0
  5  6  2  0
  6  7  1  0
  7  8  2  0
  8  9  1  0
  9 10  2  0
 10 11  1  0
 11 12  1  0
 11 13  2  0
 11 14  2  0
  6 15  1  0
 15  2  1  0
 10  5  1  0
A    1
 C1 
A    2
 C2 
A    3
 C3 
A    4
 N1 
A    5
 C4 
A    6
 C5 
A    7
 C6 
A    8
 C7 
A    9
 C8 
A   10
 C9 
A   11
 S1 
A   12
 N2 
A   13
 O1 
A   14
 O2 
A   15
 C10
M  END
>  <ref_pdb>  (587) 
Ax0310a

>  <ref_mols>  (587) 
Ax0446a,Ax1080a,Ax0812a,Ax0719a,Ax1140a,Ax0528a,Ax0310a

>  <original SMILES>  (587) 
C[C@H]1CNc2c(cccc2S(N)(=O)=O)C1

>  <rationale>  (587) 
info info set:sulfonimide_whole;hbond:S87+S125+G127+E85; hydroph_interaction:V124; 

>  <experiment>  (587) 
sulfonimide_whole

>  <cluster_label>  (587) 
3

>  <cluster_rank>  (587) 
244

>  <N_interactions>  (587) 
5

>  <∆∆G>  (587) 
-2.18708

>  <comRMSD>  (587) 
0.655062

>  <ROCS_TanimotoCombo>  (587) 
0.345

>  <ROCS_ShapeTanimoto>  (587) 
0.198

>  <ROCS_ColorTanimoto>  (587) 
0.147

$$$$
Z45498118
     RDKit          3D

 17 18  0  0  0  0  0  0  0  0999 V2000
   34.8589   10.2289    4.8669 N   0  0  0  0  0  0  0  0  0  0  0  0
   33.9372   10.2703    5.5746 C   0  0  0  0  0  0  0  0  0  0  0  0
   32.7958   10.4206    6.5208 C   0  0  0  0  0  0  0  0  0  0  0  0
   32.1893    9.2761    6.9772 C   0  0  0  0  0  0  0  0  0  0  0  0
   31.0541    9.3208    7.9166 C   0  0  0  0  0  0  0  0  0  0  0  0
   30.5985   10.5635    8.3378 C   0  0  0  0  0  0  0  0  0  0  0  0
   31.2626   11.6934    7.8331 C   0  0  0  0  0  0  0  0  0  0  0  0
   30.7427   13.2395    8.3121 S   0  0  0  0  0  6  0  0  0  0  0  0
   30.5572   13.4816    9.7096 O   0  0  0  0  0  0  0  0  0  0  0  0
   31.7568   13.9645    7.6907 O   0  0  0  0  0  0  0  0  0  0  0  0
   29.2453   13.3748    7.5416 N   0  0  0  0  0  0  0  0  0  0  0  0
   28.3373   13.1138    8.4566 C   0  0  0  0  0  0  0  0  0  0  0  0
   28.0081   14.1516    9.5025 C   0  0  0  0  0  0  0  0  0  0  0  0
   27.6043   15.2535    8.6170 C   0  0  0  0  0  0  0  0  0  0  0  0
   28.8302   15.6087    8.0163 C   0  0  0  0  0  0  0  0  0  0  0  0
   28.7879   14.6750    6.9956 C   0  0  0  0  0  0  0  0  0  0  0  0
   32.3356   11.6464    6.9484 C   0  0  0  0  0  0  0  0  0  0  0  0
  1  2  3  0
  2  3  1  0
  3  4  2  0
  4  5  1  0
  5  6  2  0
  6  7  1  0
  7  8  1  0
  8  9  2  0
  8 10  2  0
  8 11  1  0
 11 12  1  0
 12 13  1  0
 13 14  1  0
 14 15  1  0
 15 16  1  0
  7 17  2  0
 17  3  1  0
 16 11  1  0
A    1
 N1 
A    2
 C1 
A    3
 C2 
A    4
 C3 
A    5
 C4 
A    6
 C5 
A    7
 C6 
A    8
 S1 
A    9
 O1 
A   10
 O2 
A   11
 N2 
A   12
 C7 
A   13
 C8 
A   14
 C9 
A   15
 C10
A   16
 C11
A   17
 C12
M  END
>  <ref_pdb>  (588) 
Ax0310a

>  <ref_mols>  (588) 
Ax0446a,Ax1080a,Ax0812a,Ax0719a,Ax1140a,Ax0528a,Ax0310a

>  <original SMILES>  (588) 
N#Cc1cccc(S(=O)(=O)N2CCCCC2)c1

>  <rationale>  (588) 
info info set:3d;hbond:S87; hydroph_interaction:Y89+Y90; 

>  <experiment>  (588) 
3d

>  <cluster_label>  (588) 
3

>  <cluster_rank>  (588) 
245

>  <N_interactions>  (588) 
4

>  <∆∆G>  (588) 
-3.068416

>  <comRMSD>  (588) 
0.743625

>  <ROCS_TanimotoCombo>  (588) 
0.319

>  <ROCS_ShapeTanimoto>  (588) 
0.199

>  <ROCS_ColorTanimoto>  (588) 
0.12

$$$$
Z2523346630
     RDKit          3D

 19 20  0  0  0  0  0  0  0  0999 V2000
   30.6585    7.8453    8.4921 C   0  0  0  0  0  0  0  0  0  0  0  0
   30.8329    9.0897    8.2353 N   0  0  0  0  0  0  0  0  0  0  0  0
   31.7267    9.5398    7.3250 C   0  0  0  0  0  0  0  0  0  0  0  0
   32.6175    8.8335    6.5852 N   0  0  0  0  0  0  0  0  0  0  0  0
   33.4849    9.5521    5.6712 C   0  0  0  0  0  0  0  0  0  0  0  0
   34.5084    8.7979    4.8168 C   0  0  0  0  0  0  0  0  0  0  0  0
   33.4676   10.9257    5.5019 C   0  0  0  0  0  0  0  0  0  0  0  0
   32.4991   11.7856    6.2975 C   0  0  0  0  0  0  0  0  0  0  0  0
   31.6157   11.0110    7.2298 C   0  0  0  0  0  0  0  0  0  0  0  0
   30.6212   11.6521    8.0695 C   0  0  0  0  0  0  0  0  0  0  0  0
   30.2026   10.6696    8.9691 O   0  0  0  0  0  0  0  0  0  0  0  0
   30.2102   12.8725    7.8620 N   0  0  0  0  0  0  0  0  0  0  0  0
   28.8878   12.8141    8.5230 C   0  0  0  0  0  0  0  0  0  0  0  0
   28.7234   13.8396    9.4432 C   0  0  0  0  0  0  0  0  0  0  0  0
   28.1408   14.8800    8.8235 C   0  0  0  0  0  0  0  0  0  0  0  0
   28.9179   15.2497    7.8042 C   0  0  0  0  0  0  0  0  0  0  0  0
   28.5498   14.7856    6.5449 C   0  0  0  0  0  0  0  0  0  0  0  0
   28.8687   13.4124    6.0521 C   0  0  0  0  0  0  0  0  0  0  0  0
   30.1334   12.9585    6.4411 C   0  0  0  0  0  0  0  0  0  0  0  0
  1  2  1  0
  2  3  1  0
  3  4  2  0
  4  5  1  0
  5  6  1  0
  5  7  2  0
  7  8  1  0
  8  9  2  0
  9 10  1  0
 10 11  2  0
 10 12  1  0
 12 13  1  0
 13 14  1  0
 14 15  1  0
 15 16  1  0
 16 17  1  0
 17 18  1  0
 18 19  1  0
  9  3  1  0
 19 12  1  0
A    1
 C1 
A    2
 N1 
A    3
 C2 
A    4
 N2 
A    5
 C3 
A    6
 C4 
A    7
 C5 
A    8
 C6 
A    9
 C7 
A   10
 C8 
A   11
 O1 
A   12
 N3 
A   13
 C9 
A   14
 C10
A   15
 C11
A   16
 C12
A   17
 C13
A   18
 C14
A   19
 C15
M  END
>  <ref_pdb>  (589) 
Ax0310a

>  <ref_mols>  (589) 
Ax0446a,Ax1080a,Ax0812a,Ax0719a,Ax1140a,Ax0528a,Ax0310a

>  <original SMILES>  (589) 
CNc1nc(C)ccc1C(=O)N1CCCCCCC1

>  <rationale>  (589) 
info info set:screening_pocket;hydroph_interaction:P107+Y90; 

>  <experiment>  (589) 
screening_pocket

>  <cluster_label>  (589) 
3

>  <cluster_rank>  (589) 
246

>  <N_interactions>  (589) 
2

>  <∆∆G>  (589) 
-4.362457

>  <comRMSD>  (589) 
0.777026

>  <ROCS_TanimotoCombo>  (589) 
0.694

>  <ROCS_ShapeTanimoto>  (589) 
0.262

>  <ROCS_ColorTanimoto>  (589) 
0.433

$$$$
EN300_37101993
     RDKit          3D

 21 23  0  0  0  0  0  0  0  0999 V2000
   36.0868   13.5084    9.6653 C   0  0  0  0  0  0  0  0  0  0  0  0
   35.2607   13.6908    8.3727 C   0  0  0  0  0  0  0  0  0  0  0  0
   34.4936   14.9398    8.5812 C   0  0  0  0  0  0  0  0  0  0  0  0
   36.1107   13.7900    7.1067 C   0  0  0  0  0  0  0  0  0  0  0  0
   34.1694   12.7667    8.1287 O   0  0  0  0  0  0  0  0  0  0  0  0
   33.7059   12.5426    6.8480 C   0  0  0  0  0  0  0  0  0  0  0  0
   34.0295   13.0743    5.8012 O   0  0  0  0  0  0  0  0  0  0  0  0
   32.6775   11.4748    7.0203 C   0  0  1  0  0  0  0  0  0  0  0  0
   33.2136   10.2027    6.3721 C   0  0  0  0  0  0  0  0  0  0  0  0
   32.4805    9.2024    7.1177 N   0  0  0  0  0  0  0  0  0  0  0  0
   31.2409    9.8994    7.0671 C   0  0  1  0  0  0  0  0  0  0  0  0
   30.7857   10.6729    8.2492 C   0  0  0  0  0  0  0  0  0  0  0  0
   31.7981   11.7186    8.1690 N   0  0  0  0  0  0  0  0  0  0  0  0
   31.4562   13.1065    8.3950 C   0  0  0  0  0  0  0  0  0  0  0  0
   30.0624   13.5651    8.1046 C   0  0  0  0  0  0  0  0  0  0  0  0
   29.7669   14.8535    8.8392 C   0  0  0  0  0  0  0  0  0  0  0  0
   28.4002   15.4575    8.6138 C   0  0  0  0  0  0  0  0  0  0  0  0
   27.5083   14.6672    7.6831 C   0  0  0  0  0  0  0  0  0  0  0  0
   27.8965   13.4859    7.0799 C   0  0  0  0  0  0  0  0  0  0  0  0
   29.1452   12.9404    7.2800 C   0  0  0  0  0  0  0  0  0  0  0  0
   31.5704   11.1046    6.1374 C   0  0  0  0  0  0  0  0  0  0  0  0
  1  2  1  0
  2  3  1  0
  2  4  1  0
  2  5  1  0
  5  6  1  0
  6  7  2  0
  8  6  1  6
  8  9  1  0
  9 10  1  0
 10 11  1  0
 11 12  1  1
 12 13  1  0
 13 14  1  0
 14 15  1  0
 15 16  2  0
 16 17  1  0
 17 18  2  0
 18 19  1  0
 19 20  2  0
 11 21  1  0
 13  8  1  0
 20 15  1  0
 21  8  1  0
A    1
 C1 
A    2
 C2 
A    3
 C3 
A    4
 C4 
A    5
 O1 
A    6
 C5 
A    7
 O2 
A    8
 C6 
A    9
 C7 
A   10
 N1 
A   11
 C8 
A   12
 C9 
A   13
 N2 
A   14
 C10
A   15
 C11
A   16
 C12
A   17
 C13
A   18
 C14
A   19
 C15
A   20
 C16
A   21
 C17
M  END
>  <ref_pdb>  (590) 
Ax0310a

>  <ref_mols>  (590) 
Ax0446a,Ax1080a,Ax0812a,Ax0719a,Ax1140a,Ax0528a,Ax0310a

>  <original SMILES>  (590) 
CC(C)(C)OC(=O)[C@@]12CN[C@@H](CN1Cc1ccccc1)C2

>  <rationale>  (590) 
info info set:bb_whole;hbond:S105+G127; hydroph_interaction:P107+Y89+Y90+V84+E85; 

>  <experiment>  (590) 
bb_whole

>  <cluster_label>  (590) 
3

>  <cluster_rank>  (590) 
247

>  <N_interactions>  (590) 
7

>  <∆∆G>  (590) 
-0.761099

>  <comRMSD>  (590) 
0.965387

>  <ROCS_TanimotoCombo>  (590) 
0.416

>  <ROCS_ShapeTanimoto>  (590) 
0.242

>  <ROCS_ColorTanimoto>  (590) 
0.174

$$$$
EN300_28262801
     RDKit          3D

 15 15  0  0  0  0  0  0  0  0999 V2000
   34.4128    8.8416    4.4255 C   0  0  0  0  0  0  0  0  0  0  0  0
   33.5404    9.6287    5.3766 C   0  0  0  0  0  0  0  0  0  0  0  0
   32.8893    9.0314    6.3768 N   0  0  0  0  0  0  0  0  0  0  0  0
   32.2234   10.0074    7.0512 N   0  0  0  0  0  0  0  0  0  0  0  0
   31.4664    9.7010    8.1629 C   0  0  0  0  0  0  0  0  0  0  0  0
   30.7063   10.5459    8.6149 O   0  0  0  0  0  0  0  0  0  0  0  0
   31.6311    8.5784    8.6866 O   0  0  0  0  0  0  0  0  0  0  0  0
   30.3550    8.3192    9.0924 C   0  0  0  0  0  0  0  0  0  0  0  0
   29.7589    9.1545    8.0708 C   0  0  0  0  0  0  0  0  0  0  0  0
   29.8105    7.0940    8.7256 C   0  0  0  0  0  0  0  0  0  0  0  0
   29.8734    8.2543   10.4141 C   0  0  0  0  0  0  0  0  0  0  0  0
   32.4095   11.2530    6.5077 C   0  0  0  0  0  0  0  0  0  0  0  0
   31.7950   12.5374    7.0438 C   0  0  0  0  0  0  0  0  0  0  0  0
   33.3210   11.0118    5.3369 C   0  0  0  0  0  0  0  0  0  0  0  0
   33.8757   12.0171    4.3558 C   0  0  0  0  0  0  0  0  0  0  0  0
  1  2  1  0
  2  3  2  0
  3  4  1  0
  4  5  1  0
  5  6  2  0
  5  7  1  0
  7  8  1  0
  8  9  1  0
  8 10  1  0
  8 11  1  0
  4 12  1  0
 12 13  1  0
 12 14  2  0
 14 15  1  0
 14  2  1  0
A    1
 C1 
A    2
 C2 
A    3
 N1 
A    4
 N2 
A    5
 C3 
A    6
 O1 
A    7
 O2 
A    8
 C4 
A    9
 C5 
A   10
 C6 
A   11
 C7 
A   12
 C8 
A   13
 C9 
A   14
 C10
A   15
 C11
M  END
>  <ref_pdb>  (591) 
Ax0310a

>  <ref_mols>  (591) 
Ax0446a,Ax1080a,Ax0812a,Ax0719a,Ax1140a,Ax0528a,Ax0310a

>  <original SMILES>  (591) 
Cc1nn(C(=O)OC(C)(C)C)c(C)c1C

>  <rationale>  (591) 
info info set:bb_densepocket2;hydroph_interaction:P107+V124+D109; 

>  <experiment>  (591) 
bb_densepocket2

>  <cluster_label>  (591) 
3

>  <cluster_rank>  (591) 
248

>  <N_interactions>  (591) 
4

>  <∆∆G>  (591) 
-0.761454

>  <comRMSD>  (591) 
0.769564

>  <ROCS_TanimotoCombo>  (591) 
0.64

>  <ROCS_ShapeTanimoto>  (591) 
0.227

>  <ROCS_ColorTanimoto>  (591) 
0.413

$$$$
EN300_27733387
     RDKit          3D

 19 20  0  0  0  0  0  0  0  0999 V2000
   27.7586   11.7573    7.8212 C   0  0  0  0  0  0  0  0  0  0  0  0
   29.1201   11.3941    7.9941 N   0  0  0  0  0  0  0  0  0  0  0  0
   30.0291   12.1129    7.2755 C   0  0  0  0  0  0  0  0  0  0  0  0
   29.8672   13.4515    6.7561 O   0  0  0  0  0  0  0  0  0  0  0  0
   31.2916   11.4141    6.9380 C   0  0  0  0  0  0  0  0  0  0  0  0
   31.4134    9.9825    7.3036 C   0  0  0  0  0  0  0  0  0  0  0  0
   32.5950    9.5072    6.8900 N   0  0  0  0  0  0  0  0  0  0  0  0
   33.2050   10.5452    6.3333 C   0  0  0  0  0  0  0  0  0  0  0  0
   32.4633   11.7096    6.3504 N   0  0  0  0  0  0  0  0  0  0  0  0
   32.9003   12.9800    5.8232 C   0  0  0  0  0  0  0  0  0  0  0  0
   33.9235   13.7188    6.7552 C   0  0  0  0  0  0  0  0  0  0  0  0
   33.4217   13.8129    8.4819 S   0  0  0  0  0  6  0  0  0  0  0  0
   34.4686   14.9458    9.1407 N   0  0  0  0  0  0  0  0  0  0  0  0
   33.8361   12.6613    9.1478 O   0  0  0  0  0  0  0  0  0  0  0  0
   32.0903   14.3138    8.6976 O   0  0  0  0  0  0  0  0  0  0  0  0
   30.4211    9.3356    7.9575 N   0  0  0  0  0  0  0  0  0  0  0  0
   30.6464    8.0339    8.4479 C   0  0  0  0  0  0  0  0  0  0  0  0
   29.3716   10.0414    8.4842 C   0  0  0  0  0  0  0  0  0  0  0  0
   28.7037    9.4978    9.3343 O   0  0  0  0  0  0  0  0  0  0  0  0
  1  2  1  0
  2  3  1  0
  3  4  2  0
  3  5  1  0
  5  6  2  0
  6  7  1  0
  7  8  2  0
  8  9  1  0
  9 10  1  0
 10 11  1  0
 11 12  1  0
 12 13  1  0
 12 14  2  0
 12 15  2  0
  6 16  1  0
 16 17  1  0
 16 18  1  0
 18 19  2  0
 18  2  1  0
  9  5  1  0
A    1
 C1 
A    2
 N1 
A    3
 C2 
A    4
 O1 
A    5
 C3 
A    6
 C4 
A    7
 N2 
A    8
 C5 
A    9
 N3 
A   10
 C6 
A   11
 C7 
A   12
 S1 
A   13
 N4 
A   14
 O2 
A   15
 O3 
A   16
 N5 
A   17
 C8 
A   18
 C9 
A   19
 O4 
M  END
>  <ref_pdb>  (592) 
Ax0310a

>  <ref_mols>  (592) 
Ax0446a,Ax1080a,Ax0812a,Ax0719a,Ax1140a,Ax0528a,Ax0310a

>  <original SMILES>  (592) 
Cn1c(=O)c2c(ncn2CCS(N)(=O)=O)n(C)c1=O

>  <rationale>  (592) 
info info set:bb_whole;hbond:S87+G127+E85; 

>  <experiment>  (592) 
bb_whole

>  <cluster_label>  (592) 
3

>  <cluster_rank>  (592) 
249

>  <N_interactions>  (592) 
3

>  <∆∆G>  (592) 
-6.502866

>  <comRMSD>  (592) 
0.588475

>  <ROCS_TanimotoCombo>  (592) 
0.437

>  <ROCS_ShapeTanimoto>  (592) 
0.235

>  <ROCS_ColorTanimoto>  (592) 
0.202

$$$$
EN300_2544894
     RDKit          3D

 13 13  0  0  0  0  0  0  0  0999 V2000
   29.8036    8.1651    8.4354 C   0  0  0  0  0  0  0  0  0  0  0  0
   31.1820    8.6573    8.5123 C   0  0  0  0  0  0  0  0  0  0  0  0
   31.7974    9.3704    7.4100 N   0  0  0  0  0  0  0  0  0  0  0  0
   32.6730    8.8165    6.5455 N   0  0  0  0  0  0  0  0  0  0  0  0
   33.0211    9.8192    5.7248 C   0  0  0  0  0  0  0  0  0  0  0  0
   32.2862   11.1102    6.1063 C   0  0  0  0  0  0  0  0  0  0  0  0
   31.5683   10.6625    7.1651 C   0  0  0  0  0  0  0  0  0  0  0  0
   30.6486   11.5709    7.9213 C   0  0  0  0  0  0  0  0  0  0  0  0
   29.9387   11.0798    8.7297 O   0  0  0  0  0  0  0  0  0  0  0  0
   30.5873   12.9153    7.7244 N   0  0  0  0  0  0  0  0  0  0  0  0
   29.6580   13.5914    8.6141 C   0  0  0  0  0  0  0  0  0  0  0  0
   29.0073   14.6312    7.9948 C   0  0  0  0  0  0  0  0  0  0  0  0
   28.5003   15.5271    7.4888 N   0  0  0  0  0  0  0  0  0  0  0  0
  1  2  1  0
  2  3  1  0
  3  4  1  0
  4  5  2  0
  5  6  1  0
  6  7  2  0
  7  8  1  0
  8  9  2  0
  8 10  1  0
 10 11  1  0
 11 12  1  0
 12 13  3  0
  7  3  1  0
A    1
 C1 
A    2
 C2 
A    3
 N1 
A    4
 N2 
A    5
 C3 
A    6
 C4 
A    7
 C5 
A    8
 C6 
A    9
 O1 
A   10
 N3 
A   11
 C7 
A   12
 C8 
A   13
 N4 
M  END
>  <ref_pdb>  (593) 
Ax0310a

>  <ref_mols>  (593) 
Ax0446a,Ax1080a,Ax0812a,Ax0719a,Ax1140a,Ax0528a,Ax0310a

>  <original SMILES>  (593) 
CCn1nccc1C(=O)NCC#N

>  <rationale>  (593) 
info info set:bb_densepocket2;hbond:S87; hydroph_interaction:P107+V124; 

>  <experiment>  (593) 
bb_densepocket2

>  <cluster_label>  (593) 
3

>  <cluster_rank>  (593) 
250

>  <N_interactions>  (593) 
4

>  <∆∆G>  (593) 
-3.326781

>  <comRMSD>  (593) 
0.504509

>  <ROCS_TanimotoCombo>  (593) 
0.632

>  <ROCS_ShapeTanimoto>  (593) 
0.213

>  <ROCS_ColorTanimoto>  (593) 
0.419

$$$$
EN300_314885
     RDKit          3D

 17 18  0  0  0  0  0  0  0  0999 V2000
   30.2705    8.7521    8.1933 C   0  0  0  0  0  0  0  0  0  0  0  0
   31.2711    9.7518    7.7115 C   0  0  0  0  0  0  0  0  0  0  0  0
   32.3095    9.4167    6.9469 N   0  0  0  0  0  0  0  0  0  0  0  0
   33.0015   10.6215    6.7921 O   0  0  0  0  0  0  0  0  0  0  0  0
   32.3005   11.5665    7.4790 C   0  0  0  0  0  0  0  0  0  0  0  0
   32.8278   12.8766    7.5173 C   0  0  2  0  0  0  0  0  0  0  0  0
   33.7945   13.2087    6.5545 C   0  0  0  0  0  0  0  0  0  0  0  0
   34.8122   14.0223    7.0673 C   0  0  0  0  0  0  0  0  0  0  0  0
   34.6729   13.9151    8.6056 C   0  0  2  0  0  0  0  0  0  0  0  0
   36.0694   13.6699    9.2912 C   0  0  0  0  0  0  0  0  0  0  0  0
   35.9897   13.1228   10.6569 N   0  0  0  0  0  0  0  0  0  0  0  0
   37.0131   12.0221   11.4198 S   0  0  0  0  0  6  0  0  0  0  0  0
   38.6034   12.8006   11.3110 C   0  0  0  0  0  0  0  0  0  0  0  0
   36.6172   11.9793   12.8071 O   0  0  0  0  0  0  0  0  0  0  0  0
   37.0659   10.7992   10.6675 O   0  0  0  0  0  0  0  0  0  0  0  0
   33.6449   12.8862    8.7477 O   0  0  0  0  0  0  0  0  0  0  0  0
   31.2149   11.0755    8.0374 N   0  0  0  0  0  0  0  0  0  0  0  0
  1  2  1  0
  2  3  2  0
  3  4  1  0
  4  5  1  0
  6  5  1  6
  6  7  1  0
  7  8  1  0
  8  9  1  0
  9 10  1  1
 10 11  1  0
 11 12  1  0
 12 13  1  0
 12 14  2  0
 12 15  2  0
  9 16  1  0
  5 17  2  0
 17  2  1  0
 16  6  1  0
A    1
 C1 
A    2
 C2 
A    3
 N1 
A    4
 O1 
A    5
 C3 
A    6
 C4 
A    7
 C5 
A    8
 C6 
A    9
 C7 
A   10
 C8 
A   11
 N2 
A   12
 S1 
A   13
 C9 
A   14
 O2 
A   15
 O3 
A   16
 O4 
A   17
 N3 
M  END
>  <ref_pdb>  (594) 
Ax0310a

>  <ref_mols>  (594) 
Ax0446a,Ax1080a,Ax0812a,Ax0719a,Ax1140a,Ax0528a,Ax0310a

>  <original SMILES>  (594) 
Cc1noc([C@@H]2CC[C@H](CNS(C)(=O)=O)O2)n1

>  <rationale>  (594) 
info info set:sulfonimide_whole;hbond:G127+T126; 

>  <experiment>  (594) 
sulfonimide_whole

>  <cluster_label>  (594) 
3

>  <cluster_rank>  (594) 
251

>  <N_interactions>  (594) 
2

>  <∆∆G>  (594) 
-7.702621

>  <comRMSD>  (594) 
0.667361

>  <ROCS_TanimotoCombo>  (594) 
0.375

>  <ROCS_ShapeTanimoto>  (594) 
0.223

>  <ROCS_ColorTanimoto>  (594) 
0.152

$$$$
Z26509549
     RDKit          3D

 18 19  0  0  0  0  0  0  0  0999 V2000
   34.2458    8.9026    5.3570 C   0  0  0  0  0  0  0  0  0  0  0  0
   33.1439    9.5585    6.1434 C   0  0  0  0  0  0  0  0  0  0  0  0
   33.1081   11.1080    5.8999 C   0  0  0  0  0  0  0  0  0  0  0  0
   31.9336   11.5622    6.7937 C   0  0  0  0  0  0  0  0  0  0  0  0
   31.0380   10.7537    7.6807 C   0  0  0  0  0  0  0  0  0  0  0  0
   30.0693   11.2129    8.3839 N   0  0  0  0  0  0  0  0  0  0  0  0
   29.5746   12.1604    7.6709 C   0  0  0  0  0  0  0  0  0  0  0  0
   29.9604   12.4808    6.3392 O   0  0  0  0  0  0  0  0  0  0  0  0
   28.5196   13.0741    8.1954 C   0  0  0  0  0  0  0  0  0  0  0  0
   28.9302   14.2536    8.2274 N   0  0  0  0  0  0  0  0  0  0  0  0
   28.0284   15.1862    8.0738 C   0  0  0  0  0  0  0  0  0  0  0  0
   28.8192   16.6451    8.5953 S   0  0  0  0  0  0  0  0  0  0  0  0
   30.0404   15.6869    9.5534 C   0  0  0  0  0  0  0  0  0  0  0  0
   30.1113   14.5763    8.7901 C   0  0  0  0  0  0  0  0  0  0  0  0
   31.3171   13.9595    8.6773 O   0  0  0  0  0  0  0  0  0  0  0  0
   31.2501    9.4181    7.7477 C   0  0  0  0  0  0  0  0  0  0  0  0
   30.4669    8.6709    8.5426 F   0  0  0  0  0  0  0  0  0  0  0  0
   32.2705    8.8368    6.9990 C   0  0  0  0  0  0  0  0  0  0  0  0
  1  2  1  0
  2  3  2  0
  3  4  1  0
  4  5  2  0
  5  6  1  0
  6  7  1  0
  7  8  2  0
  7  9  1  0
  9 10  1  0
 10 11  1  0
 11 12  1  0
 12 13  1  0
 13 14  1  0
 14 15  2  0
  5 16  1  0
 16 17  1  0
 16 18  2  0
 18  2  1  0
 14 10  1  0
A    1
 C1 
A    2
 C2 
A    3
 C3 
A    4
 C4 
A    5
 C5 
A    6
 N1 
A    7
 C6 
A    8
 O1 
A    9
 C7 
A   10
 N2 
A   11
 C8 
A   12
 S1 
A   13
 C9 
A   14
 C10
A   15
 O2 
A   16
 C11
A   17
 F1 
A   18
 C12
M  END
>  <ref_pdb>  (595) 
Ax0310a

>  <ref_mols>  (595) 
Ax0446a,Ax1080a,Ax0812a,Ax0719a,Ax1140a,Ax0528a,Ax0310a

>  <original SMILES>  (595) 
Cc1ccc(NC(=O)CN2CSCC2=O)c(F)c1

>  <rationale>  (595) 
info info set:3d;hbond:S87+S125; 

>  <experiment>  (595) 
3d

>  <cluster_label>  (595) 
3

>  <cluster_rank>  (595) 
252

>  <N_interactions>  (595) 
2

>  <∆∆G>  (595) 
-5.943431

>  <comRMSD>  (595) 
0.959272

>  <ROCS_TanimotoCombo>  (595) 
0.344

>  <ROCS_ShapeTanimoto>  (595) 
0.208

>  <ROCS_ColorTanimoto>  (595) 
0.136

$$$$
Z1255404894
     RDKit          3D

 14 16  0  0  0  0  0  0  0  0999 V2000
   34.5549   10.0838    5.1303 C   0  0  0  0  0  0  0  0  0  0  0  0
   34.6840   11.5887    5.1781 C   0  0  0  0  0  0  0  0  0  0  0  0
   33.5997   12.2352    5.9561 C   0  0  0  0  0  0  0  0  0  0  0  0
   32.5583   11.4180    6.5754 C   0  0  0  0  0  0  0  0  0  0  0  0
   32.5442   10.0426    6.4659 C   0  0  0  0  0  0  0  0  0  0  0  0
   33.5255    9.3771    5.7533 C   0  0  0  0  0  0  0  0  0  0  0  0
   31.4502    9.4658    7.1412 N   0  0  0  0  0  0  0  0  0  0  0  0
   30.8547   10.6195    7.8456 C   0  0  0  0  0  0  0  0  0  0  0  0
   31.3940   11.8429    7.3994 C   0  0  0  0  0  0  0  0  0  0  0  0
   31.9037   12.6425    8.4678 C   0  0  0  0  0  0  0  0  0  0  0  0
   32.1442   13.9784    8.2782 C   0  0  0  0  0  0  0  0  0  0  0  0
   30.8425   14.5211    8.4427 O   0  0  0  0  0  0  0  0  0  0  0  0
   29.8424   13.7934    7.7010 C   0  0  0  0  0  0  0  0  0  0  0  0
   30.3818   12.7575    6.6934 C   0  0  0  0  0  0  0  0  0  0  0  0
  1  2  2  0
  2  3  1  0
  3  4  2  0
  4  5  1  0
  5  6  2  0
  5  7  1  0
  7  8  1  0
  8  9  1  0
  9 10  1  0
 10 11  1  0
 11 12  1  0
 12 13  1  0
 13 14  1  0
  6  1  1  0
 14  9  1  0
  9  4  1  0
A    1
 C1 
A    2
 C2 
A    3
 C3 
A    4
 C4 
A    5
 C5 
A    6
 C6 
A    7
 N1 
A    8
 C7 
A    9
 C8 
A   10
 C9 
A   11
 C10
A   12
 O1 
A   13
 C11
A   14
 C12
M  END
>  <ref_pdb>  (596) 
Ax0310a

>  <ref_mols>  (596) 
Ax0446a,Ax1080a,Ax0812a,Ax0719a,Ax1140a,Ax0528a,Ax0310a

>  <original SMILES>  (596) 
c1ccc2c(c1)NCC21CCOCC1

>  <rationale>  (596) 
info info set:3d;hbond:S87; hydroph_interaction:P107; 

>  <experiment>  (596) 
3d

>  <cluster_label>  (596) 
3

>  <cluster_rank>  (596) 
253

>  <N_interactions>  (596) 
2

>  <∆∆G>  (596) 
-0.270704

>  <comRMSD>  (596) 
0.793227

>  <ROCS_TanimotoCombo>  (596) 
0.34

>  <ROCS_ShapeTanimoto>  (596) 
0.198

>  <ROCS_ColorTanimoto>  (596) 
0.142

$$$$
Z2297525741
     RDKit          3D

 17 17  0  0  0  0  0  0  0  0999 V2000
   29.1711    8.7576    8.1425 C   0  0  0  0  0  0  0  0  0  0  0  0
   29.9992    9.0079    9.2246 C   0  0  0  0  0  0  0  0  0  0  0  0
   30.9005    7.8869    9.2298 C   0  0  0  0  0  0  0  0  0  0  0  0
   30.7761   10.1422    8.9498 O   0  0  0  0  0  0  0  0  0  0  0  0
   31.5659   10.1878    7.7477 C   0  0  0  0  0  0  0  0  0  0  0  0
   32.2091    9.0015    7.1350 N   0  0  0  0  0  0  0  0  0  0  0  0
   32.9564    9.2352    6.0255 C   0  0  0  0  0  0  0  0  0  0  0  0
   33.1507   10.5936    5.3986 C   0  0  0  0  0  0  0  0  0  0  0  0
   34.1157   10.7939    3.9939 Cl  0  0  0  0  0  0  0  0  0  0  0  0
   32.4595   11.7554    6.0642 C   0  0  0  0  0  0  0  0  0  0  0  0
   31.6319   11.4953    7.3097 C   0  0  0  0  0  0  0  0  0  0  0  0
   30.9459   12.3909    8.0643 N   0  0  0  0  0  0  0  0  0  0  0  0
   30.1365   13.1276    7.3261 C   0  0  0  0  0  0  0  0  0  0  0  0
   30.3287   13.4483    6.1573 O   0  0  0  0  0  0  0  0  0  0  0  0
   28.9070   13.5719    8.0763 C   0  0  0  0  0  0  0  0  0  0  0  0
   28.7433   14.9482    8.0795 C   0  0  0  0  0  0  0  0  0  0  0  0
   28.6763   16.0896    8.0580 N   0  0  0  0  0  0  0  0  0  0  0  0
  1  2  1  0
  2  3  1  0
  2  4  1  0
  4  5  1  0
  5  6  2  0
  6  7  1  0
  7  8  2  0
  8  9  1  0
  8 10  1  0
 10 11  2  0
 11 12  1  0
 12 13  1  0
 13 14  2  0
 13 15  1  0
 15 16  1  0
 16 17  3  0
 11  5  1  0
A    1
 C1 
A    2
 C2 
A    3
 C3 
A    4
 O1 
A    5
 C4 
A    6
 N1 
A    7
 C5 
A    8
 C6 
A    9
CL1 
A   10
 C7 
A   11
 C8 
A   12
 N2 
A   13
 C9 
A   14
 O2 
A   15
 C10
A   16
 C11
A   17
 N3 
M  END
>  <ref_pdb>  (597) 
Ax0310a

>  <ref_mols>  (597) 
Ax0446a,Ax1080a,Ax0812a,Ax0719a,Ax1140a,Ax0528a,Ax0310a

>  <original SMILES>  (597) 
CC(C)Oc1ncc(Cl)cc1NC(=O)CC#N

>  <rationale>  (597) 
info info set:screening_pocket;hbond:S87+S125+G127+Y90; hydroph_interaction:P107; 

>  <experiment>  (597) 
screening_pocket

>  <cluster_label>  (597) 
3

>  <cluster_rank>  (597) 
254

>  <N_interactions>  (597) 
5

>  <∆∆G>  (597) 
-4.000686

>  <comRMSD>  (597) 
0.689312

>  <ROCS_TanimotoCombo>  (597) 
0.652

>  <ROCS_ShapeTanimoto>  (597) 
0.244

>  <ROCS_ColorTanimoto>  (597) 
0.408

$$$$
Z94598708
     RDKit          3D

 16 17  0  0  0  0  0  0  0  0999 V2000
   33.6034   13.0722    9.2964 O   0  0  0  0  0  0  0  0  0  0  0  0
   33.1005   13.5253    8.3036 C   0  0  0  0  0  0  0  0  0  0  0  0
   31.8452   14.0157    8.3610 O   0  0  0  0  0  0  0  0  0  0  0  0
   33.7065   13.6026    7.0574 C   0  0  0  0  0  0  0  0  0  0  0  0
   32.9090   13.0119    6.0645 C   0  0  0  0  0  0  0  0  0  0  0  0
   32.5537   11.6441    6.4484 N   0  0  0  0  0  0  0  0  0  0  0  0
   33.4158   10.6546    6.0009 C   0  0  0  0  0  0  0  0  0  0  0  0
   34.4870   10.9142    5.4401 O   0  0  0  0  0  0  0  0  0  0  0  0
   33.0310    9.2330    6.1836 C   0  0  0  0  0  0  0  0  0  0  0  0
   31.9280    8.7185    7.4846 S   0  0  0  0  0  0  0  0  0  0  0  0
   30.9513   10.1464    7.6365 C   0  0  0  0  0  0  0  0  0  0  0  0
   29.6345    9.9972    8.3499 C   0  0  0  0  0  0  0  0  0  0  0  0
   28.7431   11.1522    8.4725 C   0  0  0  0  0  0  0  0  0  0  0  0
   29.1632   12.3392    7.9282 C   0  0  0  0  0  0  0  0  0  0  0  0
   30.3957   12.4565    7.2856 C   0  0  0  0  0  0  0  0  0  0  0  0
   31.3138   11.4033    7.1204 C   0  0  0  0  0  0  0  0  0  0  0  0
  1  2  2  0
  2  3  1  0
  2  4  1  0
  4  5  1  0
  5  6  1  0
  6  7  1  0
  7  8  2  0
  7  9  1  0
  9 10  1  0
 10 11  1  0
 11 12  2  0
 12 13  1  0
 13 14  2  0
 14 15  1  0
 15 16  2  0
 16  6  1  0
 16 11  1  0
A    1
 O1 
A    2
 C1 
A    3
 O2 
A    4
 C2 
A    5
 C3 
A    6
 N1 
A    7
 C4 
A    8
 O3 
A    9
 C5 
A   10
 S1 
A   11
 C6 
A   12
 C7 
A   13
 C8 
A   14
 C9 
A   15
 C10
A   16
 C11
M  END
>  <ref_pdb>  (598) 
Ax0310a

>  <ref_mols>  (598) 
Ax0446a,Ax1080a,Ax0812a,Ax0719a,Ax1140a,Ax0528a,Ax0310a

>  <original SMILES>  (598) 
O=C(O)CCN1C(=O)CSc2ccccc21

>  <rationale>  (598) 
info info set:3d;hbond:S87+G127; 

>  <experiment>  (598) 
3d

>  <cluster_label>  (598) 
3

>  <cluster_rank>  (598) 
255

>  <N_interactions>  (598) 
3

>  <∆∆G>  (598) 
-1.361596

>  <comRMSD>  (598) 
0.485251

>  <ROCS_TanimotoCombo>  (598) 
0.359

>  <ROCS_ShapeTanimoto>  (598) 
0.226

>  <ROCS_ColorTanimoto>  (598) 
0.133

$$$$
Z8661735596
     RDKit          3D

 13 13  0  0  0  0  0  0  0  0999 V2000
   29.9046    8.5668    8.6606 C   0  0  0  0  0  0  0  0  0  0  0  0
   31.2820    8.3009    8.1916 C   0  0  0  0  0  0  0  0  0  0  0  0
   31.8668    9.3419    7.2675 C   0  0  0  0  0  0  0  0  0  0  0  0
   32.8554    8.7316    6.4380 N   0  0  0  0  0  0  0  0  0  0  0  0
   33.4849    9.5414    5.5031 C   0  0  0  0  0  0  0  0  0  0  0  0
   33.1909   11.0389    5.3159 C   0  0  0  0  0  0  0  0  0  0  0  0
   33.7807   11.8302    4.4195 F   0  0  0  0  0  0  0  0  0  0  0  0
   32.2108   11.4439    6.2285 C   0  0  0  0  0  0  0  0  0  0  0  0
   31.5677   10.6747    7.1596 C   0  0  0  0  0  0  0  0  0  0  0  0
   30.5506   11.3840    8.0105 C   0  0  0  0  0  0  0  0  0  0  0  0
   30.1125   10.7194    8.8894 O   0  0  0  0  0  0  0  0  0  0  0  0
   30.1659   12.7180    7.7530 N   0  0  0  0  0  0  0  0  0  0  0  0
   29.2323   13.3872    8.6277 C   0  0  0  0  0  0  0  0  0  0  0  0
  1  2  1  0
  2  3  1  0
  3  4  2  0
  4  5  1  0
  5  6  2  0
  6  7  1  0
  6  8  1  0
  8  9  2  0
  9 10  1  0
 10 11  2  0
 10 12  1  0
 12 13  1  0
  9  3  1  0
A    1
 C1 
A    2
 C2 
A    3
 C3 
A    4
 N1 
A    5
 C4 
A    6
 C5 
A    7
 F1 
A    8
 C6 
A    9
 C7 
A   10
 C8 
A   11
 O1 
A   12
 N2 
A   13
 C9 
M  END
>  <ref_pdb>  (599) 
Ax0310a

>  <ref_mols>  (599) 
Ax0446a,Ax1080a,Ax0812a,Ax0719a,Ax1140a,Ax0528a,Ax0310a

>  <original SMILES>  (599) 
CCc1ncc(F)cc1C(=O)NC

>  <rationale>  (599) 
info info set:screening_pocket;hydroph_interaction:P107+V124; 

>  <experiment>  (599) 
screening_pocket

>  <cluster_label>  (599) 
3

>  <cluster_rank>  (599) 
256

>  <N_interactions>  (599) 
2

>  <∆∆G>  (599) 
-4.483912

>  <comRMSD>  (599) 
0.604395

>  <ROCS_TanimotoCombo>  (599) 
0.685

>  <ROCS_ShapeTanimoto>  (599) 
0.232

>  <ROCS_ColorTanimoto>  (599) 
0.452

$$$$
Z316418256
     RDKit          3D

 16 17  0  0  0  0  0  0  0  0999 V2000
   29.5362   15.0783    9.1201 C   0  0  0  0  0  0  0  0  0  0  0  0
   30.2183   13.7854    9.0868 C   0  0  0  0  0  0  0  0  0  0  0  0
   31.0648   13.4998    8.0983 N   0  0  0  0  0  0  0  0  0  0  0  0
   32.1830   13.3023    8.7260 C   0  0  0  0  0  0  0  0  0  0  0  0
   33.5078   13.8901    8.3614 C   0  0  0  0  0  0  0  0  0  0  0  0
   30.5121   12.5736    7.2182 C   0  0  0  0  0  0  0  0  0  0  0  0
   29.3901   12.6190    6.7285 O   0  0  0  0  0  0  0  0  0  0  0  0
   31.5295   11.4615    6.8909 C   0  0  0  0  0  0  0  0  0  0  0  0
   31.1698   10.2257    7.3752 C   0  0  0  0  0  0  0  0  0  0  0  0
   32.0662    9.3070    7.0237 N   0  0  0  0  0  0  0  0  0  0  0  0
   33.0019   10.0718    6.2949 N   0  0  0  0  0  0  0  0  0  0  0  0
   34.1492    9.6291    5.6620 C   0  0  0  0  0  0  0  0  0  0  0  0
   34.9524   10.5564    5.0140 C   0  0  0  0  0  0  0  0  0  0  0  0
   34.5661   11.8900    5.0236 C   0  0  0  0  0  0  0  0  0  0  0  0
   33.4830   12.3316    5.5851 N   0  0  0  0  0  0  0  0  0  0  0  0
   32.7105   11.3982    6.2178 C   0  0  0  0  0  0  0  0  0  0  0  0
  1  2  1  0
  2  3  1  0
  3  4  1  0
  4  5  1  0
  3  6  1  0
  6  7  2  0
  6  8  1  0
  8  9  1  0
  9 10  2  0
 10 11  1  0
 11 12  1  0
 12 13  2  0
 13 14  1  0
 14 15  2  0
 15 16  1  0
 16  8  2  0
 16 11  1  0
A    1
 C1 
A    2
 C2 
A    3
 N1 
A    4
 C3 
A    5
 C4 
A    6
 C5 
A    7
 O1 
A    8
 C6 
A    9
 C7 
A   10
 N2 
A   11
 N3 
A   12
 C8 
A   13
 C9 
A   14
 C10
A   15
 N4 
A   16
 C11
M  END
>  <ref_pdb>  (600) 
Ax0310a

>  <ref_mols>  (600) 
Ax0446a,Ax1080a,Ax0812a,Ax0719a,Ax1140a,Ax0528a,Ax0310a

>  <original SMILES>  (600) 
CCN(CC)C(=O)c1cnn2cccnc12

>  <rationale>  (600) 
info info set:3d;hydroph_interaction:P107+Y90+V84; 

>  <experiment>  (600) 
3d

>  <cluster_label>  (600) 
3

>  <cluster_rank>  (600) 
257

>  <N_interactions>  (600) 
3

>  <∆∆G>  (600) 
-4.117226

>  <comRMSD>  (600) 
0.85374

>  <ROCS_TanimotoCombo>  (600) 
0.36

>  <ROCS_ShapeTanimoto>  (600) 
0.22

>  <ROCS_ColorTanimoto>  (600) 
0.14

$$$$
EN300_26686397
     RDKit          3D

 18 19  0  0  0  0  0  0  0  0999 V2000
   31.7703   13.1181    5.9431 C   0  0  0  0  0  0  0  0  0  0  0  0
   32.1569   11.6642    6.1304 C   0  0  0  0  0  0  0  0  0  0  0  0
   31.2538   10.9270    7.0677 C   0  0  0  0  0  0  0  0  0  0  0  0
   30.0998   11.7927    7.6408 C   0  0  0  0  0  0  0  0  0  0  0  0
   28.9241   11.6658    7.3749 O   0  0  0  0  0  0  0  0  0  0  0  0
   30.5486   12.8626    8.5269 N   0  0  0  0  0  0  0  0  0  0  0  0
   29.4957   13.6984    9.0759 C   0  0  0  0  0  0  0  0  0  0  0  0
   28.9258   14.6497    8.0527 C   0  0  0  0  0  0  0  0  0  0  0  0
   28.4904   15.3505    7.2585 N   0  0  0  0  0  0  0  0  0  0  0  0
   31.5795    9.5903    7.2638 C   0  0  0  0  0  0  0  0  0  0  0  0
   30.9012    8.7245    8.0662 O   0  0  0  0  0  0  0  0  0  0  0  0
   32.6310    8.9906    6.6551 N   0  0  0  0  0  0  0  0  0  0  0  0
   33.4364    9.6863    5.7999 C   0  0  0  0  0  0  0  0  0  0  0  0
   34.6144    8.9548    5.1309 C   0  0  0  0  0  0  0  0  0  0  0  0
   35.5246    9.6634    4.1789 C   0  0  0  0  0  0  0  0  0  0  0  0
   35.1522   11.1244    3.9891 C   0  0  0  0  0  0  0  0  0  0  0  0
   34.0851   11.7091    4.6273 C   0  0  0  0  0  0  0  0  0  0  0  0
   33.2353   11.0334    5.5084 C   0  0  0  0  0  0  0  0  0  0  0  0
  1  2  1  0
  2  3  2  0
  3  4  1  0
  4  5  2  0
  4  6  1  0
  6  7  1  0
  7  8  1  0
  8  9  3  0
  3 10  1  0
 10 11  1  0
 10 12  2  0
 12 13  1  0
 13 14  2  0
 14 15  1  0
 15 16  2  0
 16 17  1  0
 17 18  2  0
 18  2  1  0
 18 13  1  0
A    1
 C1 
A    2
 C2 
A    3
 C3 
A    4
 C4 
A    5
 O1 
A    6
 N1 
A    7
 C5 
A    8
 C6 
A    9
 N2 
A   10
 C7 
A   11
 O2 
A   12
 N3 
A   13
 C8 
A   14
 C9 
A   15
 C10
A   16
 C11
A   17
 C12
A   18
 C13
M  END
>  <ref_pdb>  (601) 
Ax0310a

>  <ref_mols>  (601) 
Ax0446a,Ax1080a,Ax0812a,Ax0719a,Ax1140a,Ax0528a,Ax0310a

>  <original SMILES>  (601) 
Cc1c(C(=O)NCC#N)c(O)nc2ccccc12

>  <rationale>  (601) 
info info set:bb_densepocket2;hbond:S87+S105; hydroph_interaction:P107; 

>  <experiment>  (601) 
bb_densepocket2

>  <cluster_label>  (601) 
3

>  <cluster_rank>  (601) 
258

>  <N_interactions>  (601) 
4

>  <∆∆G>  (601) 
-3.472835

>  <comRMSD>  (601) 
0.497768

>  <ROCS_TanimotoCombo>  (601) 
0.631

>  <ROCS_ShapeTanimoto>  (601) 
0.292

>  <ROCS_ColorTanimoto>  (601) 
0.339

$$$$
EN300_1629222
     RDKit          3D

 11 12  0  0  0  0  0  0  0  0999 V2000
   29.1499   12.8490    8.6708 N   0  0  0  0  0  0  0  0  0  0  0  0
   30.4496   13.6083    7.9607 S   0  0  0  0  0  6  0  0  0  0  0  0
   30.9072   14.6230    8.8790 O   0  0  0  0  0  0  0  0  0  0  0  0
   29.9050   13.8276    6.6432 O   0  0  0  0  0  0  0  0  0  0  0  0
   31.6990   12.3911    7.8058 C   0  0  2  0  0  0  0  0  0  0  0  0
   32.7146   12.2395    6.7311 C   0  0  0  0  0  0  0  0  0  0  0  0
   32.2456   10.9332    6.1739 C   0  0  1  0  0  0  0  0  0  0  0  0
   32.6379    9.6451    6.4845 C   0  0  0  0  0  0  0  0  0  0  0  0
   31.7258    8.9715    7.5408 C   0  0  0  0  0  0  0  0  0  0  0  0
   30.7914   10.0632    7.9665 C   0  0  0  0  0  0  0  0  0  0  0  0
   31.0304   11.1756    7.1391 C   0  0  1  0  0  0  0  0  0  0  0  0
  1  2  1  0
  2  3  2  0
  2  4  2  0
  5  2  1  6
  5  6  1  0
  7  6  1  1
  7  8  1  0
  8  9  1  0
  9 10  1  0
 11 10  1  1
 11  5  1  0
 11  7  1  0
A    1
 N1 
A    2
 S1 
A    3
 O1 
A    4
 O2 
A    5
 C1 
A    6
 C2 
A    7
 C3 
A    8
 C4 
A    9
 C5 
A   10
 C6 
A   11
 C7 
M  END
>  <ref_pdb>  (602) 
Ax0310a

>  <ref_mols>  (602) 
Ax0446a,Ax1080a,Ax0812a,Ax0719a,Ax1140a,Ax0528a,Ax0310a

>  <original SMILES>  (602) 
NS(=O)(=O)[C@@H]1C[C@H]2CCC[C@H]21

>  <rationale>  (602) 
info info set:sulfonimide_whole;hbond:S87+S125; hydroph_interaction:P107; 

>  <experiment>  (602) 
sulfonimide_whole

>  <cluster_label>  (602) 
3

>  <cluster_rank>  (602) 
259

>  <N_interactions>  (602) 
3

>  <∆∆G>  (602) 
-0.317468

>  <comRMSD>  (602) 
0.833879

>  <ROCS_TanimotoCombo>  (602) 
0.364

>  <ROCS_ShapeTanimoto>  (602) 
0.167

>  <ROCS_ColorTanimoto>  (602) 
0.196

$$$$
EN300_26621354
     RDKit          3D

 19 21  0  0  0  0  0  0  0  0999 V2000
   31.0186   14.5279    9.4781 O   0  0  0  0  0  0  0  0  0  0  0  0
   30.0565   14.3575    8.7458 C   0  0  0  0  0  0  0  0  0  0  0  0
   28.7099   14.8820    8.9956 C   0  0  0  0  0  0  0  0  0  0  0  0
   27.9541   14.6124    7.9373 C   0  0  0  0  0  0  0  0  0  0  0  0
   28.7616   13.8834    6.9639 C   0  0  0  0  0  0  0  0  0  0  0  0
   28.3881   13.5294    5.8582 O   0  0  0  0  0  0  0  0  0  0  0  0
   29.9643   13.6965    7.5625 N   0  0  0  0  0  0  0  0  0  0  0  0
   31.0718   13.2826    6.8253 N   0  0  0  0  0  0  0  0  0  0  0  0
   31.4346   11.9698    6.9483 C   0  0  0  0  0  0  0  0  0  0  0  0
   30.7276   11.2016    7.8366 N   0  0  0  0  0  0  0  0  0  0  0  0
   30.9439    9.8868    8.1085 C   0  0  0  0  0  0  0  0  0  0  0  0
   30.2903    9.3226    8.9758 O   0  0  0  0  0  0  0  0  0  0  0  0
   31.9288    9.2664    7.4033 N   0  0  0  0  0  0  0  0  0  0  0  0
   32.6145    9.9731    6.5608 C   0  0  0  0  0  0  0  0  0  0  0  0
   33.7149    9.3322    5.8193 C   0  0  0  0  0  0  0  0  0  0  0  0
   34.4626    9.9794    4.9301 C   0  0  0  0  0  0  0  0  0  0  0  0
   34.2447   11.3595    4.6372 C   0  0  0  0  0  0  0  0  0  0  0  0
   33.2793   12.0452    5.2633 C   0  0  0  0  0  0  0  0  0  0  0  0
   32.4226   11.4066    6.2542 C   0  0  0  0  0  0  0  0  0  0  0  0
  1  2  2  0
  2  3  1  0
  3  4  2  0
  4  5  1  0
  5  6  2  0
  5  7  1  0
  7  8  1  0
  8  9  1  0
  9 10  1  0
 10 11  1  0
 11 12  2  0
 11 13  1  0
 13 14  2  0
 14 15  1  0
 15 16  2  0
 16 17  1  0
 17 18  2  0
 18 19  1  0
  7  2  1  0
 19  9  2  0
 19 14  1  0
A    1
 O1 
A    2
 C1 
A    3
 C2 
A    4
 C3 
A    5
 C4 
A    6
 O2 
A    7
 N1 
A    8
 N2 
A    9
 C5 
A   10
 N3 
A   11
 C6 
A   12
 O3 
A   13
 N4 
A   14
 C7 
A   15
 C8 
A   16
 C9 
A   17
 C10
A   18
 C11
A   19
 C12
M  END
>  <ref_pdb>  (603) 
Ax0310a

>  <ref_mols>  (603) 
Ax0446a,Ax1080a,Ax0812a,Ax0719a,Ax1140a,Ax0528a,Ax0310a

>  <original SMILES>  (603) 
O=C1C=CC(=O)N1Nc1[nH]c(=O)nc2ccccc12

>  <rationale>  (603) 
info info set:bb_whole;hbond:S87+S105+G127; hydroph_interaction:P107+Y90; 

>  <experiment>  (603) 
bb_whole

>  <cluster_label>  (603) 
3

>  <cluster_rank>  (603) 
260

>  <N_interactions>  (603) 
7

>  <∆∆G>  (603) 
-3.457929

>  <comRMSD>  (603) 
0.450769

>  <ROCS_TanimotoCombo>  (603) 
0.411

>  <ROCS_ShapeTanimoto>  (603) 
0.24

>  <ROCS_ColorTanimoto>  (603) 
0.171

$$$$
Z3271394742
     RDKit          3D

 13 14  0  0  0  0  0  0  0  0999 V2000
   33.5823   12.9663    8.9718 O   0  0  0  0  0  0  0  0  0  0  0  0
   32.8657   13.3228    8.0500 C   0  0  0  0  0  0  0  0  0  0  0  0
   31.6221   13.7632    8.3272 O   0  0  0  0  0  0  0  0  0  0  0  0
   33.2528   13.3380    6.5725 C   0  0  0  0  0  0  0  0  0  0  0  0
   33.3124   11.8982    6.0044 C   0  0  0  0  0  0  0  0  0  0  0  0
   32.4303   10.8151    6.6957 C   0  0  0  0  0  0  0  0  0  0  0  0
   31.1558   11.2106    7.5576 C   0  0  0  0  0  0  0  0  0  0  0  0
   30.7732    9.7492    7.9478 C   0  0  0  0  0  0  0  0  0  0  0  0
   31.6787    8.7662    7.3806 O   0  0  0  0  0  0  0  0  0  0  0  0
   32.6540    9.4612    6.6307 N   0  0  0  0  0  0  0  0  0  0  0  0
   33.0466   11.9330    4.5781 C   0  0  0  0  0  0  0  0  0  0  0  0
   34.5171   11.6861    4.3882 C   0  0  0  0  0  0  0  0  0  0  0  0
   34.8336   11.4653    5.6409 C   0  0  0  0  0  0  0  0  0  0  0  0
  1  2  2  0
  2  3  1  0
  2  4  1  0
  4  5  1  0
  5  6  1  0
  6  7  1  0
  7  8  2  0
  8  9  1  0
  9 10  1  0
  5 11  1  0
 11 12  1  0
 12 13  1  0
 13  5  1  0
 10  6  2  0
A    1
 O1 
A    2
 C1 
A    3
 O2 
A    4
 C2 
A    5
 C3 
A    6
 C4 
A    7
 C5 
A    8
 C6 
A    9
 O3 
A   10
 N1 
A   11
 C7 
A   12
 C8 
A   13
 C9 
M  END
>  <ref_pdb>  (604) 
Ax0310a

>  <ref_mols>  (604) 
Ax0446a,Ax1080a,Ax0812a,Ax0719a,Ax1140a,Ax0528a,Ax0310a

>  <original SMILES>  (604) 
O=C(O)CC1(c2ccon2)CCC1

>  <rationale>  (604) 
info info set:3d;hbond:S87+G127; hydroph_interaction:P107; 

>  <experiment>  (604) 
3d

>  <cluster_label>  (604) 
3

>  <cluster_rank>  (604) 
261

>  <N_interactions>  (604) 
4

>  <∆∆G>  (604) 
-2.453667

>  <comRMSD>  (604) 
0.820708

>  <ROCS_TanimotoCombo>  (604) 
0.328

>  <ROCS_ShapeTanimoto>  (604) 
0.19

>  <ROCS_ColorTanimoto>  (604) 
0.137

$$$$
EN300_59813
     RDKit          3D

 12 12  0  0  0  0  0  0  0  0999 V2000
   34.8681   14.8790    8.8492 N   0  0  0  0  0  0  0  0  0  0  0  0
   33.5518   13.8769    8.5981 S   0  0  0  0  0  6  0  0  0  0  0  0
   32.3667   14.5395    9.0973 O   0  0  0  0  0  0  0  0  0  0  0  0
   34.0502   12.7185    9.2038 O   0  0  0  0  0  0  0  0  0  0  0  0
   33.5534   13.6175    6.8198 C   0  0  0  0  0  0  0  0  0  0  0  0
   32.2612   13.0134    6.2477 C   0  0  0  0  0  0  0  0  0  0  0  0
   32.1068   11.5811    6.6209 C   0  0  0  0  0  0  0  0  0  0  0  0
   32.8425   10.5779    6.0595 C   0  0  0  0  0  0  0  0  0  0  0  0
   32.7112    9.2021    6.4134 C   0  0  0  0  0  0  0  0  0  0  0  0
   31.7429    8.8022    7.4354 N   0  0  0  0  0  0  0  0  0  0  0  0
   31.0323    9.8328    7.9597 C   0  0  0  0  0  0  0  0  0  0  0  0
   31.1732   11.1955    7.5982 C   0  0  0  0  0  0  0  0  0  0  0  0
  1  2  1  0
  2  3  2  0
  2  4  2  0
  2  5  1  0
  5  6  1  0
  6  7  1  0
  7  8  2  0
  8  9  1  0
  9 10  2  0
 10 11  1  0
 11 12  2  0
 12  7  1  0
A    1
 N1 
A    2
 S1 
A    3
 O1 
A    4
 O2 
A    5
 C1 
A    6
 C2 
A    7
 C3 
A    8
 C4 
A    9
 C5 
A   10
 N2 
A   11
 C6 
A   12
 C7 
M  END
>  <ref_pdb>  (605) 
Ax0310a

>  <ref_mols>  (605) 
Ax0446a,Ax1080a,Ax0812a,Ax0719a,Ax1140a,Ax0528a,Ax0310a

>  <original SMILES>  (605) 
NS(=O)(=O)CCc1ccncc1

>  <rationale>  (605) 
info info set:sulfonimide_whole;hbond:S87+G127+E85; hydroph_interaction:P107; 

>  <experiment>  (605) 
sulfonimide_whole

>  <cluster_label>  (605) 
3

>  <cluster_rank>  (605) 
262

>  <N_interactions>  (605) 
4

>  <∆∆G>  (605) 
-6.309016

>  <comRMSD>  (605) 
0.39332

>  <ROCS_TanimotoCombo>  (605) 
0.343

>  <ROCS_ShapeTanimoto>  (605) 
0.173

>  <ROCS_ColorTanimoto>  (605) 
0.17

$$$$
EN300_76290
     RDKit          3D

 16 17  0  0  0  0  0  0  0  0999 V2000
   29.0486   13.1062    8.8449 N   0  0  0  0  0  0  0  0  0  0  0  0
   30.4590   13.3431    7.9935 S   0  0  0  0  0  6  0  0  0  0  0  0
   29.9390   13.8034    6.7385 O   0  0  0  0  0  0  0  0  0  0  0  0
   31.3413   14.1138    8.8435 O   0  0  0  0  0  0  0  0  0  0  0  0
   31.1606   11.7406    7.6602 C   0  0  0  0  0  0  0  0  0  0  0  0
   30.6415   10.5853    8.2182 C   0  0  0  0  0  0  0  0  0  0  0  0
   31.3824    9.5381    7.7551 N   0  0  0  0  0  0  0  0  0  0  0  0
   32.3620   10.0409    6.9054 C   0  0  0  0  0  0  0  0  0  0  0  0
   33.4174    9.2891    6.1360 C   0  0  0  0  0  0  0  0  0  0  0  0
   34.3807   10.1449    5.2944 C   0  0  0  0  0  0  0  0  0  0  0  0
   34.2000   11.5231    5.3095 C   0  0  0  0  0  0  0  0  0  0  0  0
   35.1457   12.3117    4.5067 N   0  0  0  0  0  4  0  0  0  0  0  0
   35.0357   13.5394    4.5164 O   0  0  0  0  0  0  0  0  0  0  0  0
   36.1196   11.7046    4.0272 O   0  0  0  0  0  1  0  0  0  0  0  0
   33.1779   12.1688    6.0436 C   0  0  0  0  0  0  0  0  0  0  0  0
   32.2618   11.4243    6.8375 C   0  0  0  0  0  0  0  0  0  0  0  0
  1  2  1  0
  2  3  2  0
  2  4  2  0
  2  5  1  0
  5  6  2  0
  6  7  1  0
  7  8  1  0
  8  9  2  0
  9 10  1  0
 10 11  2  0
 11 12  1  0
 12 13  2  0
 12 14  1  0
 11 15  1  0
 15 16  2  0
 16  5  1  0
 16  8  1  0
M  CHG  2  12   1  14  -1
A    1
 N1 
A    2
 S1 
A    3
 O1 
A    4
 O2 
A    5
 C1 
A    6
 C2 
A    7
 N2 
A    8
 C3 
A    9
 C4 
A   10
 C5 
A   11
 C6 
A   12
 N3 
A   13
 O3 
A   14
 O4 
A   15
 C7 
A   16
 C8 
M  END
>  <ref_pdb>  (606) 
Ax0310a

>  <ref_mols>  (606) 
Ax0446a,Ax1080a,Ax0812a,Ax0719a,Ax1140a,Ax0528a,Ax0310a

>  <original SMILES>  (606) 
NS(=O)(=O)c1c[nH]c2ccc([N+](=O)[O-])cc12

>  <rationale>  (606) 
info info set:sulfonimide_whole;hbond:S87+S125; 

>  <experiment>  (606) 
sulfonimide_whole

>  <cluster_label>  (606) 
3

>  <cluster_rank>  (606) 
263

>  <N_interactions>  (606) 
2

>  <∆∆G>  (606) 
-5.102317

>  <comRMSD>  (606) 
0.509184

>  <ROCS_TanimotoCombo>  (606) 
0.356

>  <ROCS_ShapeTanimoto>  (606) 
0.198

>  <ROCS_ColorTanimoto>  (606) 
0.158

$$$$
Z361883512
     RDKit          3D

 13 14  0  0  0  0  0  0  0  0999 V2000
   32.9765   12.3901    5.6952 C   0  0  0  0  0  0  0  0  0  0  0  0
   32.4011   11.3488    6.4176 C   0  0  0  0  0  0  0  0  0  0  0  0
   32.8255   10.0537    6.1342 C   0  0  0  0  0  0  0  0  0  0  0  0
   32.3073    8.9582    6.8037 C   0  0  0  0  0  0  0  0  0  0  0  0
   31.2680    9.1708    7.8472 C   0  0  0  0  0  0  0  0  0  0  0  0
   30.8370   10.4237    8.1430 C   0  0  0  0  0  0  0  0  0  0  0  0
   31.4301   11.5930    7.3954 C   0  0  0  0  0  0  0  0  0  0  0  0
   30.9862   12.8484    7.7122 C   0  0  0  0  0  0  0  0  0  0  0  0
   31.8441   13.6307    8.4979 C   0  0  0  0  0  0  0  0  0  0  0  0
   31.4965   14.6335    9.1034 O   0  0  0  0  0  0  0  0  0  0  0  0
   33.1323   13.1733    8.5674 O   0  0  0  0  0  0  0  0  0  0  0  0
   29.5432   12.8504    8.2070 C   0  0  0  0  0  0  0  0  0  0  0  0
   29.8213   13.4047    6.8675 C   0  0  0  0  0  0  0  0  0  0  0  0
  1  2  1  0
  2  3  2  0
  3  4  1  0
  4  5  2  0
  5  6  1  0
  6  7  2  0
  7  8  1  0
  8  9  1  0
  9 10  2  0
  9 11  1  0
  8 12  1  0
 12 13  1  0
  7  2  1  0
 13  8  1  0
A    1
 C1 
A    2
 C2 
A    3
 C3 
A    4
 C4 
A    5
 C5 
A    6
 C6 
A    7
 C7 
A    8
 C8 
A    9
 C9 
A   10
 O1 
A   11
 O2 
A   12
 C10
A   13
 C11
M  END
>  <ref_pdb>  (607) 
Ax0310a

>  <ref_mols>  (607) 
Ax0446a,Ax1080a,Ax0812a,Ax0719a,Ax1140a,Ax0528a,Ax0310a

>  <original SMILES>  (607) 
Cc1ccccc1C1(C(=O)O)CC1

>  <rationale>  (607) 
info info set:3d;hbond:S87+G127; hydroph_interaction:P107; 

>  <experiment>  (607) 
3d

>  <cluster_label>  (607) 
3

>  <cluster_rank>  (607) 
264

>  <N_interactions>  (607) 
4

>  <∆∆G>  (607) 
-6.273688

>  <comRMSD>  (607) 
0.408285

>  <ROCS_TanimotoCombo>  (607) 
0.312

>  <ROCS_ShapeTanimoto>  (607) 
0.194

>  <ROCS_ColorTanimoto>  (607) 
0.117

$$$$
EN300_61671
     RDKit          3D

 13 14  0  0  0  0  0  0  0  0999 V2000
   28.5500   13.9311    9.7155 N   0  0  0  0  0  0  0  0  0  0  0  0
   29.6263   14.4893    8.5538 S   0  0  0  0  0  6  0  0  0  0  0  0
   28.7602   15.0522    7.5493 O   0  0  0  0  0  0  0  0  0  0  0  0
   30.5538   15.2849    9.3263 O   0  0  0  0  0  0  0  0  0  0  0  0
   30.4491   13.0093    7.9277 C   0  0  0  0  0  0  0  0  0  0  0  0
   30.1748   11.7540    8.4165 N   0  0  0  0  0  0  0  0  0  0  0  0
   30.9739   10.8682    7.7583 C   0  0  0  0  0  0  0  0  0  0  0  0
   30.9418    9.3532    8.0708 C   0  0  0  0  0  0  0  0  0  0  0  0
   31.9769    8.8875    7.1036 C   0  0  0  0  0  0  0  0  0  0  0  0
   32.8384    9.5483    6.0970 C   0  0  0  0  0  0  0  0  0  0  0  0
   32.7927   11.0170    5.8664 C   0  0  0  0  0  0  0  0  0  0  0  0
   31.7915   11.6995    6.7704 C   0  0  0  0  0  0  0  0  0  0  0  0
   31.3994   12.9947    6.9466 N   0  0  0  0  0  0  0  0  0  0  0  0
  1  2  1  0
  2  3  2  0
  2  4  2  0
  2  5  1  0
  5  6  2  0
  6  7  1  0
  7  8  2  0
  8  9  1  0
  9 10  2  0
 10 11  1  0
 11 12  2  0
 12 13  1  0
 13  5  1  0
 12  7  1  0
A    1
 N1 
A    2
 S1 
A    3
 O1 
A    4
 O2 
A    5
 C1 
A    6
 N2 
A    7
 C2 
A    8
 C3 
A    9
 C4 
A   10
 C5 
A   11
 C6 
A   12
 C7 
A   13
 N3 
M  END
>  <ref_pdb>  (608) 
Ax0310a

>  <ref_mols>  (608) 
Ax0446a,Ax1080a,Ax0812a,Ax0719a,Ax1140a,Ax0528a,Ax0310a

>  <original SMILES>  (608) 
NS(=O)(=O)c1nc2ccccc2[nH]1

>  <rationale>  (608) 
info info set:sulfonimide_whole;hbond:S87+S125; hydroph_interaction:P107; 

>  <experiment>  (608) 
sulfonimide_whole

>  <cluster_label>  (608) 
3

>  <cluster_rank>  (608) 
265

>  <N_interactions>  (608) 
4

>  <∆∆G>  (608) 
-5.501627

>  <comRMSD>  (608) 
0.389587

>  <ROCS_TanimotoCombo>  (608) 
0.337

>  <ROCS_ShapeTanimoto>  (608) 
0.189

>  <ROCS_ColorTanimoto>  (608) 
0.149

$$$$
Z981021260
     RDKit          3D

 16 16  0  0  0  0  0  0  0  0999 V2000
   28.4850   15.6139    7.6318 N   0  0  0  0  0  0  0  0  0  0  0  0
   28.8736   14.6491    8.1020 C   0  0  0  0  0  0  0  0  0  0  0  0
   29.4305   13.3924    8.7063 C   0  0  0  0  0  0  0  0  0  0  0  0
   30.3537   12.8591    7.9037 N   0  0  0  0  0  0  0  0  0  0  0  0
   30.6476   11.5479    8.0114 C   0  0  0  0  0  0  0  0  0  0  0  0
   30.1863   10.7626    8.8011 O   0  0  0  0  0  0  0  0  0  0  0  0
   31.6236   10.8649    7.1260 C   0  0  0  0  0  0  0  0  0  0  0  0
   32.4076   11.6769    6.0911 C   0  0  0  0  0  0  0  0  0  0  0  0
   33.3953   10.9267    5.1933 C   0  0  0  0  0  0  0  0  0  0  0  0
   33.5019    9.4506    5.4230 C   0  0  0  0  0  0  0  0  0  0  0  0
   34.5265    8.8305    4.4363 C   0  0  0  0  0  0  0  0  0  0  0  0
   35.2450    9.7974    3.8186 F   0  0  0  0  0  0  0  0  0  0  0  0
   35.4584    8.0420    5.0221 F   0  0  0  0  0  0  0  0  0  0  0  0
   34.0464    8.1058    3.3969 F   0  0  0  0  0  0  0  0  0  0  0  0
   32.8061    8.7491    6.3522 N   0  0  0  0  0  0  0  0  0  0  0  0
   31.9362    9.3449    7.1504 C   0  0  0  0  0  0  0  0  0  0  0  0
  1  2  3  0
  2  3  1  0
  3  4  1  0
  4  5  1  0
  5  6  2  0
  5  7  1  0
  7  8  2  0
  8  9  1  0
  9 10  2  0
 10 11  1  0
 11 12  1  0
 11 13  1  0
 11 14  1  0
 10 15  1  0
 15 16  2  0
 16  7  1  0
A    1
 N1 
A    2
 C1 
A    3
 C2 
A    4
 N2 
A    5
 C3 
A    6
 O1 
A    7
 C4 
A    8
 C5 
A    9
 C6 
A   10
 C7 
A   11
 C8 
A   12
 F1 
A   13
 F2 
A   14
 F3 
A   15
 N3 
A   16
 C9 
M  END
>  <ref_pdb>  (609) 
Ax0310a

>  <ref_mols>  (609) 
Ax0446a,Ax1080a,Ax0812a,Ax0719a,Ax1140a,Ax0528a,Ax0310a

>  <original SMILES>  (609) 
N#CCNC(=O)c1ccc(C(F)(F)F)nc1

>  <rationale>  (609) 
info info set:screening_pocket;hbond:S87; hydroph_interaction:P107; 

>  <experiment>  (609) 
screening_pocket

>  <cluster_label>  (609) 
3

>  <cluster_rank>  (609) 
266

>  <N_interactions>  (609) 
3

>  <∆∆G>  (609) 
-0.889353

>  <comRMSD>  (609) 
0.698338

>  <ROCS_TanimotoCombo>  (609) 
0.664

>  <ROCS_ShapeTanimoto>  (609) 
0.224

>  <ROCS_ColorTanimoto>  (609) 
0.44

$$$$
EN300_2010035
     RDKit          3D

 20 21  0  0  0  0  0  0  0  0999 V2000
   33.9764   11.6386    6.0360 C   0  0  0  0  0  0  0  0  0  0  0  0
   33.6132   12.9114    6.7770 C   0  0  0  0  0  0  0  0  0  0  0  0
   32.9836   13.7548    5.6663 C   0  0  0  0  0  0  0  0  0  0  0  0
   34.7981   13.5563    7.2569 O   0  0  0  0  0  0  0  0  0  0  0  0
   34.8417   13.3861    8.7415 B   0  0  0  0  0  0  0  0  0  0  0  0
   36.2406   13.2161    9.5662 C   0  0  0  0  0  0  0  0  0  0  0  0
   37.5600   13.4658    8.8716 C   0  0  0  0  0  0  0  0  0  0  0  0
   38.8272   13.2756    9.6989 C   0  0  0  0  0  0  0  0  0  0  0  0
   38.8235   12.8459   11.1624 C   0  0  0  0  0  0  0  0  0  0  0  0
   40.1831   12.5976   12.1932 S   0  0  0  0  0  6  0  0  0  0  0  0
   40.9396   11.2011   11.6734 N   0  0  0  0  0  0  0  0  0  0  0  0
   41.1331   13.7389   12.0222 O   0  0  0  0  0  0  0  0  0  0  0  0
   39.8243   12.4168   13.5861 O   0  0  0  0  0  0  0  0  0  0  0  0
   37.5410   12.6599   11.5863 C   0  0  0  0  0  0  0  0  0  0  0  0
   37.3295   12.2306   12.9254 N   0  0  0  0  0  0  0  0  0  0  0  0
   36.4068   12.8251   10.8897 C   0  0  0  0  0  0  0  0  0  0  0  0
   33.6518   12.5673    9.0612 O   0  0  0  0  0  0  0  0  0  0  0  0
   32.7476   12.6224    7.9774 C   0  0  0  0  0  0  0  0  0  0  0  0
   31.8614   11.4189    7.6997 C   0  0  0  0  0  0  0  0  0  0  0  0
   31.8173   13.6889    8.4468 C   0  0  0  0  0  0  0  0  0  0  0  0
  1  2  1  0
  2  3  1  0
  2  4  1  0
  4  5  1  0
  5  6  1  0
  6  7  2  0
  7  8  1  0
  8  9  2  0
  9 10  1  0
 10 11  1  0
 10 12  2  0
 10 13  2  0
  9 14  1  0
 14 15  1  0
 14 16  2  0
  5 17  1  0
 17 18  1  0
 18 19  1  0
 18 20  1  0
 18  2  1  0
 16  6  1  0
A    1
 C1 
A    2
 C2 
A    3
 C3 
A    4
 O1 
A    5
 B1 
A    6
 C4 
A    7
 C5 
A    8
 C6 
A    9
 C7 
A   10
 S1 
A   11
 N1 
A   12
 O2 
A   13
 O3 
A   14
 C8 
A   15
 N2 
A   16
 C9 
A   17
 O4 
A   18
 C10
A   19
 C11
A   20
 C12
M  END
>  <ref_pdb>  (610) 
Ax0310a

>  <ref_mols>  (610) 
Ax0446a,Ax1080a,Ax0812a,Ax0719a,Ax1140a,Ax0528a,Ax0310a

>  <original SMILES>  (610) 
CC1(C)OB(c2ccc(S(N)(=O)=O)c(N)c2)OC1(C)C

>  <rationale>  (610) 
info info set:sulfonimide_joint;hbond:G127+T126; hydroph_interaction:V84+E85; 

>  <experiment>  (610) 
sulfonimide_joint

>  <cluster_label>  (610) 
3

>  <cluster_rank>  (610) 
267

>  <N_interactions>  (610) 
6

>  <∆∆G>  (610) 
-4.070851

>  <comRMSD>  (610) 
0.511135

>  <ROCS_TanimotoCombo>  (610) 
0.337

>  <ROCS_ShapeTanimoto>  (610) 
0.24

>  <ROCS_ColorTanimoto>  (610) 
0.097

$$$$
Z2900718543
     RDKit          3D

 18 19  0  0  0  0  0  0  0  0999 V2000
   28.8407   16.4264    8.4313 C   0  0  0  0  0  0  0  0  0  0  0  0
   28.7421   15.8895    7.1727 O   0  0  0  0  0  0  0  0  0  0  0  0
   28.2569   14.6234    7.3864 C   0  0  0  0  0  0  0  0  0  0  0  0
   29.0959   13.8906    8.3571 C   0  0  0  0  0  0  0  0  0  0  0  0
   29.6750   14.5720    9.6094 C   0  0  0  0  0  0  0  0  0  0  0  0
   28.1257   12.9600    8.9006 C   0  0  0  0  0  0  0  0  0  0  0  0
   30.1392   13.0800    7.5923 C   0  0  0  0  0  0  0  0  0  0  0  0
   30.6643   13.5119    6.5834 O   0  0  0  0  0  0  0  0  0  0  0  0
   30.4268   11.8431    8.1073 N   0  0  0  0  0  0  0  0  0  0  0  0
   31.3039   10.9554    7.4695 C   0  0  0  0  0  0  0  0  0  0  0  0
   31.3410    9.5744    7.6207 C   0  0  0  0  0  0  0  0  0  0  0  0
   32.1979    8.7372    6.9873 N   0  0  0  0  0  0  0  0  0  0  0  0
   33.0836    9.4110    6.1238 C   0  0  0  0  0  0  0  0  0  0  0  0
   34.0565    8.7866    5.3593 N   0  0  0  0  0  0  0  0  0  0  0  0
   34.7670    9.6869    4.6193 C   0  0  0  0  0  0  0  0  0  0  0  0
   34.1641   11.0042    4.9725 C   0  0  0  0  0  0  0  0  0  0  0  0
   33.1303   10.7802    5.9021 C   0  0  0  0  0  0  0  0  0  0  0  0
   32.2145   11.5694    6.5972 C   0  0  0  0  0  0  0  0  0  0  0  0
  1  2  1  0
  2  3  1  0
  3  4  1  0
  4  5  1  0
  4  6  1  0
  4  7  1  0
  7  8  2  0
  7  9  1  0
  9 10  1  0
 10 11  2  0
 11 12  1  0
 12 13  2  0
 13 14  1  0
 14 15  1  0
 15 16  2  0
 16 17  1  0
 17 18  2  0
 18 10  1  0
 17 13  1  0
A    1
 C1 
A    2
 O1 
A    3
 C2 
A    4
 C3 
A    5
 C4 
A    6
 C5 
A    7
 C6 
A    8
 O2 
A    9
 N1 
A   10
 C7 
A   11
 C8 
A   12
 N2 
A   13
 C9 
A   14
 N3 
A   15
 C10
A   16
 C11
A   17
 C12
A   18
 C13
M  END
>  <ref_pdb>  (611) 
Ax0310a

>  <ref_mols>  (611) 
Ax0446a,Ax1080a,Ax0812a,Ax0719a,Ax1140a,Ax0528a,Ax0310a

>  <original SMILES>  (611) 
COCC(C)(C)C(=O)Nc1cnc2[nH]ccc2c1

>  <rationale>  (611) 
info info set:screening_pocket;hbond:S87+S125+Y90; hydroph_interaction:Y90; 

>  <experiment>  (611) 
screening_pocket

>  <cluster_label>  (611) 
3

>  <cluster_rank>  (611) 
268

>  <N_interactions>  (611) 
4

>  <∆∆G>  (611) 
-6.072631

>  <comRMSD>  (611) 
0.69247

>  <ROCS_TanimotoCombo>  (611) 
0.663

>  <ROCS_ShapeTanimoto>  (611) 
0.254

>  <ROCS_ColorTanimoto>  (611) 
0.409

$$$$
Z31120789
     RDKit          3D

 27 30  0  0  0  0  0  0  0  0999 V2000
   32.3972   14.9516   10.1239 C   0  0  0  0  0  0  0  0  0  0  0  0
   32.0340   13.9981    9.1402 O   0  0  0  0  0  0  0  0  0  0  0  0
   30.7341   14.0284    8.7277 C   0  0  0  0  0  0  0  0  0  0  0  0
   29.7095   14.6684    9.5872 C   0  0  0  0  0  0  0  0  0  0  0  0
   28.2946   14.6917    9.0768 C   0  0  0  0  0  0  0  0  0  0  0  0
   27.3626   15.4351    9.9971 C   0  0  0  0  0  0  0  0  0  0  0  0
   28.1015   16.6330    9.3594 C   0  0  0  0  0  0  0  0  0  0  0  0
   26.5207   15.2239   10.7888 O   0  0  0  0  0  0  0  0  0  0  0  0
   27.8868   14.1279    7.8679 C   0  0  0  0  0  0  0  0  0  0  0  0
   28.9328   13.4720    6.9880 C   0  0  0  0  0  0  0  0  0  0  0  0
   30.3655   13.4975    7.5325 C   0  0  0  0  0  0  0  0  0  0  0  0
   31.3612   12.9479    6.7073 O   0  0  0  0  0  0  0  0  0  0  0  0
   31.5363   11.5965    6.9407 C   0  0  0  0  0  0  0  0  0  0  0  0
   30.5234   10.9183    7.7792 N   0  0  0  0  0  0  0  0  0  0  0  0
   30.9566    9.6357    7.7940 C   0  0  0  0  0  0  0  0  0  0  0  0
   30.1132    8.7219    8.6841 C   0  0  0  0  0  0  0  0  0  0  0  0
   31.9729    9.0054    7.2047 N   0  0  0  0  0  0  0  0  0  0  0  0
   32.7671    9.7604    6.4928 C   0  0  0  0  0  0  0  0  0  0  0  0
   34.0965    9.1107    5.6715 S   0  0  0  0  0  0  0  0  0  0  0  0
   34.5392   10.6506    5.1727 C   0  0  0  0  0  0  0  0  0  0  0  0
   33.6953   11.6416    5.5852 C   0  0  0  0  0  0  0  0  0  0  0  0
   33.9972   12.9217    5.2484 C   0  0  0  0  0  0  0  0  0  0  0  0
   34.8333   13.7173    6.1855 C   0  0  0  0  0  0  0  0  0  0  0  0
   35.0688   14.9769    5.6542 C   0  0  0  0  0  0  0  0  0  0  0  0
   34.4623   15.1472    4.4129 C   0  0  0  0  0  0  0  0  0  0  0  0
   33.5727   13.8011    3.8554 S   0  0  0  0  0  0  0  0  0  0  0  0
   32.6300   11.0855    6.3449 C   0  0  0  0  0  0  0  0  0  0  0  0
  1  2  1  0
  2  3  1  0
  3  4  2  0
  4  5  1  0
  5  6  1  0
  6  7  1  0
  6  8  2  0
  5  9  2  0
  9 10  1  0
 10 11  2  0
 11 12  1  0
 12 13  1  0
 13 14  2  0
 14 15  1  0
 15 16  1  0
 15 17  2  0
 17 18  1  0
 18 19  1  0
 19 20  1  0
 20 21  2  0
 21 22  1  0
 22 23  2  0
 23 24  1  0
 24 25  2  0
 25 26  1  0
 21 27  1  0
 11  3  1  0
 27 13  1  0
 27 18  2  0
 26 22  1  0
A    1
 C1 
A    2
 O1 
A    3
 C2 
A    4
 C3 
A    5
 C4 
A    6
 C5 
A    7
 C6 
A    8
 O2 
A    9
 C7 
A   10
 C8 
A   11
 C9 
A   12
 O3 
A   13
 C10
A   14
 N1 
A   15
 C11
A   16
 C12
A   17
 N2 
A   18
 C13
A   19
 S1 
A   20
 C14
A   21
 C15
A   22
 C16
A   23
 C17
A   24
 C18
A   25
 C19
A   26
 S2 
A   27
 C20
M  END
>  <ref_pdb>  (612) 
Ax0310a

>  <ref_mols>  (612) 
Ax0446a,Ax1080a,Ax0812a,Ax0719a,Ax1140a,Ax0528a,Ax0310a

>  <original SMILES>  (612) 
COc1cc(C(C)=O)ccc1Oc1nc(C)nc2scc(-c3cccs3)c12

>  <rationale>  (612) 
info info set:screening_whole;hbond:S87; hydroph_interaction:Y89+Y90+V124; pistack:H21; 

>  <experiment>  (612) 
screening_whole

>  <cluster_label>  (612) 
3

>  <cluster_rank>  (612) 
269

>  <N_interactions>  (612) 
5

>  <∆∆G>  (612) 
-9.043609

>  <comRMSD>  (612) 
0.880981

>  <ROCS_TanimotoCombo>  (612) 
0.463

>  <ROCS_ShapeTanimoto>  (612) 
0.259

>  <ROCS_ColorTanimoto>  (612) 
0.204

$$$$
Z729353458
     RDKit          3D

 18 20  0  0  0  0  0  0  0  0999 V2000
   31.5725   14.5980    8.9938 O   0  0  0  0  0  0  0  0  0  0  0  0
   30.5718   13.6991    8.4600 S   0  0  0  0  0  6  0  0  0  0  0  0
   30.3774   12.4125    8.9393 O   0  0  0  0  0  0  0  0  0  0  0  0
   28.9941   14.4758    8.2649 C   0  0  0  0  0  0  0  0  0  0  0  0
   28.5334   14.1075    7.0086 C   0  0  0  0  0  0  0  0  0  0  0  0
   29.5262   13.6121    6.1157 C   0  0  0  0  0  0  0  0  0  0  0  0
   30.8300   13.3771    6.8466 N   0  0  0  0  0  0  0  0  0  0  0  0
   32.1810   13.4855    6.2949 C   0  0  0  0  0  0  0  0  0  0  0  0
   32.8198   12.1459    6.0732 C   0  0  0  0  0  0  0  0  0  0  0  0
   34.0907   12.0684    5.2099 C   0  0  0  0  0  0  0  0  0  0  0  0
   34.7024   10.6998    5.0125 C   0  0  0  0  0  0  0  0  0  0  0  0
   33.9136    9.6507    5.7333 C   0  0  0  0  0  0  0  0  0  0  0  0
   32.7649    9.8389    6.5080 C   0  0  0  0  0  0  0  0  0  0  0  0
   32.0994    8.6530    7.1939 C   0  0  0  0  0  0  0  0  0  0  0  0
   30.8757    9.0406    7.9991 C   0  0  0  0  0  0  0  0  0  0  0  0
   30.5071   10.3415    8.0273 C   0  0  0  0  0  0  0  0  0  0  0  0
   31.1363   11.3260    7.3943 N   0  0  0  0  0  0  0  0  0  0  0  0
   32.2201   11.0884    6.6725 C   0  0  0  0  0  0  0  0  0  0  0  0
  1  2  2  0
  2  3  2  0
  2  4  1  0
  4  5  1  0
  5  6  1  0
  6  7  1  0
  7  8  1  0
  8  9  1  0
  9 10  2  0
 10 11  1  0
 11 12  2  0
 12 13  1  0
 13 14  2  0
 14 15  1  0
 15 16  2  0
 16 17  1  0
 17 18  2  0
  7  2  1  0
 18  9  1  0
 18 13  1  0
A    1
 O1 
A    2
 S1 
A    3
 O2 
A    4
 C1 
A    5
 C2 
A    6
 C3 
A    7
 N1 
A    8
 C4 
A    9
 C5 
A   10
 C6 
A   11
 C7 
A   12
 C8 
A   13
 C9 
A   14
 C10
A   15
 C11
A   16
 C12
A   17
 N2 
A   18
 C13
M  END
>  <ref_pdb>  (613) 
Ax0310a

>  <ref_mols>  (613) 
Ax0446a,Ax1080a,Ax0812a,Ax0719a,Ax1140a,Ax0528a,Ax0310a

>  <original SMILES>  (613) 
O=S1(=O)CCCN1Cc1cccc2cccnc12

>  <rationale>  (613) 
info info set:3d;hbond:S87+G127; 

>  <experiment>  (613) 
3d

>  <cluster_label>  (613) 
3

>  <cluster_rank>  (613) 
270

>  <N_interactions>  (613) 
2

>  <∆∆G>  (613) 
-0.847012

>  <comRMSD>  (613) 
0.619488

>  <ROCS_TanimotoCombo>  (613) 
0.386

>  <ROCS_ShapeTanimoto>  (613) 
0.236

>  <ROCS_ColorTanimoto>  (613) 
0.15

$$$$
EN300_45177709
     RDKit          3D

 15 16  0  0  0  0  0  0  0  0999 V2000
   30.4893   13.5996    9.2862 N   0  0  0  0  0  0  0  0  0  0  0  0
   31.7579   13.0336    8.3345 S   0  0  0  0  0  6  0  0  0  0  0  0
   31.8116   13.8485    7.2516 O   0  0  0  0  0  0  0  0  0  0  0  0
   32.9910   12.8644    9.0701 O   0  0  0  0  0  0  0  0  0  0  0  0
   31.2845   11.6619    7.3612 C   0  0  2  0  0  0  0  0  0  0  0  0
   30.7655   10.4329    8.0366 C   0  0  0  0  0  0  0  0  0  0  0  0
   31.2560    9.1629    7.7164 C   0  0  0  0  0  0  0  0  0  0  0  0
   32.1081    9.0521    6.5447 O   0  0  0  0  0  0  0  0  0  0  0  0
   32.9070   10.2375    6.1914 C   0  0  0  0  0  0  0  0  0  0  0  0
   34.0902   10.1730    5.4299 C   0  0  0  0  0  0  0  0  0  0  0  0
   34.8591    8.6360    4.6859 Br  0  0  0  0  0  0  0  0  0  0  0  0
   34.8851   11.3062    5.1063 C   0  0  0  0  0  0  0  0  0  0  0  0
   34.4946   12.5501    5.5351 C   0  0  0  0  0  0  0  0  0  0  0  0
   33.3169   12.5976    6.2633 C   0  0  0  0  0  0  0  0  0  0  0  0
   32.5197   11.4845    6.5951 C   0  0  0  0  0  0  0  0  0  0  0  0
  1  2  1  0
  2  3  2  0
  2  4  2  0
  5  2  1  1
  5  6  1  0
  6  7  1  0
  7  8  1  0
  8  9  1  0
  9 10  2  0
 10 11  1  0
 10 12  1  0
 12 13  2  0
 13 14  1  0
 14 15  2  0
 15  5  1  0
 15  9  1  0
A    1
 N1 
A    2
 S1 
A    3
 O1 
A    4
 O2 
A    5
 C1 
A    6
 C2 
A    7
 C3 
A    8
 O3 
A    9
 C4 
A   10
 C5 
A   11
BR1 
A   12
 C6 
A   13
 C7 
A   14
 C8 
A   15
 C9 
M  END
>  <ref_pdb>  (614) 
Ax0310a

>  <ref_mols>  (614) 
Ax0446a,Ax1080a,Ax0812a,Ax0719a,Ax1140a,Ax0528a,Ax0310a

>  <original SMILES>  (614) 
NS(=O)(=O)[C@@H]1CCOc2c(Br)cccc21

>  <rationale>  (614) 
info info set:sulfonimide_whole;hbond:S87+S125+G127; 

>  <experiment>  (614) 
sulfonimide_whole

>  <cluster_label>  (614) 
3

>  <cluster_rank>  (614) 
271

>  <N_interactions>  (614) 
3

>  <∆∆G>  (614) 
-2.11973

>  <comRMSD>  (614) 
0.987559

>  <ROCS_TanimotoCombo>  (614) 
0.353

>  <ROCS_ShapeTanimoto>  (614) 
0.206

>  <ROCS_ColorTanimoto>  (614) 
0.147

$$$$
EN300_213965
     RDKit          3D

 14 14  0  0  0  0  0  0  0  0999 V2000
   34.6889   14.0561    5.4917 C   0  0  0  0  0  0  0  0  0  0  0  0
   33.6317   13.3281    6.0997 O   0  0  0  0  0  0  0  0  0  0  0  0
   33.4485   12.0367    5.5311 C   0  0  0  0  0  0  0  0  0  0  0  0
   32.5569   11.2295    6.4311 C   0  0  0  0  0  0  0  0  0  0  0  0
   32.6782    9.8412    6.3744 C   0  0  0  0  0  0  0  0  0  0  0  0
   31.8400    8.9568    7.2282 C   0  0  0  0  0  0  0  0  0  0  0  0
   30.9185    9.5422    8.0837 C   0  0  0  0  0  0  0  0  0  0  0  0
   30.8083   10.9313    8.1259 C   0  0  0  0  0  0  0  0  0  0  0  0
   31.6025   11.7930    7.3298 C   0  0  0  0  0  0  0  0  0  0  0  0
   31.4080   13.2950    7.4633 C   0  0  0  0  0  0  0  0  0  0  0  0
   32.1969   13.9008    8.9975 S   0  0  0  0  0  6  0  0  0  0  0  0
   30.8655   13.7798    9.9858 N   0  0  0  0  0  0  0  0  0  0  0  0
   33.2915   13.0280    9.3351 O   0  0  0  0  0  0  0  0  0  0  0  0
   32.3276   15.3007    9.2993 O   0  0  0  0  0  0  0  0  0  0  0  0
  1  2  1  0
  2  3  1  0
  3  4  1  0
  4  5  2  0
  5  6  1  0
  6  7  2  0
  7  8  1  0
  8  9  2  0
  9 10  1  0
 10 11  1  0
 11 12  1  0
 11 13  2  0
 11 14  2  0
  9  4  1  0
A    1
 C1 
A    2
 O1 
A    3
 C2 
A    4
 C3 
A    5
 C4 
A    6
 C5 
A    7
 C6 
A    8
 C7 
A    9
 C8 
A   10
 C9 
A   11
 S1 
A   12
 N1 
A   13
 O2 
A   14
 O3 
M  END
>  <ref_pdb>  (615) 
Ax0310a

>  <ref_mols>  (615) 
Ax0446a,Ax1080a,Ax0812a,Ax0719a,Ax1140a,Ax0528a,Ax0310a

>  <original SMILES>  (615) 
COCc1ccccc1CS(N)(=O)=O

>  <rationale>  (615) 
info info set:sulfonimide_whole;hbond:S87+S125+G127; 

>  <experiment>  (615) 
sulfonimide_whole

>  <cluster_label>  (615) 
3

>  <cluster_rank>  (615) 
272

>  <N_interactions>  (615) 
3

>  <∆∆G>  (615) 
-6.334687

>  <comRMSD>  (615) 
0.357198

>  <ROCS_TanimotoCombo>  (615) 
0.354

>  <ROCS_ShapeTanimoto>  (615) 
0.177

>  <ROCS_ColorTanimoto>  (615) 
0.177

$$$$
EN300_8206150
     RDKit          3D

 13 13  0  0  0  0  0  0  0  0999 V2000
   28.9105    9.5867    8.7053 C   0  0  0  0  0  0  0  0  0  0  0  0
   30.0362    8.7191    9.0754 C   0  0  0  0  0  0  0  0  0  0  0  0
   29.8392    8.1647   10.3931 C   0  0  0  0  0  0  0  0  0  0  0  0
   29.8279    7.4282    8.5354 C   0  0  0  0  0  0  0  0  0  0  0  0
   31.2254    9.3456    8.6753 O   0  0  0  0  0  0  0  0  0  0  0  0
   31.0807   10.6053    8.1520 C   0  0  0  0  0  0  0  0  0  0  0  0
   30.3740   11.4634    8.6297 O   0  0  0  0  0  0  0  0  0  0  0  0
   31.8203   10.7918    7.0395 N   0  0  0  0  0  0  0  0  0  0  0  0
   32.3176   11.9592    6.5863 C   0  0  0  0  0  0  0  0  0  0  0  0
   33.2105   11.4546    5.5092 C   0  0  0  0  0  0  0  0  0  0  0  0
   33.3258   10.2760    5.2523 O   0  0  0  0  0  0  0  0  0  0  0  0
   32.5695    9.7382    6.3697 C   0  0  0  0  0  0  0  0  0  0  0  0
   32.6005    8.3422    6.7339 O   0  0  0  0  0  0  0  0  0  0  0  0
  1  2  1  0
  2  3  1  0
  2  4  1  0
  2  5  1  0
  5  6  1  0
  6  7  2  0
  6  8  1  0
  8  9  1  0
  9 10  2  0
 10 11  1  0
 11 12  1  0
 12 13  2  0
 12  8  1  0
A    1
 C1 
A    2
 C2 
A    3
 C3 
A    4
 C4 
A    5
 O1 
A    6
 C5 
A    7
 O2 
A    8
 N1 
A    9
 C6 
A   10
 C7 
A   11
 O3 
A   12
 C8 
A   13
 O4 
M  END
>  <ref_pdb>  (616) 
Ax0310a

>  <ref_mols>  (616) 
Ax0446a,Ax1080a,Ax0812a,Ax0719a,Ax1140a,Ax0528a,Ax0310a

>  <original SMILES>  (616) 
CC(C)(C)OC(=O)n1ccoc1=O

>  <rationale>  (616) 
info info set:bb_densepocket2;hydroph_interaction:V124+D109; 

>  <experiment>  (616) 
bb_densepocket2

>  <cluster_label>  (616) 
3

>  <cluster_rank>  (616) 
273

>  <N_interactions>  (616) 
2

>  <∆∆G>  (616) 
-2.626792

>  <comRMSD>  (616) 
0.597317

>  <ROCS_TanimotoCombo>  (616) 
0.624

>  <ROCS_ShapeTanimoto>  (616) 
0.205

>  <ROCS_ColorTanimoto>  (616) 
0.419

$$$$
Z228652994
     RDKit          3D

 20 22  0  0  0  0  0  0  0  0999 V2000
   34.7671    8.7369    4.9692 C   0  0  0  0  0  0  0  0  0  0  0  0
   34.1075    9.9063    5.4874 N   0  0  0  0  0  0  0  0  0  0  0  0
   34.6767   11.1054    5.1152 N   0  0  0  0  0  0  0  0  0  0  0  0
   33.8617   11.9376    5.7260 C   0  0  0  0  0  0  0  0  0  0  0  0
   32.7725   11.3019    6.4912 C   0  0  0  0  0  0  0  0  0  0  0  0
   31.7462   11.8044    7.2433 C   0  0  0  0  0  0  0  0  0  0  0  0
   31.5630   12.9819    7.4141 O   0  0  0  0  0  0  0  0  0  0  0  0
   30.3190   13.4620    7.6182 C   0  0  0  0  0  0  0  0  0  0  0  0
   29.2256   13.0467    6.6177 C   0  0  0  0  0  0  0  0  0  0  0  0
   27.8093   13.5756    6.7681 C   0  0  0  0  0  0  0  0  0  0  0  0
   27.6283   14.5170    7.9679 C   0  0  0  0  0  0  0  0  0  0  0  0
   28.7795   14.8350    8.8894 C   0  0  0  0  0  0  0  0  0  0  0  0
   30.0258   14.3060    8.6653 C   0  0  0  0  0  0  0  0  0  0  0  0
   30.9396   14.7033    9.5622 N   0  0  0  0  0  4  0  0  0  0  0  0
   32.1534   14.3641    9.0319 O   0  0  0  0  0  0  0  0  0  0  0  0
   30.6869   15.7800   10.1201 O   0  0  0  0  0  1  0  0  0  0  0  0
   30.9162   10.9082    7.8160 N   0  0  0  0  0  0  0  0  0  0  0  0
   31.1836    9.5915    7.6008 C   0  0  0  0  0  0  0  0  0  0  0  0
   32.1901    9.0401    6.8666 N   0  0  0  0  0  0  0  0  0  0  0  0
   32.9706    9.9824    6.3167 C   0  0  0  0  0  0  0  0  0  0  0  0
  1  2  1  0
  2  3  1  0
  3  4  2  0
  4  5  1  0
  5  6  2  0
  6  7  1  0
  7  8  1  0
  8  9  2  0
  9 10  1  0
 10 11  2  0
 11 12  1  0
 12 13  2  0
 13 14  1  0
 14 15  2  0
 14 16  1  0
  6 17  1  0
 17 18  2  0
 18 19  1  0
 19 20  2  0
 20  2  1  0
 20  5  1  0
 13  8  1  0
M  CHG  2  14   1  16  -1
A    1
 C1 
A    2
 N1 
A    3
 N2 
A    4
 C2 
A    5
 C3 
A    6
 C4 
A    7
 O1 
A    8
 C5 
A    9
 C6 
A   10
 C7 
A   11
 C8 
A   12
 C9 
A   13
 C10
A   14
 N3 
A   15
 O2 
A   16
 O3 
A   17
 N4 
A   18
 C11
A   19
 N5 
A   20
 C12
M  END
>  <ref_pdb>  (617) 
Ax0310a

>  <ref_mols>  (617) 
Ax0446a,Ax1080a,Ax0812a,Ax0719a,Ax1140a,Ax0528a,Ax0310a

>  <original SMILES>  (617) 
Cn1ncc2c(Oc3ccccc3[N+](=O)[O-])ncnc21

>  <rationale>  (617) 
info info set:screening_whole;hydroph_interaction:P107+Y89+Y90; 

>  <experiment>  (617) 
screening_whole

>  <cluster_label>  (617) 
3

>  <cluster_rank>  (617) 
274

>  <N_interactions>  (617) 
3

>  <∆∆G>  (617) 
-5.345922

>  <comRMSD>  (617) 
0.564238

>  <ROCS_TanimotoCombo>  (617) 
0.467

>  <ROCS_ShapeTanimoto>  (617) 
0.246

>  <ROCS_ColorTanimoto>  (617) 
0.22

$$$$
Z2852388842
     RDKit          3D

 24 26  0  0  0  0  0  0  0  0999 V2000
   32.8176   12.7707    3.2118 C   0  0  0  0  0  0  0  0  0  0  0  0
   33.6411   12.7120    4.5005 C   0  0  0  0  0  0  0  0  0  0  0  0
   33.1409   13.7513    5.4858 C   0  0  0  0  0  0  0  0  0  0  0  0
   35.0884   13.0593    4.1388 C   0  0  0  0  0  0  0  0  0  0  0  0
   33.5986   11.5081    5.0912 N   0  0  0  0  0  0  0  0  0  0  0  0
   34.5188   10.5633    4.8445 N   0  0  0  0  0  0  0  0  0  0  0  0
   34.1319    9.5057    5.5915 C   0  0  0  0  0  0  0  0  0  0  0  0
   32.9992    9.8007    6.2952 C   0  0  0  0  0  0  0  0  0  0  0  0
   32.1689    8.9768    7.2665 C   0  0  0  0  0  0  0  0  0  0  0  0
   32.2848    7.8458    7.5159 O   0  0  0  0  0  0  0  0  0  0  0  0
   31.2607    9.7215    7.8816 N   0  0  0  0  0  0  0  0  0  0  0  0
   30.9492   10.9371    7.4096 C   0  0  0  0  0  0  0  0  0  0  0  0
   29.8646   11.3625    7.9090 N   0  0  0  0  0  0  0  0  0  0  0  0
   29.1674   12.1761    7.0022 C   0  0  0  0  0  0  0  0  0  0  0  0
   29.0327   13.4003    7.7354 C   0  0  0  0  0  0  0  0  0  0  0  0
   30.0779   13.9331    8.4541 C   0  0  0  0  0  0  0  0  0  0  0  0
   29.8601   15.0977    9.1280 C   0  0  0  0  0  0  0  0  0  0  0  0
   30.9170   15.6198    9.8152 O   0  0  0  0  0  0  0  0  0  0  0  0
   28.5785   15.6585    9.0514 C   0  0  0  0  0  0  0  0  0  0  0  0
   27.5691   15.0636    8.3244 C   0  0  0  0  0  0  0  0  0  0  0  0
   27.8242   13.9319    7.6479 C   0  0  0  0  0  0  0  0  0  0  0  0
   26.6787   13.1272    6.6539 Cl  0  0  0  0  0  0  0  0  0  0  0  0
   31.5880   11.6440    6.5081 N   0  0  0  0  0  0  0  0  0  0  0  0
   32.6574   11.0483    5.9954 C   0  0  0  0  0  0  0  0  0  0  0  0
  1  2  1  0
  2  3  1  0
  2  4  1  0
  2  5  1  0
  5  6  1  0
  6  7  2  0
  7  8  1  0
  8  9  1  0
  9 10  2  0
  9 11  1  0
 11 12  1  0
 12 13  1  0
 13 14  1  0
 14 15  1  0
 15 16  2  0
 16 17  1  0
 17 18  1  0
 17 19  2  0
 19 20  1  0
 20 21  2  0
 21 22  1  0
 12 23  2  0
 23 24  1  0
 24  5  1  0
 24  8  2  0
 21 15  1  0
A    1
 C1 
A    2
 C2 
A    3
 C3 
A    4
 C4 
A    5
 N1 
A    6
 N2 
A    7
 C5 
A    8
 C6 
A    9
 C7 
A   10
 O1 
A   11
 N3 
A   12
 C8 
A   13
 N4 
A   14
 C9 
A   15
 C10
A   16
 C11
A   17
 C12
A   18
 O2 
A   19
 C13
A   20
 C14
A   21
 C15
A   22
CL1 
A   23
 N5 
A   24
 C16
M  END
>  <ref_pdb>  (618) 
Ax0310a

>  <ref_mols>  (618) 
Ax0446a,Ax1080a,Ax0812a,Ax0719a,Ax1140a,Ax0528a,Ax0310a

>  <original SMILES>  (618) 
CC(C)(C)n1ncc2c(=O)[nH]c(NCc3cc(O)ccc3Cl)nc21

>  <rationale>  (618) 
info info set:screening_whole;hbond:S87+S125; hydroph_interaction:P107+Y89+Y90; 

>  <experiment>  (618) 
screening_whole

>  <cluster_label>  (618) 
3

>  <cluster_rank>  (618) 
275

>  <N_interactions>  (618) 
5

>  <∆∆G>  (618) 
-3.06683

>  <comRMSD>  (618) 
0.769065

>  <ROCS_TanimotoCombo>  (618) 
0.461

>  <ROCS_ShapeTanimoto>  (618) 
0.25

>  <ROCS_ColorTanimoto>  (618) 
0.212

$$$$
Z5698489978
     RDKit          3D

 20 21  0  0  0  0  0  0  0  0999 V2000
   29.6869    8.1298    8.5713 C   0  0  0  0  0  0  0  0  0  0  0  0
   30.5276    9.3296    8.5636 C   0  0  0  0  0  0  0  0  0  0  0  0
   31.5546    9.6920    7.5324 C   0  0  0  0  0  0  0  0  0  0  0  0
   32.2331    8.6846    6.9649 N   0  0  0  0  0  0  0  0  0  0  0  0
   33.1616    9.1000    6.0501 C   0  0  0  0  0  0  0  0  0  0  0  0
   33.4147   10.4115    5.7134 C   0  0  0  0  0  0  0  0  0  0  0  0
   34.6180   10.7994    4.5550 Cl  0  0  0  0  0  0  0  0  0  0  0  0
   32.6811   11.3928    6.3301 C   0  0  0  0  0  0  0  0  0  0  0  0
   31.7284   11.0318    7.2628 C   0  0  0  0  0  0  0  0  0  0  0  0
   30.9672   11.8605    7.9331 N   0  0  0  0  0  0  0  0  0  0  0  0
   31.0902   13.0855    7.4959 C   0  0  0  0  0  0  0  0  0  0  0  0
   29.8894   13.9115    7.8172 C   0  0  0  0  0  0  0  0  0  0  0  0
   28.9778   14.3441    6.7173 C   0  0  0  0  0  0  0  0  0  0  0  0
   29.3469   13.9192    5.3009 C   0  0  0  0  0  0  0  0  0  0  0  0
   27.9833   15.0429    7.1513 N   0  0  0  0  0  0  0  0  0  0  0  0
   28.2386   15.0720    8.4703 N   0  0  0  0  0  0  0  0  0  0  0  0
   27.3595   15.7495    9.2881 C   0  0  0  0  0  0  0  0  0  0  0  0
   27.3406   15.0271   10.5932 C   0  0  0  0  0  0  0  0  0  0  0  0
   29.3462   14.4290    8.9257 C   0  0  0  0  0  0  0  0  0  0  0  0
   29.7754   14.3786   10.3706 C   0  0  0  0  0  0  0  0  0  0  0  0
  1  2  3  0
  2  3  1  0
  3  4  2  0
  4  5  1  0
  5  6  2  0
  6  7  1  0
  6  8  1  0
  8  9  2  0
  9 10  1  0
 10 11  1  0
 11 12  1  0
 12 13  1  0
 13 14  1  0
 13 15  2  0
 15 16  1  0
 16 17  1  0
 17 18  1  0
 16 19  1  0
 19 20  1  0
  9  3  1  0
 19 12  2  0
A    1
 C1 
A    2
 C2 
A    3
 C3 
A    4
 N1 
A    5
 C4 
A    6
 C5 
A    7
CL1 
A    8
 C6 
A    9
 C7 
A   10
 N2 
A   11
 C8 
A   12
 C9 
A   13
 C10
A   14
 C11
A   15
 N3 
A   16
 N4 
A   17
 C12
A   18
 C13
A   19
 C14
A   20
 C15
M  END
>  <ref_pdb>  (619) 
Ax0310a

>  <ref_mols>  (619) 
Ax0446a,Ax1080a,Ax0812a,Ax0719a,Ax1140a,Ax0528a,Ax0310a

>  <original SMILES>  (619) 
C#Cc1ncc(Cl)cc1NCc1c(C)nn(CC)c1C

>  <rationale>  (619) 
info info set:screening_pocket;hbond:S125+G127; hydroph_interaction:P107+Y90+V124; 

>  <experiment>  (619) 
screening_pocket

>  <cluster_label>  (619) 
3

>  <cluster_rank>  (619) 
276

>  <N_interactions>  (619) 
5

>  <∆∆G>  (619) 
-5.2638

>  <comRMSD>  (619) 
0.742519

>  <ROCS_TanimotoCombo>  (619) 
0.652

>  <ROCS_ShapeTanimoto>  (619) 
0.241

>  <ROCS_ColorTanimoto>  (619) 
0.411

$$$$
EN300_796510
     RDKit          3D

 10 10  0  0  0  0  0  0  0  0999 V2000
   29.4324    8.1330    8.7737 C   0  0  0  0  0  0  0  0  0  0  0  0
   30.2195    9.3262    8.4424 C   0  0  0  0  0  0  0  0  0  0  0  0
   30.9539   10.5792    8.0375 C   0  0  0  0  0  0  0  0  0  0  0  0
   30.7739   11.6709    8.5401 O   0  0  0  0  0  0  0  0  0  0  0  0
   31.9569   10.5208    6.9424 C   0  0  0  0  0  0  0  0  0  0  0  0
   32.2483   11.7516    6.0578 C   0  0  0  0  0  0  0  0  0  0  0  0
   33.4356   11.2803    4.9401 S   0  0  0  0  0  0  0  0  0  0  0  0
   33.4902    9.6934    5.6026 C   0  0  0  0  0  0  0  0  0  0  0  0
   34.4034    8.7300    5.0274 N   0  0  0  0  0  0  0  0  0  0  0  0
   32.6993    9.4121    6.6126 N   0  0  0  0  0  0  0  0  0  0  0  0
  1  2  3  0
  2  3  1  0
  3  4  2  0
  3  5  1  0
  5  6  2  0
  6  7  1  0
  7  8  1  0
  8  9  1  0
  8 10  2  0
 10  5  1  0
A    1
 C1 
A    2
 C2 
A    3
 C3 
A    4
 O1 
A    5
 C4 
A    6
 C5 
A    7
 S1 
A    8
 C6 
A    9
 N1 
A   10
 N2 
M  END
>  <ref_pdb>  (620) 
Ax0310a

>  <ref_mols>  (620) 
Ax0446a,Ax1080a,Ax0812a,Ax0719a,Ax1140a,Ax0528a,Ax0310a

>  <original SMILES>  (620) 
C#CC(=O)c1csc(N)n1

>  <rationale>  (620) 
info info set:bb_densepocket2;hbond:S105+G127; hydroph_interaction:V124; 

>  <experiment>  (620) 
bb_densepocket2

>  <cluster_label>  (620) 
3

>  <cluster_rank>  (620) 
277

>  <N_interactions>  (620) 
3

>  <∆∆G>  (620) 
-1.254137

>  <comRMSD>  (620) 
0.707637

>  <ROCS_TanimotoCombo>  (620) 
0.638

>  <ROCS_ShapeTanimoto>  (620) 
0.184

>  <ROCS_ColorTanimoto>  (620) 
0.453

$$$$
EN300_1801953
     RDKit          3D

 16 17  0  0  0  0  0  0  0  0999 V2000
   30.3077    9.0311    8.5918 C   0  0  0  0  0  0  0  0  0  0  0  0
   31.2103    9.7289    7.7031 N   0  0  0  0  0  0  0  0  0  0  0  0
   32.1367    9.0225    7.1924 N   0  0  0  0  0  0  0  0  0  0  0  0
   32.8565    9.8484    6.4282 C   0  0  0  0  0  0  0  0  0  0  0  0
   34.0743    9.5189    5.6015 C   0  0  0  0  0  0  0  0  0  0  0  0
   34.6947   10.6702    4.8502 C   0  0  0  0  0  0  0  0  0  0  0  0
   34.1838   12.1582    4.8494 C   0  0  0  0  0  0  0  0  0  0  0  0
   32.9197   12.4245    5.7091 C   0  0  0  0  0  0  0  0  0  0  0  0
   32.2584   11.2544    6.5021 C   0  0  0  0  0  0  0  0  0  0  0  0
   31.1966   11.0792    7.3223 C   0  0  0  0  0  0  0  0  0  0  0  0
   30.3251   12.3475    7.5632 C   0  0  2  0  0  0  0  0  0  0  0  0
   30.4053   13.0558    6.3431 O   0  0  0  0  0  0  0  0  0  0  0  0
   30.7460   13.3525    8.6588 C   0  0  0  0  0  0  0  0  0  0  0  0
   32.2224   13.6271    8.8708 C   0  0  0  0  0  0  0  0  0  0  0  0
   33.1907   12.9100    8.6709 O   0  0  0  0  0  0  0  0  0  0  0  0
   32.3783   14.8514    9.3834 O   0  0  0  0  0  0  0  0  0  0  0  0
  1  2  1  0
  2  3  1  0
  3  4  2  0
  4  5  1  0
  5  6  2  0
  6  7  1  0
  7  8  2  0
  8  9  1  0
  9 10  2  0
 10 11  1  0
 11 12  1  6
 11 13  1  0
 13 14  1  0
 14 15  2  0
 14 16  1  0
 10  2  1  0
  9  4  1  0
A    1
 C1 
A    2
 N1 
A    3
 N2 
A    4
 C2 
A    5
 C3 
A    6
 C4 
A    7
 C5 
A    8
 C6 
A    9
 C7 
A   10
 C8 
A   11
 C9 
A   12
 O1 
A   13
 C10
A   14
 C11
A   15
 O2 
A   16
 O3 
M  END
>  <ref_pdb>  (621) 
Ax0310a

>  <ref_mols>  (621) 
Ax0446a,Ax1080a,Ax0812a,Ax0719a,Ax1140a,Ax0528a,Ax0310a

>  <original SMILES>  (621) 
Cn1nc2ccccc2c1[C@H](O)CC(=O)O

>  <rationale>  (621) 
info info set:bb_whole;hbond:S87+G127; hydroph_interaction:P107; 

>  <experiment>  (621) 
bb_whole

>  <cluster_label>  (621) 
3

>  <cluster_rank>  (621) 
278

>  <N_interactions>  (621) 
4

>  <∆∆G>  (621) 
-4.548693

>  <comRMSD>  (621) 
0.519025

>  <ROCS_TanimotoCombo>  (621) 
0.426

>  <ROCS_ShapeTanimoto>  (621) 
0.233

>  <ROCS_ColorTanimoto>  (621) 
0.192

$$$$
Z3207309680
     RDKit          3D

 15 15  0  0  0  0  0  0  0  0999 V2000
   30.4254    8.4493    9.2275 C   0  0  0  0  0  0  0  0  0  0  0  0
   30.3530    9.3154    8.1015 C   0  0  0  0  0  0  0  0  0  0  0  0
   31.3870    9.6672    7.3342 C   0  0  0  0  0  0  0  0  0  0  0  0
   32.3100    8.8576    6.6665 C   0  0  0  0  0  0  0  0  0  0  0  0
   33.3197    9.3126    5.8954 C   0  0  0  0  0  0  0  0  0  0  0  0
   33.6031   10.8072    5.6550 C   0  0  0  0  0  0  0  0  0  0  0  0
   32.7274   11.6230    6.3009 C   0  0  0  0  0  0  0  0  0  0  0  0
   31.6013   11.1082    7.1506 C   0  0  0  0  0  0  0  0  0  0  0  0
   30.6523   11.9763    7.8466 C   0  0  0  0  0  0  0  0  0  0  0  0
   30.0783   11.5127    8.7529 O   0  0  0  0  0  0  0  0  0  0  0  0
   30.4768   13.2136    7.3493 N   0  0  0  0  0  0  0  0  0  0  0  0
   29.6521   13.1391    6.2020 O   0  0  0  0  0  0  0  0  0  0  0  0
   28.3277   13.5110    6.5878 C   0  0  0  0  0  0  0  0  0  0  0  0
   28.4264   14.6606    7.3579 C   0  0  0  0  0  0  0  0  0  0  0  0
   28.5763   15.6148    7.9899 N   0  0  0  0  0  0  0  0  0  0  0  0
  1  2  1  0
  2  3  1  0
  3  4  2  0
  4  5  1  0
  5  6  2  0
  6  7  1  0
  7  8  2  0
  8  9  1  0
  9 10  2  0
  9 11  1  0
 11 12  1  0
 12 13  1  0
 13 14  1  0
 14 15  3  0
  8  3  1  0
A    1
 C1 
A    2
 C2 
A    3
 C3 
A    4
 C4 
A    5
 C5 
A    6
 C6 
A    7
 C7 
A    8
 C8 
A    9
 C9 
A   10
 O1 
A   11
 N1 
A   12
 O2 
A   13
 C10
A   14
 C11
A   15
 N2 
M  END
>  <ref_pdb>  (622) 
Ax0310a

>  <ref_mols>  (622) 
Ax0446a,Ax1080a,Ax0812a,Ax0719a,Ax1140a,Ax0528a,Ax0310a

>  <original SMILES>  (622) 
CCc1ccccc1C(=O)NOCC#N

>  <rationale>  (622) 
info info set:screening_pocket;hbond:S87; hydroph_interaction:V124; 

>  <experiment>  (622) 
screening_pocket

>  <cluster_label>  (622) 
3

>  <cluster_rank>  (622) 
279

>  <N_interactions>  (622) 
3

>  <∆∆G>  (622) 
-4.493217

>  <comRMSD>  (622) 
0.941829

>  <ROCS_TanimotoCombo>  (622) 
0.671

>  <ROCS_ShapeTanimoto>  (622) 
0.212

>  <ROCS_ColorTanimoto>  (622) 
0.459

$$$$
EN300_1600113
     RDKit          3D

 11 11  0  0  0  0  0  0  0  0999 V2000
   29.7701    8.3378   10.0577 C   0  0  0  0  0  0  0  0  0  0  0  0
   30.0828    8.9942    8.7876 C   0  0  0  0  0  0  0  0  0  0  0  0
   29.2235    7.8463    8.5325 C   0  0  0  0  0  0  0  0  0  0  0  0
   31.5940    8.4287    8.0905 S   0  0  0  0  0  0  0  0  0  0  0  0
   32.0596    9.7376    7.0440 C   0  0  0  0  0  0  0  0  0  0  0  0
   33.0032    9.4011    6.1414 N   0  0  0  0  0  0  0  0  0  0  0  0
   33.4354   10.3200    5.2839 C   0  0  0  0  0  0  0  0  0  0  0  0
   32.9010   11.7133    5.2998 C   0  0  0  0  0  0  0  0  0  0  0  0
   31.8445   12.0062    6.3541 C   0  0  0  0  0  0  0  0  0  0  0  0
   31.4601   10.9965    7.1946 C   0  0  0  0  0  0  0  0  0  0  0  0
   30.5107   11.2821    8.1327 O   0  0  0  0  0  0  0  0  0  0  0  0
  1  2  1  0
  2  3  1  0
  2  4  1  0
  4  5  1  0
  5  6  2  0
  6  7  1  0
  7  8  2  0
  8  9  1  0
  9 10  2  0
 10 11  1  0
 10  5  1  0
A    1
 C1 
A    2
 C2 
A    3
 C3 
A    4
 S1 
A    5
 C4 
A    6
 N1 
A    7
 C5 
A    8
 C6 
A    9
 C7 
A   10
 C8 
A   11
 O1 
M  END
>  <ref_pdb>  (623) 
Ax0310a

>  <ref_mols>  (623) 
Ax0446a,Ax1080a,Ax0812a,Ax0719a,Ax1140a,Ax0528a,Ax0310a

>  <original SMILES>  (623) 
CC(C)Sc1ncccc1O

>  <rationale>  (623) 
info info set:bb_densepocket2;hbond:S125; hydroph_interaction:P107+V124+D109; 

>  <experiment>  (623) 
bb_densepocket2

>  <cluster_label>  (623) 
3

>  <cluster_rank>  (623) 
280

>  <N_interactions>  (623) 
4

>  <∆∆G>  (623) 
-3.580782

>  <comRMSD>  (623) 
0.904276

>  <ROCS_TanimotoCombo>  (623) 
0.638

>  <ROCS_ShapeTanimoto>  (623) 
0.187

>  <ROCS_ColorTanimoto>  (623) 
0.45

$$$$
EN300_1165738
     RDKit          3D

 12 12  0  0  0  0  0  0  0  0999 V2000
   29.0617    8.4573    9.7207 C   0  0  0  0  0  0  0  0  0  0  0  0
   29.3311    9.1083    8.4509 C   0  0  0  0  0  0  0  0  0  0  0  0
   28.7155   10.4900    8.3828 C   0  0  0  0  0  0  0  0  0  0  0  0
   30.8114    9.2090    8.5625 C   0  0  0  0  0  0  0  0  0  0  0  0
   31.6080    9.8623    7.4130 C   0  0  0  0  0  0  0  0  0  0  0  0
   32.3908    9.0196    6.7219 N   0  0  0  0  0  0  0  0  0  0  0  0
   33.0963    9.5453    5.7203 C   0  0  0  0  0  0  0  0  0  0  0  0
   33.0398   11.0395    5.3481 C   0  0  0  0  0  0  0  0  0  0  0  0
   33.7373   11.5641    4.3396 F   0  0  0  0  0  0  0  0  0  0  0  0
   32.2017   11.7985    6.1476 C   0  0  0  0  0  0  0  0  0  0  0  0
   31.4805   11.2284    7.1846 C   0  0  0  0  0  0  0  0  0  0  0  0
   30.6557   12.0500    7.9626 N   0  0  0  0  0  0  0  0  0  0  0  0
  1  2  1  0
  2  3  1  0
  2  4  1  0
  4  5  1  0
  5  6  2  0
  6  7  1  0
  7  8  2  0
  8  9  1  0
  8 10  1  0
 10 11  2  0
 11 12  1  0
 11  5  1  0
A    1
 C1 
A    2
 C2 
A    3
 C3 
A    4
 C4 
A    5
 C5 
A    6
 N1 
A    7
 C6 
A    8
 C7 
A    9
 F1 
A   10
 C8 
A   11
 C9 
A   12
 N2 
M  END
>  <ref_pdb>  (624) 
Ax0310a

>  <ref_mols>  (624) 
Ax0446a,Ax1080a,Ax0812a,Ax0719a,Ax1140a,Ax0528a,Ax0310a

>  <original SMILES>  (624) 
CC(C)Cc1ncc(F)cc1N

>  <rationale>  (624) 
info info set:bb_densepocket2;hbond:S125; hydroph_interaction:P107+V124; 

>  <experiment>  (624) 
bb_densepocket2

>  <cluster_label>  (624) 
3

>  <cluster_rank>  (624) 
281

>  <N_interactions>  (624) 
3

>  <∆∆G>  (624) 
-3.381337

>  <comRMSD>  (624) 
0.804721

>  <ROCS_TanimotoCombo>  (624) 
0.657

>  <ROCS_ShapeTanimoto>  (624) 
0.208

>  <ROCS_ColorTanimoto>  (624) 
0.449

$$$$
EN300_127825
     RDKit          3D

 17 18  0  0  0  0  0  0  0  0999 V2000
   28.6282   11.0956    8.3711 C   0  0  0  0  0  0  0  0  0  0  0  0
   29.9512   10.9834    7.8385 N   0  0  0  0  0  0  0  0  0  0  0  0
   30.8965   10.1791    8.4966 C   0  0  0  0  0  0  0  0  0  0  0  0
   31.1233    8.9521    7.7401 C   0  0  0  0  0  0  0  0  0  0  0  0
   31.7884    9.2024    6.5187 O   0  0  0  0  0  0  0  0  0  0  0  0
   32.4059   10.3940    6.3811 C   0  0  0  0  0  0  0  0  0  0  0  0
   33.7784   10.2116    5.8743 C   0  0  0  0  0  0  0  0  0  0  0  0
   34.6036   11.3037    5.6789 C   0  0  0  0  0  0  0  0  0  0  0  0
   34.1356   12.5562    5.9760 C   0  0  0  0  0  0  0  0  0  0  0  0
   35.0578   13.9843    5.8271 S   0  0  0  0  0  6  0  0  0  0  0  0
   35.2262   14.4815    7.4407 N   0  0  0  0  0  0  0  0  0  0  0  0
   36.3303   13.5537    5.2942 O   0  0  0  0  0  0  0  0  0  0  0  0
   34.2274   14.9488    5.1746 O   0  0  0  0  0  0  0  0  0  0  0  0
   32.8242   12.7375    6.4369 C   0  0  0  0  0  0  0  0  0  0  0  0
   31.9323   11.6838    6.6393 C   0  0  0  0  0  0  0  0  0  0  0  0
   30.5577   11.9708    7.0970 C   0  0  0  0  0  0  0  0  0  0  0  0
   30.0321   13.0273    6.7766 O   0  0  0  0  0  0  0  0  0  0  0  0
  1  2  1  0
  2  3  1  0
  3  4  1  0
  4  5  1  0
  5  6  1  0
  6  7  2  0
  7  8  1  0
  8  9  2  0
  9 10  1  0
 10 11  1  0
 10 12  2  0
 10 13  2  0
  9 14  1  0
 14 15  2  0
 15 16  1  0
 16 17  2  0
 16  2  1  0
 15  6  1  0
A    1
 C1 
A    2
 N1 
A    3
 C2 
A    4
 C3 
A    5
 O1 
A    6
 C4 
A    7
 C5 
A    8
 C6 
A    9
 C7 
A   10
 S1 
A   11
 N2 
A   12
 O2 
A   13
 O3 
A   14
 C8 
A   15
 C9 
A   16
 C10
A   17
 O4 
M  END
>  <ref_pdb>  (625) 
Ax0310a

>  <ref_mols>  (625) 
Ax0446a,Ax1080a,Ax0812a,Ax0719a,Ax1140a,Ax0528a,Ax0310a

>  <original SMILES>  (625) 
CN1CCOc2ccc(S(N)(=O)=O)cc2C1=O

>  <rationale>  (625) 
info info set:sulfonimide_whole;hbond:E85; hydroph_interaction:P107; 

>  <experiment>  (625) 
sulfonimide_whole

>  <cluster_label>  (625) 
3

>  <cluster_rank>  (625) 
282

>  <N_interactions>  (625) 
2

>  <∆∆G>  (625) 
-5.164535

>  <comRMSD>  (625) 
0.576519

>  <ROCS_TanimotoCombo>  (625) 
0.355

>  <ROCS_ShapeTanimoto>  (625) 
0.212

>  <ROCS_ColorTanimoto>  (625) 
0.142

$$$$
EN300_27748696
     RDKit          3D

 18 18  0  0  0  0  0  0  0  0999 V2000
   33.1787   12.4163    3.3848 C   0  0  0  0  0  0  0  0  0  0  0  0
   34.1088   13.0744    4.3556 C   0  0  0  0  0  0  0  0  0  0  0  0
   35.5944   13.0458    4.0707 C   0  0  0  0  0  0  0  0  0  0  0  0
   33.6333   14.4994    4.5025 C   0  0  0  0  0  0  0  0  0  0  0  0
   33.8643   12.3911    5.5899 O   0  0  0  0  0  0  0  0  0  0  0  0
   34.0081   11.0518    5.6824 C   0  0  0  0  0  0  0  0  0  0  0  0
   34.8469   10.3829    5.0975 O   0  0  0  0  0  0  0  0  0  0  0  0
   32.9842   10.5428    6.5804 N   0  0  0  0  0  0  0  0  0  0  0  0
   32.6681    9.2394    6.5948 C   0  0  0  0  0  0  0  0  0  0  0  0
   31.6763    8.9081    7.6085 C   0  0  0  0  0  0  0  0  0  0  0  0
   30.7012    9.7345    8.1498 C   0  0  0  0  0  0  0  0  0  0  0  0
   30.7874   11.1128    7.4125 C   0  0  1  0  0  0  0  0  0  0  0  0
   31.0063   12.1927    8.3272 C   0  0  0  0  0  0  0  0  0  0  0  0
   30.1436   13.7394    8.1505 S   0  0  0  0  0  6  0  0  0  0  0  0
   28.7667   13.4868    9.0578 N   0  0  0  0  0  0  0  0  0  0  0  0
   30.8892   14.7345    8.8877 O   0  0  0  0  0  0  0  0  0  0  0  0
   29.7000   13.8671    6.7852 O   0  0  0  0  0  0  0  0  0  0  0  0
   31.7659   11.1526    6.3033 C   0  0  0  0  0  0  0  0  0  0  0  0
  1  2  1  0
  2  3  1  0
  2  4  1  0
  2  5  1  0
  5  6  1  0
  6  7  2  0
  6  8  1  0
  8  9  1  0
  9 10  1  0
 10 11  1  0
 11 12  1  0
 12 13  1  1
 13 14  1  0
 14 15  1  0
 14 16  2  0
 14 17  2  0
 12 18  1  0
 18  8  1  0
A    1
 C1 
A    2
 C2 
A    3
 C3 
A    4
 C4 
A    5
 O1 
A    6
 C5 
A    7
 O2 
A    8
 N1 
A    9
 C6 
A   10
 C7 
A   11
 C8 
A   12
 C9 
A   13
 C10
A   14
 S1 
A   15
 N2 
A   16
 O3 
A   17
 O4 
A   18
 C11
M  END
>  <ref_pdb>  (626) 
Ax0310a

>  <ref_mols>  (626) 
Ax0446a,Ax1080a,Ax0812a,Ax0719a,Ax1140a,Ax0528a,Ax0310a

>  <original SMILES>  (626) 
CC(C)(C)OC(=O)N1CCC[C@@H](CS(N)(=O)=O)C1

>  <rationale>  (626) 
info info set:sulfonimide_whole;hbond:S87+S125; hydroph_interaction:P107; 

>  <experiment>  (626) 
sulfonimide_whole

>  <cluster_label>  (626) 
3

>  <cluster_rank>  (626) 
283

>  <N_interactions>  (626) 
3

>  <∆∆G>  (626) 
-1.317658

>  <comRMSD>  (626) 
0.791582

>  <ROCS_TanimotoCombo>  (626) 
0.366

>  <ROCS_ShapeTanimoto>  (626) 
0.201

>  <ROCS_ColorTanimoto>  (626) 
0.165

$$$$
EN300_801698
     RDKit          3D

 17 18  0  0  0  0  0  0  0  0999 V2000
   36.0452   12.0604    3.6294 C   0  0  0  0  0  0  0  0  0  0  0  0
   34.9968   11.3678    4.4658 C   0  0  0  0  0  0  0  0  0  0  0  0
   35.1049    9.8900    4.4391 C   0  0  0  0  0  0  0  0  0  0  0  0
   34.1413    9.1050    5.2209 C   0  0  0  0  0  0  0  0  0  0  0  0
   33.0572    9.8130    6.0367 C   0  0  0  0  0  0  0  0  0  0  0  0
   32.1599    9.1143    6.7666 N   0  0  0  0  0  0  0  0  0  0  0  0
   31.1859    9.7879    7.4643 C   0  0  0  0  0  0  0  0  0  0  0  0
   30.2365    8.9200    8.2216 C   0  0  0  0  0  0  0  0  0  0  0  0
   28.7732    9.0266    8.2801 C   0  0  0  0  0  0  0  0  0  0  0  0
   30.2392    9.2749    9.5633 C   0  0  0  0  0  0  0  0  0  0  0  0
   30.6833    7.6119    8.4146 C   0  0  0  0  0  0  0  0  0  0  0  0
   31.1058   11.1774    7.4625 C   0  0  0  0  0  0  0  0  0  0  0  0
   30.0959   11.8832    8.1877 N   0  0  0  0  0  0  0  0  0  0  0  0
   30.0163   13.2774    7.9974 N   0  0  0  0  0  0  0  0  0  0  0  0
   32.0571   11.8728    6.7106 C   0  0  0  0  0  0  0  0  0  0  0  0
   33.0468   11.2188    5.9804 C   0  0  0  0  0  0  0  0  0  0  0  0
   33.9830   11.9674    5.2262 C   0  0  0  0  0  0  0  0  0  0  0  0
  1  2  1  0
  2  3  2  0
  3  4  1  0
  4  5  2  0
  5  6  1  0
  6  7  2  0
  7  8  1  0
  8  9  1  0
  8 10  1  0
  8 11  1  0
  7 12  1  0
 12 13  1  0
 13 14  1  0
 12 15  2  0
 15 16  1  0
 16 17  2  0
 17  2  1  0
 16  5  1  0
A    1
 C1 
A    2
 C2 
A    3
 C3 
A    4
 C4 
A    5
 C5 
A    6
 N1 
A    7
 C6 
A    8
 C7 
A    9
 C8 
A   10
 C9 
A   11
 C10
A   12
 C11
A   13
 N2 
A   14
 N3 
A   15
 C12
A   16
 C13
A   17
 C14
M  END
>  <ref_pdb>  (627) 
Ax0310a

>  <ref_mols>  (627) 
Ax0446a,Ax1080a,Ax0812a,Ax0719a,Ax1140a,Ax0528a,Ax0310a

>  <original SMILES>  (627) 
Cc1ccc2nc(C(C)(C)C)c(NN)cc2c1

>  <rationale>  (627) 
info info set:bb_densepocket2;hbond:S87+S125; 

>  <experiment>  (627) 
bb_densepocket2

>  <cluster_label>  (627) 
3

>  <cluster_rank>  (627) 
284

>  <N_interactions>  (627) 
3

>  <∆∆G>  (627) 
-5.654929

>  <comRMSD>  (627) 
0.597249

>  <ROCS_TanimotoCombo>  (627) 
0.622

>  <ROCS_ShapeTanimoto>  (627) 
0.286

>  <ROCS_ColorTanimoto>  (627) 
0.336

$$$$
Z45462925
     RDKit          3D

 17 18  0  0  0  0  0  0  0  0999 V2000
   27.7334   14.6661   10.3606 C   0  0  0  0  0  0  0  0  0  0  0  0
   28.3956   14.3270    9.0768 C   0  0  0  0  0  0  0  0  0  0  0  0
   27.6847   14.7406    7.8604 C   0  0  0  0  0  0  0  0  0  0  0  0
   28.4429   14.3226    6.6283 C   0  0  0  0  0  0  0  0  0  0  0  0
   29.8146   13.5302    6.5146 C   0  0  0  0  0  0  0  0  0  0  0  0
   30.1886   13.3013    7.8349 C   0  0  0  0  0  0  0  0  0  0  0  0
   31.6475   12.3650    8.0518 S   0  0  0  0  0  6  0  0  0  0  0  0
   31.0600   11.1733    8.6141 O   0  0  0  0  0  0  0  0  0  0  0  0
   32.8347   12.9955    8.5834 O   0  0  0  0  0  0  0  0  0  0  0  0
   31.9549   11.7524    6.5931 N   0  0  0  0  0  0  0  0  0  0  0  0
   31.3503   10.6064    6.6176 C   0  0  0  0  0  0  0  0  0  0  0  0
   31.9888    9.3559    7.0919 C   0  0  0  0  0  0  0  0  0  0  0  0
   33.1508    9.2077    6.3673 N   0  0  0  0  0  0  0  0  0  0  0  0
   33.8090   10.3119    5.8605 C   0  0  0  0  0  0  0  0  0  0  0  0
   34.9799   10.0977    5.0358 O   0  0  0  0  0  0  0  0  0  0  0  0
   33.3711   11.6214    6.1686 C   0  0  0  0  0  0  0  0  0  0  0  0
   29.5718   13.6672    9.0093 C   0  0  0  0  0  0  0  0  0  0  0  0
  1  2  1  0
  2  3  2  0
  3  4  1  0
  4  5  2  0
  5  6  1  0
  6  7  1  0
  7  8  2  0
  7  9  2  0
  7 10  1  0
 10 11  1  0
 11 12  1  0
 12 13  1  0
 13 14  1  0
 14 15  2  0
 14 16  1  0
  6 17  2  0
 17  2  1  0
 16 10  1  0
A    1
 C1 
A    2
 C2 
A    3
 C3 
A    4
 C4 
A    5
 C5 
A    6
 C6 
A    7
 S1 
A    8
 O1 
A    9
 O2 
A   10
 N1 
A   11
 C7 
A   12
 C8 
A   13
 N2 
A   14
 C9 
A   15
 O3 
A   16
 C10
A   17
 C11
M  END
>  <ref_pdb>  (628) 
Ax0310a

>  <ref_mols>  (628) 
Ax0446a,Ax1080a,Ax0812a,Ax0719a,Ax1140a,Ax0528a,Ax0310a

>  <original SMILES>  (628) 
Cc1cccc(S(=O)(=O)N2CCNC(=O)C2)c1

>  <rationale>  (628) 
info info set:3d;hbond:S105+G127; hydroph_interaction:Y89+Y90; 

>  <experiment>  (628) 
3d

>  <cluster_label>  (628) 
3

>  <cluster_rank>  (628) 
285

>  <N_interactions>  (628) 
4

>  <∆∆G>  (628) 
-2.049006

>  <comRMSD>  (628) 
0.950576

>  <ROCS_TanimotoCombo>  (628) 
0.327

>  <ROCS_ShapeTanimoto>  (628) 
0.208

>  <ROCS_ColorTanimoto>  (628) 
0.119

$$$$
EN300_1295732
     RDKit          3D

 13 13  0  0  0  0  0  0  0  0999 V2000
   34.1896    9.0403    4.9633 C   0  0  0  0  0  0  0  0  0  0  0  0
   33.1276    9.6438    5.8638 C   0  0  0  0  0  0  0  0  0  0  0  0
   32.7383   11.0101    5.4797 C   0  0  0  0  0  0  0  0  0  0  0  0
   31.7101   11.6883    6.3256 C   0  0  0  0  0  0  0  0  0  0  0  0
   31.0301   11.0297    7.6050 C   0  0  0  0  0  0  0  0  0  0  0  0
   30.0976   11.6653    8.3661 N   0  0  0  0  0  0  0  0  0  0  0  0
   31.6354    9.7256    7.7027 C   0  0  0  0  0  0  0  0  0  0  0  0
   31.2234    8.9920    8.8111 O   0  0  0  0  0  0  0  0  0  0  0  0
   29.9022    8.5799    9.0168 C   0  0  0  0  0  0  0  0  0  0  0  0
   29.1542    8.8664    8.0702 C   0  0  0  0  0  0  0  0  0  0  0  0
   29.9139    7.1543    9.0872 C   0  0  0  0  0  0  0  0  0  0  0  0
   29.1986    8.6465   10.1832 C   0  0  0  0  0  0  0  0  0  0  0  0
   32.5696    9.0785    6.9194 N   0  0  0  0  0  0  0  0  0  0  0  0
  1  2  1  0
  2  3  2  0
  3  4  1  0
  4  5  2  0
  5  6  1  0
  5  7  1  0
  7  8  1  0
  8  9  1  0
  9 10  1  0
  9 11  1  0
  9 12  1  0
  7 13  2  0
 13  2  1  0
A    1
 C1 
A    2
 C2 
A    3
 C3 
A    4
 C4 
A    5
 C5 
A    6
 N1 
A    7
 C6 
A    8
 O1 
A    9
 C7 
A   10
 C8 
A   11
 C9 
A   12
 C10
A   13
 N2 
M  END
>  <ref_pdb>  (629) 
Ax0310a

>  <ref_mols>  (629) 
Ax0446a,Ax1080a,Ax0812a,Ax0719a,Ax1140a,Ax0528a,Ax0310a

>  <original SMILES>  (629) 
Cc1ccc(N)c(OC(C)(C)C)n1

>  <rationale>  (629) 
info info set:bb_densepocket2;hbond:S105+S125; hydroph_interaction:P107+V124+D109; 

>  <experiment>  (629) 
bb_densepocket2

>  <cluster_label>  (629) 
3

>  <cluster_rank>  (629) 
286

>  <N_interactions>  (629) 
6

>  <∆∆G>  (629) 
-3.486214

>  <comRMSD>  (629) 
0.45422

>  <ROCS_TanimotoCombo>  (629) 
0.614

>  <ROCS_ShapeTanimoto>  (629) 
0.215

>  <ROCS_ColorTanimoto>  (629) 
0.399

$$$$
EN300_302619
     RDKit          3D

 18 19  0  0  0  0  0  0  0  0999 V2000
   29.5391    8.1372    8.5716 C   0  0  0  0  0  0  0  0  0  0  0  0
   30.8677    8.3069    8.2800 O   0  0  0  0  0  0  0  0  0  0  0  0
   31.0059    9.6128    8.2049 C   0  0  0  0  0  0  0  0  0  0  0  0
   30.4567   10.3870    8.9430 O   0  0  0  0  0  0  0  0  0  0  0  0
   31.8867   10.0246    7.1178 C   0  0  0  0  0  0  0  0  0  0  0  0
   32.7480    9.1200    6.5415 N   0  0  0  0  0  0  0  0  0  0  0  0
   33.4289    9.6871    5.6112 C   0  0  0  0  0  0  0  0  0  0  0  0
   34.3383    8.9986    4.9035 N   0  0  0  0  0  0  0  0  0  0  0  0
   33.0840   11.3511    5.3641 S   0  0  0  0  0  0  0  0  0  0  0  0
   31.9164   11.2669    6.6215 C   0  0  0  0  0  0  0  0  0  0  0  0
   31.0813   12.3944    7.0713 C   0  0  0  0  0  0  0  0  0  0  0  0
   29.8049   12.6683    6.3825 C   0  0  0  0  0  0  0  0  0  0  0  0
   28.9085   13.7851    6.7868 C   0  0  0  0  0  0  0  0  0  0  0  0
   29.4007   14.5763    7.9232 C   0  0  0  0  0  0  0  0  0  0  0  0
   28.5846   15.5829    8.2387 O   0  0  0  0  0  0  0  0  0  0  0  0
   27.3224   15.0926    8.6022 C   0  0  0  0  0  0  0  0  0  0  0  0
   30.6168   14.2626    8.5538 C   0  0  0  0  0  0  0  0  0  0  0  0
   31.4393   13.2037    8.1344 C   0  0  0  0  0  0  0  0  0  0  0  0
  1  2  1  0
  2  3  1  0
  3  4  2  0
  3  5  1  0
  5  6  1  0
  6  7  2  0
  7  8  1  0
  7  9  1  0
  9 10  1  0
 10 11  1  0
 11 12  2  0
 12 13  1  0
 13 14  2  0
 14 15  1  0
 15 16  1  0
 14 17  1  0
 17 18  2  0
 10  5  2  0
 18 11  1  0
A    1
 C1 
A    2
 O1 
A    3
 C2 
A    4
 O2 
A    5
 C3 
A    6
 N1 
A    7
 C4 
A    8
 N2 
A    9
 S1 
A   10
 C5 
A   11
 C6 
A   12
 C7 
A   13
 C8 
A   14
 C9 
A   15
 O3 
A   16
 C10
A   17
 C11
A   18
 C12
M  END
>  <ref_pdb>  (630) 
Ax0310a

>  <ref_mols>  (630) 
Ax0446a,Ax1080a,Ax0812a,Ax0719a,Ax1140a,Ax0528a,Ax0310a

>  <original SMILES>  (630) 
COC(=O)c1nc(N)sc1-c1ccc(OC)cc1

>  <rationale>  (630) 
info info set:bb_densepocket2;hbond:S87+S105; hydroph_interaction:P107; 

>  <experiment>  (630) 
bb_densepocket2

>  <cluster_label>  (630) 
3

>  <cluster_rank>  (630) 
287

>  <N_interactions>  (630) 
3

>  <∆∆G>  (630) 
-6.206245

>  <comRMSD>  (630) 
0.889679

>  <ROCS_TanimotoCombo>  (630) 
0.645

>  <ROCS_ShapeTanimoto>  (630) 
0.235

>  <ROCS_ColorTanimoto>  (630) 
0.409

$$$$
EN300_716159
     RDKit          3D

 13 13  0  0  0  0  0  0  0  0999 V2000
   30.9049   12.9866    6.4257 C   0  0  0  0  0  0  0  0  0  0  0  0
   31.7198   11.7347    6.3042 C   0  0  0  0  0  0  0  0  0  0  0  0
   32.7420   11.6828    5.1985 C   0  0  0  0  0  0  0  0  0  0  0  0
   33.5881   10.4850    4.9796 C   0  0  0  0  0  0  0  0  0  0  0  0
   33.2937    9.3460    5.9980 C   0  0  0  0  0  0  0  0  0  0  0  0
   32.3544    9.4722    6.9785 N   0  0  0  0  0  0  0  0  0  0  0  0
   31.6114   10.6356    7.1090 C   0  0  0  0  0  0  0  0  0  0  0  0
   30.6029   10.7347    8.1981 C   0  0  0  0  0  0  0  0  0  0  0  0
   30.2147   11.7940    8.6531 O   0  0  0  0  0  0  0  0  0  0  0  0
   30.2038    9.3695    8.5869 C   0  0  0  0  0  0  0  0  0  0  0  0
   31.0463    8.3629    8.0694 C   0  0  0  0  0  0  0  0  0  0  0  0
   29.3985    8.9741    9.7397 C   0  0  0  0  0  0  0  0  0  0  0  0
   28.7823    9.0595    8.3245 C   0  0  0  0  0  0  0  0  0  0  0  0
  1  2  1  0
  2  3  2  0
  3  4  1  0
  4  5  2  0
  5  6  1  0
  6  7  2  0
  7  8  1  0
  8  9  2  0
  8 10  1  0
 10 11  1  0
 10 12  1  0
 10 13  1  0
  7  2  1  0
A    1
 C1 
A    2
 C2 
A    3
 C3 
A    4
 C4 
A    5
 C5 
A    6
 N1 
A    7
 C6 
A    8
 C7 
A    9
 O1 
A   10
 C8 
A   11
 C9 
A   12
 C10
A   13
 C11
M  END
>  <ref_pdb>  (631) 
Ax0310a

>  <ref_mols>  (631) 
Ax0446a,Ax1080a,Ax0812a,Ax0719a,Ax1140a,Ax0528a,Ax0310a

>  <original SMILES>  (631) 
Cc1cccnc1C(=O)C(C)(C)C

>  <rationale>  (631) 
info info set:bb_densepocket2;hydroph_interaction:P107+V124; 

>  <experiment>  (631) 
bb_densepocket2

>  <cluster_label>  (631) 
3

>  <cluster_rank>  (631) 
288

>  <N_interactions>  (631) 
2

>  <∆∆G>  (631) 
-3.754424

>  <comRMSD>  (631) 
0.901346

>  <ROCS_TanimotoCombo>  (631) 
0.632

>  <ROCS_ShapeTanimoto>  (631) 
0.204

>  <ROCS_ColorTanimoto>  (631) 
0.428

$$$$
Z283671196
     RDKit          3D

 18 19  0  0  0  0  0  0  0  0999 V2000
   33.5688   12.8336    6.6070 C   0  0  0  0  0  0  0  0  0  0  0  0
   33.8025   11.4245    6.0769 C   0  0  0  0  0  0  0  0  0  0  0  0
   34.7565   10.9402    5.2849 N   0  0  0  0  0  0  0  0  0  0  0  0
   34.4436    9.6045    5.1721 C   0  0  0  0  0  0  0  0  0  0  0  0
   33.2978    9.2578    5.8930 C   0  0  0  0  0  0  0  0  0  0  0  0
   32.8667   10.3858    6.4661 N   0  0  0  0  0  0  0  0  0  0  0  0
   31.7449   10.3461    7.2173 C   0  0  0  0  0  0  0  0  0  0  0  0
   31.0570   11.5277    7.1502 C   0  0  0  0  0  0  0  0  0  0  0  0
   30.6459   11.8827    6.0958 O   0  0  0  0  0  0  0  0  0  0  0  0
   30.8412   12.2744    8.2559 N   0  0  0  0  0  0  0  0  0  0  0  0
   29.7782   13.0672    8.1703 C   0  0  0  0  0  0  0  0  0  0  0  0
   28.6047   12.6421    7.4779 C   0  0  0  0  0  0  0  0  0  0  0  0
   27.4817   13.3770    7.3306 C   0  0  0  0  0  0  0  0  0  0  0  0
   27.4655   14.6314    7.8870 C   0  0  0  0  0  0  0  0  0  0  0  0
   28.5803   15.1199    8.5693 C   0  0  0  0  0  0  0  0  0  0  0  0
   29.7389   14.3474    8.7238 C   0  0  0  0  0  0  0  0  0  0  0  0
   30.9023   14.9110    9.4705 C   0  0  0  0  0  0  0  0  0  0  0  0
   31.8147   15.4102    9.9733 N   0  0  0  0  0  0  0  0  0  0  0  0
  1  2  1  0
  2  3  2  0
  3  4  1  0
  4  5  2  0
  5  6  1  0
  6  7  1  0
  7  8  1  0
  8  9  2  0
  8 10  1  0
 10 11  1  0
 11 12  2  0
 12 13  1  0
 13 14  2  0
 14 15  1  0
 15 16  2  0
 16 17  1  0
 17 18  3  0
  6  2  1  0
 16 11  1  0
A    1
 C1 
A    2
 C2 
A    3
 N1 
A    4
 C3 
A    5
 C4 
A    6
 N2 
A    7
 C5 
A    8
 C6 
A    9
 O1 
A   10
 N3 
A   11
 C7 
A   12
 C8 
A   13
 C9 
A   14
 C10
A   15
 C11
A   16
 C12
A   17
 C13
A   18
 N4 
M  END
>  <ref_pdb>  (632) 
Ax0310a

>  <ref_mols>  (632) 
Ax0446a,Ax1080a,Ax0812a,Ax0719a,Ax1140a,Ax0528a,Ax0310a

>  <original SMILES>  (632) 
Cc1nccn1CC(=O)Nc1ccccc1C#N

>  <rationale>  (632) 
info info set:3d;hbond:S87+S125+G127; hydroph_interaction:Y89+Y90; 

>  <experiment>  (632) 
3d

>  <cluster_label>  (632) 
3

>  <cluster_rank>  (632) 
289

>  <N_interactions>  (632) 
5

>  <∆∆G>  (632) 
-4.696027

>  <comRMSD>  (632) 
0.655275

>  <ROCS_TanimotoCombo>  (632) 
0.313

>  <ROCS_ShapeTanimoto>  (632) 
0.209

>  <ROCS_ColorTanimoto>  (632) 
0.104

$$$$
EN300_339503
     RDKit          3D

 14 15  0  0  0  0  0  0  0  0999 V2000
   29.3239   12.2710    8.3730 N   0  0  0  0  0  0  0  0  0  0  0  0
   30.7245   12.8635    7.7095 S   0  0  0  0  0  6  0  0  0  0  0  0
   31.4600   13.5950    8.7218 O   0  0  0  0  0  0  0  0  0  0  0  0
   30.2524   13.4896    6.5032 O   0  0  0  0  0  0  0  0  0  0  0  0
   31.6067   11.4577    7.2072 C   0  0  0  0  0  0  0  0  0  0  0  0
   31.2849   10.0694    7.5348 C   0  0  0  0  0  0  0  0  0  0  0  0
   32.1146    9.1768    7.0083 N   0  0  0  0  0  0  0  0  0  0  0  0
   32.9980   10.0197    6.3245 N   0  0  0  0  0  0  0  0  0  0  0  0
   34.0947    9.6100    5.5651 C   0  0  0  0  0  0  0  0  0  0  0  0
   34.9277   10.5314    4.9395 C   0  0  0  0  0  0  0  0  0  0  0  0
   34.6389   11.8595    5.0843 C   0  0  0  0  0  0  0  0  0  0  0  0
   35.6353   13.0600    4.3520 Cl  0  0  0  0  0  0  0  0  0  0  0  0
   33.4904   12.3336    5.8506 N   0  0  0  0  0  0  0  0  0  0  0  0
   32.7254   11.3530    6.4366 C   0  0  0  0  0  0  0  0  0  0  0  0
  1  2  1  0
  2  3  2  0
  2  4  2  0
  2  5  1  0
  5  6  1  0
  6  7  2  0
  7  8  1  0
  8  9  1  0
  9 10  2  0
 10 11  1  0
 11 12  1  0
 11 13  2  0
 13 14  1  0
 14  5  2  0
 14  8  1  0
A    1
 N1 
A    2
 S1 
A    3
 O1 
A    4
 O2 
A    5
 C1 
A    6
 C2 
A    7
 N2 
A    8
 N3 
A    9
 C3 
A   10
 C4 
A   11
 C5 
A   12
CL1 
A   13
 N4 
A   14
 C6 
M  END
>  <ref_pdb>  (633) 
Ax0310a

>  <ref_mols>  (633) 
Ax0446a,Ax1080a,Ax0812a,Ax0719a,Ax1140a,Ax0528a,Ax0310a

>  <original SMILES>  (633) 
NS(=O)(=O)c1cnn2ccc(Cl)nc12

>  <rationale>  (633) 
info info set:sulfonimide_whole;hbond:S87+S125; 

>  <experiment>  (633) 
sulfonimide_whole

>  <cluster_label>  (633) 
3

>  <cluster_rank>  (633) 
290

>  <N_interactions>  (633) 
2

>  <∆∆G>  (633) 
-4.369856

>  <comRMSD>  (633) 
0.415916

>  <ROCS_TanimotoCombo>  (633) 
0.352

>  <ROCS_ShapeTanimoto>  (633) 
0.195

>  <ROCS_ColorTanimoto>  (633) 
0.157

$$$$
EN300_33039528
     RDKit          3D

 15 16  0  0  0  0  0  0  0  0999 V2000
   31.7601    8.5159    7.6832 C   0  0  0  0  0  0  0  0  0  0  0  0
   31.8288    9.9100    7.4525 N   0  0  0  0  0  0  0  0  0  0  0  0
   30.9564   10.7877    8.0403 C   0  0  0  0  0  0  0  0  0  0  0  0
   31.2662   12.0880    7.6209 C   0  0  0  0  0  0  0  0  0  0  0  0
   30.4297   13.5080    8.0590 S   0  0  0  0  0  6  0  0  0  0  0  0
   29.0668   13.2006    8.9547 N   0  0  0  0  0  0  0  0  0  0  0  0
   31.3634   14.2837    8.8457 O   0  0  0  0  0  0  0  0  0  0  0  0
   29.8895   13.8778    6.7761 O   0  0  0  0  0  0  0  0  0  0  0  0
   32.3548   12.0580    6.7685 C   0  0  0  0  0  0  0  0  0  0  0  0
   33.0829   13.0093    6.0835 C   0  0  0  0  0  0  0  0  0  0  0  0
   34.1416   12.5410    5.2838 C   0  0  0  0  0  0  0  0  0  0  0  0
   34.5005   11.2419    5.1178 N   0  0  0  0  0  0  0  0  0  0  0  0
   33.8200   10.2776    5.7612 C   0  0  0  0  0  0  0  0  0  0  0  0
   34.4389    8.7908    5.3740 Cl  0  0  0  0  0  0  0  0  0  0  0  0
   32.6856   10.7854    6.6442 C   0  0  0  0  0  0  0  0  0  0  0  0
  1  2  1  0
  2  3  1  0
  3  4  2  0
  4  5  1  0
  5  6  1  0
  5  7  2  0
  5  8  2  0
  4  9  1  0
  9 10  2  0
 10 11  1  0
 11 12  2  0
 12 13  1  0
 13 14  1  0
 13 15  2  0
 15  2  1  0
 15  9  1  0
A    1
 C1 
A    2
 N1 
A    3
 C2 
A    4
 C3 
A    5
 S1 
A    6
 N2 
A    7
 O1 
A    8
 O2 
A    9
 C4 
A   10
 C5 
A   11
 C6 
A   12
 N3 
A   13
 C7 
A   14
CL1 
A   15
 C8 
M  END
>  <ref_pdb>  (634) 
Ax0310a

>  <ref_mols>  (634) 
Ax0446a,Ax1080a,Ax0812a,Ax0719a,Ax1140a,Ax0528a,Ax0310a

>  <original SMILES>  (634) 
Cn1cc(S(N)(=O)=O)c2ccnc(Cl)c21

>  <rationale>  (634) 
info info set:sulfonimide_whole;halogenbond:S105; hbond:S87+S125; 

>  <experiment>  (634) 
sulfonimide_whole

>  <cluster_label>  (634) 
3

>  <cluster_rank>  (634) 
291

>  <N_interactions>  (634) 
3

>  <∆∆G>  (634) 
-4.058921

>  <comRMSD>  (634) 
0.957487

>  <ROCS_TanimotoCombo>  (634) 
0.35

>  <ROCS_ShapeTanimoto>  (634) 
0.183

>  <ROCS_ColorTanimoto>  (634) 
0.166

$$$$
EN300_76291
     RDKit          3D

 14 15  0  0  0  0  0  0  0  0999 V2000
   34.9631   12.4104    4.5442 N   0  0  0  0  0  0  0  0  0  0  0  0
   34.1051   11.6105    5.3111 C   0  0  0  0  0  0  0  0  0  0  0  0
   34.2850   10.1014    5.3044 C   0  0  0  0  0  0  0  0  0  0  0  0
   33.3239    9.3349    6.1702 C   0  0  0  0  0  0  0  0  0  0  0  0
   32.3683   10.0211    6.8940 C   0  0  0  0  0  0  0  0  0  0  0  0
   31.4374    9.4799    7.7336 N   0  0  0  0  0  0  0  0  0  0  0  0
   30.6753   10.4692    8.2459 C   0  0  0  0  0  0  0  0  0  0  0  0
   31.1525   11.6565    7.7084 C   0  0  0  0  0  0  0  0  0  0  0  0
   30.5483   13.2393    7.9951 S   0  0  0  0  0  6  0  0  0  0  0  0
   29.1352   13.2337    8.8816 N   0  0  0  0  0  0  0  0  0  0  0  0
   30.1095   13.6451    6.6863 O   0  0  0  0  0  0  0  0  0  0  0  0
   31.5490   13.9564    8.7614 O   0  0  0  0  0  0  0  0  0  0  0  0
   32.2198   11.3994    6.8691 C   0  0  0  0  0  0  0  0  0  0  0  0
   33.0838   12.1994    6.0828 C   0  0  0  0  0  0  0  0  0  0  0  0
  1  2  1  0
  2  3  2  0
  3  4  1  0
  4  5  2  0
  5  6  1  0
  6  7  1  0
  7  8  2  0
  8  9  1  0
  9 10  1  0
  9 11  2  0
  9 12  2  0
  8 13  1  0
 13 14  2  0
 14  2  1  0
 13  5  1  0
A    1
 N1 
A    2
 C1 
A    3
 C2 
A    4
 C3 
A    5
 C4 
A    6
 N2 
A    7
 C5 
A    8
 C6 
A    9
 S1 
A   10
 N3 
A   11
 O1 
A   12
 O2 
A   13
 C7 
A   14
 C8 
M  END
>  <ref_pdb>  (635) 
Ax0310a

>  <ref_mols>  (635) 
Ax0446a,Ax1080a,Ax0812a,Ax0719a,Ax1140a,Ax0528a,Ax0310a

>  <original SMILES>  (635) 
Nc1ccc2[nH]cc(S(N)(=O)=O)c2c1

>  <rationale>  (635) 
info info set:sulfonimide_whole;hbond:S87+S125; 

>  <experiment>  (635) 
sulfonimide_whole

>  <cluster_label>  (635) 
3

>  <cluster_rank>  (635) 
292

>  <N_interactions>  (635) 
2

>  <∆∆G>  (635) 
-6.008291

>  <comRMSD>  (635) 
0.541557

>  <ROCS_TanimotoCombo>  (635) 
0.351

>  <ROCS_ShapeTanimoto>  (635) 
0.193

>  <ROCS_ColorTanimoto>  (635) 
0.158

$$$$
EN300_801067
     RDKit          3D

 16 17  0  0  0  0  0  0  0  0999 V2000
   30.1747    9.4001    9.5451 C   0  0  0  0  0  0  0  0  0  0  0  0
   30.2540    8.8576    8.3377 C   0  0  0  0  0  0  0  0  0  0  0  0
   30.6671    7.6607    8.4214 C   0  0  0  0  0  0  0  0  0  0  0  0
   28.7842    8.8575    8.2572 C   0  0  0  0  0  0  0  0  0  0  0  0
   31.1902    9.7437    7.5260 C   0  0  0  0  0  0  0  0  0  0  0  0
   32.1350    9.0913    6.8212 N   0  0  0  0  0  0  0  0  0  0  0  0
   32.9996    9.8275    6.0739 C   0  0  0  0  0  0  0  0  0  0  0  0
   34.0236    9.1477    5.2813 C   0  0  0  0  0  0  0  0  0  0  0  0
   35.0258    9.8874    4.4267 C   0  0  0  0  0  0  0  0  0  0  0  0
   34.9963   11.4591    4.3704 C   0  0  0  0  0  0  0  0  0  0  0  0
   35.8362   12.2034    3.6543 F   0  0  0  0  0  0  0  0  0  0  0  0
   33.9299   11.9074    5.2067 C   0  0  0  0  0  0  0  0  0  0  0  0
   32.9986   11.1868    5.9950 C   0  0  0  0  0  0  0  0  0  0  0  0
   32.0243   11.8539    6.7379 C   0  0  0  0  0  0  0  0  0  0  0  0
   31.1124   11.1407    7.5053 C   0  0  0  0  0  0  0  0  0  0  0  0
   30.1677   11.8505    8.2111 O   0  0  0  0  0  0  0  0  0  0  0  0
  1  2  1  0
  2  3  1  0
  2  4  1  0
  2  5  1  0
  5  6  2  0
  6  7  1  0
  7  8  2  0
  8  9  1  0
  9 10  2  0
 10 11  1  0
 10 12  1  0
 12 13  2  0
 13 14  1  0
 14 15  2  0
 15 16  1  0
 15  5  1  0
 13  7  1  0
A    1
 C1 
A    2
 C2 
A    3
 C3 
A    4
 C4 
A    5
 C5 
A    6
 N1 
A    7
 C6 
A    8
 C7 
A    9
 C8 
A   10
 C9 
A   11
 F1 
A   12
 C10
A   13
 C11
A   14
 C12
A   15
 C13
A   16
 O1 
M  END
>  <ref_pdb>  (636) 
Ax0310a

>  <ref_mols>  (636) 
Ax0446a,Ax1080a,Ax0812a,Ax0719a,Ax1140a,Ax0528a,Ax0310a

>  <original SMILES>  (636) 
CC(C)(C)c1nc2ccc(F)cc2cc1O

>  <rationale>  (636) 
info info set:bb_densepocket2;hbond:S125; hydroph_interaction:V124; 

>  <experiment>  (636) 
bb_densepocket2

>  <cluster_label>  (636) 
3

>  <cluster_rank>  (636) 
293

>  <N_interactions>  (636) 
2

>  <∆∆G>  (636) 
-5.486374

>  <comRMSD>  (636) 
0.59894

>  <ROCS_TanimotoCombo>  (636) 
0.62

>  <ROCS_ShapeTanimoto>  (636) 
0.272

>  <ROCS_ColorTanimoto>  (636) 
0.348

$$$$
Z1473284016
     RDKit          3D

 16 17  0  0  0  0  0  0  0  0999 V2000
   34.1501   12.9913    7.8104 O   0  0  0  0  0  0  0  0  0  0  0  0
   33.6098   12.5407    6.8051 C   0  0  0  0  0  0  0  0  0  0  0  0
   33.8247   12.9862    5.5698 O   0  0  0  0  0  0  0  0  0  0  0  0
   32.6066   11.4232    7.0043 C   0  0  0  0  0  0  0  0  0  0  0  0
   32.9648   10.1263    6.7613 C   0  0  0  0  0  0  0  0  0  0  0  0
   32.0272    9.1433    7.0550 C   0  0  0  0  0  0  0  0  0  0  0  0
   30.8154    9.4235    7.5500 N   0  0  0  0  0  0  0  0  0  0  0  0
   30.5064   10.7766    7.7348 C   0  0  0  0  0  0  0  0  0  0  0  0
   31.4119   11.7589    7.4475 C   0  0  0  0  0  0  0  0  0  0  0  0
   31.2799   13.0774    7.5516 O   0  0  0  0  0  0  0  0  0  0  0  0
   30.1585   13.6398    7.9580 C   0  0  0  0  0  0  0  0  0  0  0  0
   28.8930   13.7102    7.1339 C   0  0  0  0  0  0  0  0  0  0  0  0
   27.7825   14.4243    7.8050 C   0  0  0  0  0  0  0  0  0  0  0  0
   27.9725   14.9459    9.0804 C   0  0  0  0  0  0  0  0  0  0  0  0
   29.1751   14.8159    9.7667 C   0  0  0  0  0  0  0  0  0  0  0  0
   30.2501   14.1768    9.2105 C   0  0  0  0  0  0  0  0  0  0  0  0
  1  2  2  0
  2  3  1  0
  2  4  1  0
  4  5  2  0
  5  6  1  0
  6  7  2  0
  7  8  1  0
  8  9  2  0
  9 10  1  0
 10 11  1  0
 11 12  2  0
 12 13  1  0
 13 14  2  0
 14 15  1  0
 15 16  2  0
  9  4  1  0
 16 11  1  0
A    1
 O1 
A    2
 C1 
A    3
 O2 
A    4
 C2 
A    5
 C3 
A    6
 C4 
A    7
 N1 
A    8
 C5 
A    9
 C6 
A   10
 O3 
A   11
 C7 
A   12
 C8 
A   13
 C9 
A   14
 C10
A   15
 C11
A   16
 C12
M  END
>  <ref_pdb>  (637) 
Ax0310a

>  <ref_mols>  (637) 
Ax0446a,Ax1080a,Ax0812a,Ax0719a,Ax1140a,Ax0528a,Ax0310a

>  <original SMILES>  (637) 
O=C(O)c1ccncc1Oc1ccccc1

>  <rationale>  (637) 
info info set:3d;hbond:G127; hydroph_interaction:Y90; 

>  <experiment>  (637) 
3d

>  <cluster_label>  (637) 
3

>  <cluster_rank>  (637) 
294

>  <N_interactions>  (637) 
2

>  <∆∆G>  (637) 
-4.067138

>  <comRMSD>  (637) 
0.896327

>  <ROCS_TanimotoCombo>  (637) 
0.34

>  <ROCS_ShapeTanimoto>  (637) 
0.205

>  <ROCS_ColorTanimoto>  (637) 
0.135

$$$$
EN300_1458446
     RDKit          3D

 17 17  0  0  0  0  0  0  0  0999 V2000
   31.4846    8.2751    8.0102 C   0  0  0  0  0  0  0  0  0  0  0  0
   30.1185    8.6557    8.3750 C   0  0  0  0  0  0  0  0  0  0  0  0
   29.0949    7.6887    8.4958 C   0  0  0  0  0  0  0  0  0  0  0  0
   30.2464    8.9831    9.7195 C   0  0  0  0  0  0  0  0  0  0  0  0
   29.7578    9.8946    7.9394 O   0  0  0  0  0  0  0  0  0  0  0  0
   30.6819   10.7998    7.9373 C   0  0  0  0  0  0  0  0  0  0  0  0
   30.6757   11.7575    8.6560 O   0  0  0  0  0  0  0  0  0  0  0  0
   31.7351   10.5823    6.8977 C   0  0  0  0  0  0  0  0  0  0  0  0
   32.5311    9.3863    6.6990 N   0  0  0  0  0  0  0  0  0  0  0  0
   33.3647    9.6038    5.6942 C   0  0  0  0  0  0  0  0  0  0  0  0
   34.2587    8.7245    5.2422 N   0  0  0  0  0  0  0  0  0  0  0  0
   33.2828   11.1212    4.9375 S   0  0  0  0  0  0  0  0  0  0  0  0
   32.0285   11.6182    6.0076 C   0  0  0  0  0  0  0  0  0  0  0  0
   31.3642   12.9333    6.0324 C   0  0  0  0  0  0  0  0  0  0  0  0
   29.8111   12.9350    6.1221 C   0  0  0  0  0  0  0  0  0  0  0  0
   31.7891   13.7635    4.7908 C   0  0  0  0  0  0  0  0  0  0  0  0
   31.9597   13.4095    7.3647 C   0  0  0  0  0  0  0  0  0  0  0  0
  1  2  1  0
  2  3  1  0
  2  4  1  0
  2  5  1  0
  5  6  1  0
  6  7  2  0
  6  8  1  0
  8  9  1  0
  9 10  2  0
 10 11  1  0
 10 12  1  0
 12 13  1  0
 13 14  1  0
 14 15  1  0
 14 16  1  0
 14 17  1  0
 13  8  2  0
A    1
 C1 
A    2
 C2 
A    3
 C3 
A    4
 C4 
A    5
 O1 
A    6
 C5 
A    7
 O2 
A    8
 C6 
A    9
 N1 
A   10
 C7 
A   11
 N2 
A   12
 S1 
A   13
 C8 
A   14
 C9 
A   15
 C10
A   16
 C11
A   17
 C12
M  END
>  <ref_pdb>  (638) 
Ax0310a

>  <ref_mols>  (638) 
Ax0446a,Ax1080a,Ax0812a,Ax0719a,Ax1140a,Ax0528a,Ax0310a

>  <original SMILES>  (638) 
CC(C)(C)OC(=O)c1nc(N)sc1C(C)(C)C

>  <rationale>  (638) 
info info set:bb_densepocket2;hbond:S105+G127; hydroph_interaction:P107+D109; 

>  <experiment>  (638) 
bb_densepocket2

>  <cluster_label>  (638) 
3

>  <cluster_rank>  (638) 
295

>  <N_interactions>  (638) 
5

>  <∆∆G>  (638) 
-0.63242

>  <comRMSD>  (638) 
0.890284

>  <ROCS_TanimotoCombo>  (638) 
0.62

>  <ROCS_ShapeTanimoto>  (638) 
0.219

>  <ROCS_ColorTanimoto>  (638) 
0.401

$$$$
EN300_122380
     RDKit          3D

 21 24  0  0  0  0  0  0  0  0999 V2000
   30.7057   14.3439    9.5168 C   0  0  0  0  0  0  0  0  0  0  0  0
   32.0583   14.5621    9.1086 O   0  0  0  0  0  0  0  0  0  0  0  0
   32.4944   13.5524    8.1891 C   0  0  1  0  0  0  0  0  0  0  0  0
   31.5802   13.4661    7.0588 O   0  0  0  0  0  0  0  0  0  0  0  0
   31.8220   12.3199    6.2497 C   0  0  2  0  0  0  0  0  0  0  0  0
   30.8303   11.3298    6.4503 O   0  0  0  0  0  0  0  0  0  0  0  0
   31.2622   10.5214    7.5214 C   0  0  1  0  0  0  0  0  0  0  0  0
   30.1284   10.1302    8.4121 C   0  0  0  0  0  0  0  0  0  0  0  0
   31.9516    9.2427    7.1418 C   0  0  0  0  0  0  0  0  0  0  0  0
   33.0359    9.3028    6.0159 C   0  0  0  0  0  0  0  0  0  0  0  0
   33.7136   10.6225    5.6389 C   0  0  1  0  0  0  0  0  0  0  0  0
   33.7943   11.0227    4.1696 C   0  0  2  0  0  0  0  0  0  0  0  0
   34.6316    9.9950    3.4036 C   0  0  0  0  0  0  0  0  0  0  0  0
   34.3715   12.4550    3.9778 C   0  0  0  0  0  0  0  0  0  0  0  0
   34.0921   13.4389    5.1472 C   0  0  0  0  0  0  0  0  0  0  0  0
   34.2292   12.8763    6.3916 C   0  0  1  0  0  0  0  0  0  0  0  0
   33.9962   13.6312    7.7118 C   0  0  1  0  0  0  0  0  0  0  0  0
   34.7512   14.9253    7.7318 C   0  0  0  0  0  0  0  0  0  0  0  0
   33.2457   11.7722    6.4810 C   0  0  1  0  0  0  0  0  0  0  0  0
   33.3627   11.3239    7.8049 O   0  0  0  0  0  0  0  0  0  0  0  0
   32.0433   11.3129    8.3394 O   0  0  0  0  0  0  0  0  0  0  0  0
  1  2  1  0
  3  2  1  6
  3  4  1  0
  5  4  1  1
  5  6  1  0
  6  7  1  0
  7  8  1  1
  7  9  1  0
  9 10  1  0
 11 10  1  6
 11 12  1  0
 12 13  1  6
 12 14  1  0
 14 15  1  0
 16 15  1  6
 16 17  1  0
 17 18  1  6
 16 19  1  0
 19 20  1  1
 20 21  1  0
 17  3  1  0
 19  5  1  0
 21  7  1  0
 19 11  1  0
A    1
 C1 
A    2
 O1 
A    3
 C2 
A    4
 O2 
A    5
 C3 
A    6
 O3 
A    7
 C4 
A    8
 C5 
A    9
 C6 
A   10
 C7 
A   11
 C8 
A   12
 C9 
A   13
 C10
A   14
 C11
A   15
 C12
A   16
 C13
A   17
 C14
A   18
 C15
A   19
 C16
A   20
 O4 
A   21
 O5 
M  END
>  <ref_pdb>  (639) 
Ax0310a

>  <ref_mols>  (639) 
Ax0446a,Ax1080a,Ax0812a,Ax0719a,Ax1140a,Ax0528a,Ax0310a

>  <original SMILES>  (639) 
CO[C@H]1O[C@@H]2O[C@@]3(C)CC[C@H]4[C@H](C)CC[C@@H]([C@H]1C)[C@@]24OO3

>  <rationale>  (639) 
info info set:bb_whole;hbond:S87+G127; hydroph_interaction:P107+V84; 

>  <experiment>  (639) 
bb_whole

>  <cluster_label>  (639) 
3

>  <cluster_rank>  (639) 
296

>  <N_interactions>  (639) 
4

>  <∆∆G>  (639) 
-0.759719

>  <comRMSD>  (639) 
0.971275

>  <ROCS_TanimotoCombo>  (639) 
0.49

>  <ROCS_ShapeTanimoto>  (639) 
0.261

>  <ROCS_ColorTanimoto>  (639) 
0.228

$$$$
EN300_207933
     RDKit          3D

 17 17  0  0  0  0  0  0  0  0999 V2000
   35.1527    8.5512    4.0245 C   0  0  0  0  0  0  0  0  0  0  0  0
   34.1012    8.7803    4.9680 N   0  0  0  0  0  0  0  0  0  0  0  0
   33.9136   10.0567    5.5576 C   0  0  0  0  0  0  0  0  0  0  0  0
   34.8357   11.1381    5.2793 O   0  0  0  0  0  0  0  0  0  0  0  0
   32.8412   10.2856    6.4238 C   0  0  0  0  0  0  0  0  0  0  0  0
   32.2259    9.2129    7.0516 C   0  0  0  0  0  0  0  0  0  0  0  0
   31.1642    9.4353    7.9333 C   0  0  0  0  0  0  0  0  0  0  0  0
   30.4009    8.1529    8.7376 Cl  0  0  0  0  0  0  0  0  0  0  0  0
   30.6811   10.6817    8.2021 C   0  0  0  0  0  0  0  0  0  0  0  0
   31.2717   11.7651    7.5825 C   0  0  0  0  0  0  0  0  0  0  0  0
   30.7045   13.3182    7.8708 S   0  0  0  0  0  6  0  0  0  0  0  0
   29.3394   13.2305    8.8201 N   0  0  0  0  0  0  0  0  0  0  0  0
   30.1699   13.6756    6.5831 O   0  0  0  0  0  0  0  0  0  0  0  0
   31.7026   14.0457    8.6269 O   0  0  0  0  0  0  0  0  0  0  0  0
   32.3545   11.5721    6.6990 C   0  0  0  0  0  0  0  0  0  0  0  0
   32.9288   12.6764    6.1049 O   0  0  0  0  0  0  0  0  0  0  0  0
   34.0489   13.1784    6.8670 C   0  0  0  0  0  0  0  0  0  0  0  0
  1  2  1  0
  2  3  1  0
  3  4  2  0
  3  5  1  0
  5  6  2  0
  6  7  1  0
  7  8  1  0
  7  9  2  0
  9 10  1  0
 10 11  1  0
 11 12  1  0
 11 13  2  0
 11 14  2  0
 10 15  2  0
 15 16  1  0
 16 17  1  0
 15  5  1  0
A    1
 C1 
A    2
 N1 
A    3
 C2 
A    4
 O1 
A    5
 C3 
A    6
 C4 
A    7
 C5 
A    8
CL1 
A    9
 C6 
A   10
 C7 
A   11
 S1 
A   12
 N2 
A   13
 O2 
A   14
 O3 
A   15
 C8 
A   16
 O4 
A   17
 C9 
M  END
>  <ref_pdb>  (640) 
Ax0310a

>  <ref_mols>  (640) 
Ax0446a,Ax1080a,Ax0812a,Ax0719a,Ax1140a,Ax0528a,Ax0310a

>  <original SMILES>  (640) 
CNC(=O)c1cc(Cl)cc(S(N)(=O)=O)c1OC

>  <rationale>  (640) 
info info set:sulfonimide_whole;hbond:S87+S105+S125; 

>  <experiment>  (640) 
sulfonimide_whole

>  <cluster_label>  (640) 
3

>  <cluster_rank>  (640) 
297

>  <N_interactions>  (640) 
3

>  <∆∆G>  (640) 
-7.861387

>  <comRMSD>  (640) 
0.459912

>  <ROCS_TanimotoCombo>  (640) 
0.353

>  <ROCS_ShapeTanimoto>  (640) 
0.219

>  <ROCS_ColorTanimoto>  (640) 
0.134

$$$$
Z2783992036
     RDKit          3D

 17 18  0  0  0  0  0  0  0  0999 V2000
   30.6605    7.9162    9.2099 C   0  0  0  0  0  0  0  0  0  0  0  0
   30.1956    8.8736    8.2788 C   0  0  0  0  0  0  0  0  0  0  0  0
   28.8439    9.3453    8.6532 C   0  0  0  0  0  0  0  0  0  0  0  0
   31.1146    9.8400    8.4410 N   0  0  0  0  0  0  0  0  0  0  0  0
   31.8860   10.0197    7.3470 C   0  0  0  0  0  0  0  0  0  0  0  0
   32.6086    9.0656    6.7108 N   0  0  0  0  0  0  0  0  0  0  0  0
   33.3427    9.4617    5.6315 C   0  0  0  0  0  0  0  0  0  0  0  0
   33.3849   10.9657    5.0990 C   0  0  0  0  0  0  0  0  0  0  0  0
   32.6315   11.8991    5.7690 C   0  0  0  0  0  0  0  0  0  0  0  0
   31.8256   11.4626    6.9463 C   0  0  0  0  0  0  0  0  0  0  0  0
   30.9394   12.3039    7.7971 C   0  0  0  0  0  0  0  0  0  0  0  0
   30.2368   11.7089    8.5821 O   0  0  0  0  0  0  0  0  0  0  0  0
   30.8819   13.6520    7.7340 N   0  0  0  0  0  0  0  0  0  0  0  0
   29.7587   14.2966    8.4850 C   0  0  0  0  0  0  0  0  0  0  0  0
   28.8916   15.3512    7.7712 C   0  0  0  0  0  0  0  0  0  0  0  0
   27.6936   14.7628    8.2545 O   0  0  0  0  0  0  0  0  0  0  0  0
   28.4354   13.5306    8.4526 C   0  0  0  0  0  0  0  0  0  0  0  0
  1  2  1  0
  2  3  1  0
  2  4  1  0
  4  5  1  0
  5  6  2  0
  6  7  1  0
  7  8  2  0
  8  9  1  0
  9 10  2  0
 10 11  1  0
 11 12  2  0
 11 13  1  0
 13 14  1  0
 14 15  1  0
 15 16  1  0
 16 17  1  0
 10  5  1  0
 17 14  1  0
A    1
 C1 
A    2
 C2 
A    3
 C3 
A    4
 N1 
A    5
 C4 
A    6
 N2 
A    7
 C5 
A    8
 C6 
A    9
 C7 
A   10
 C8 
A   11
 C9 
A   12
 O1 
A   13
 N3 
A   14
 C10
A   15
 C11
A   16
 O2 
A   17
 C12
M  END
>  <ref_pdb>  (641) 
Ax0310a

>  <ref_mols>  (641) 
Ax0446a,Ax1080a,Ax0812a,Ax0719a,Ax1140a,Ax0528a,Ax0310a

>  <original SMILES>  (641) 
CC(C)Nc1ncccc1C(=O)NC1COC1

>  <rationale>  (641) 
info info set:screening_pocket;hbond:S87+S125; hydroph_interaction:P107; 

>  <experiment>  (641) 
screening_pocket

>  <cluster_label>  (641) 
3

>  <cluster_rank>  (641) 
298

>  <N_interactions>  (641) 
4

>  <∆∆G>  (641) 
-3.115789

>  <comRMSD>  (641) 
0.870272

>  <ROCS_TanimotoCombo>  (641) 
0.679

>  <ROCS_ShapeTanimoto>  (641) 
0.242

>  <ROCS_ColorTanimoto>  (641) 
0.437

$$$$
EN300_180757
     RDKit          3D

 15 16  0  0  0  0  0  0  0  0999 V2000
   29.6307   13.4386    8.9469 N   0  0  0  0  0  0  0  0  0  0  0  0
   30.8727   13.2916    7.8447 S   0  0  0  0  0  6  0  0  0  0  0  0
   30.2467   13.5867    6.5809 O   0  0  0  0  0  0  0  0  0  0  0  0
   32.0158   13.9505    8.4291 O   0  0  0  0  0  0  0  0  0  0  0  0
   31.3313   11.6710    7.6282 C   0  0  0  0  0  0  0  0  0  0  0  0
   30.5079   10.6346    8.3763 C   0  0  0  0  0  0  0  0  0  0  0  0
   30.9306    9.2146    8.1623 C   0  0  0  0  0  0  0  0  0  0  0  0
   31.9822    8.9091    7.3337 C   0  0  0  0  0  0  0  0  0  0  0  0
   32.7061    9.8819    6.6639 C   0  0  0  0  0  0  0  0  0  0  0  0
   33.7396    9.4105    5.8588 C   0  0  0  0  0  0  0  0  0  0  0  0
   34.6051   10.2254    5.0920 N   0  0  0  0  0  0  0  0  0  0  0  0
   34.4009   11.5083    5.1627 C   0  0  0  0  0  0  0  0  0  0  0  0
   33.3919   12.0757    5.9365 C   0  0  0  0  0  0  0  0  0  0  0  0
   33.5278   13.9185    5.6814 Br  0  0  0  0  0  0  0  0  0  0  0  0
   32.4574   11.2937    6.7543 C   0  0  0  0  0  0  0  0  0  0  0  0
  1  2  1  0
  2  3  2  0
  2  4  2  0
  2  5  1  0
  5  6  2  0
  6  7  1  0
  7  8  2  0
  8  9  1  0
  9 10  2  0
 10 11  1  0
 11 12  2  0
 12 13  1  0
 13 14  1  0
 13 15  2  0
 15  5  1  0
 15  9  1  0
A    1
 N1 
A    2
 S1 
A    3
 O1 
A    4
 O2 
A    5
 C1 
A    6
 C2 
A    7
 C3 
A    8
 C4 
A    9
 C5 
A   10
 C6 
A   11
 N2 
A   12
 C7 
A   13
 C8 
A   14
BR1 
A   15
 C9 
M  END
>  <ref_pdb>  (642) 
Ax0310a

>  <ref_mols>  (642) 
Ax0446a,Ax1080a,Ax0812a,Ax0719a,Ax1140a,Ax0528a,Ax0310a

>  <original SMILES>  (642) 
NS(=O)(=O)c1cccc2cncc(Br)c12

>  <rationale>  (642) 
info info set:sulfonimide_whole;hbond:S87+S125; 

>  <experiment>  (642) 
sulfonimide_whole

>  <cluster_label>  (642) 
3

>  <cluster_rank>  (642) 
299

>  <N_interactions>  (642) 
2

>  <∆∆G>  (642) 
-5.462663

>  <comRMSD>  (642) 
0.81081

>  <ROCS_TanimotoCombo>  (642) 
0.347

>  <ROCS_ShapeTanimoto>  (642) 
0.183

>  <ROCS_ColorTanimoto>  (642) 
0.164

$$$$
Z2054763196
     RDKit          3D

 18 19  0  0  0  0  0  0  0  0999 V2000
   28.8314   14.5871    9.8878 C   0  0  0  0  0  0  0  0  0  0  0  0
   30.0383   14.8729    9.0552 C   0  0  1  0  0  0  0  0  0  0  0  0
   30.9112   15.8650    9.6039 O   0  0  0  0  0  0  0  0  0  0  0  0
   32.2076   15.5730   10.0332 C   0  0  0  0  0  0  0  0  0  0  0  0
   32.9775   14.5424    9.4168 C   0  0  0  0  0  0  0  0  0  0  0  0
   32.2030   13.5745    8.6102 N   0  0  0  0  0  0  0  0  0  0  0  0
   32.7468   13.1466    7.3403 C   0  0  0  0  0  0  0  0  0  0  0  0
   32.5767   11.7937    7.0987 C   0  0  0  0  0  0  0  0  0  0  0  0
   31.4969   11.0948    7.9803 C   0  0  0  0  0  0  0  0  0  0  0  0
   31.2673    9.5966    7.8185 C   0  0  0  0  0  0  0  0  0  0  0  0
   32.1219    8.8938    6.7897 C   0  0  0  0  0  0  0  0  0  0  0  0
   33.1253    9.6701    5.9606 C   0  0  0  0  0  0  0  0  0  0  0  0
   33.3188   11.1402    6.1545 C   0  0  0  0  0  0  0  0  0  0  0  0
   34.4750   11.9832    5.1902 Cl  0  0  0  0  0  0  0  0  0  0  0  0
   30.7412   13.5845    8.7172 C   0  0  2  0  0  0  0  0  0  0  0  0
   30.0866   12.8939    7.5282 C   0  0  0  0  0  0  0  0  0  0  0  0
   29.1714   12.0129    7.9506 N   0  0  0  0  0  0  0  0  0  0  0  0
   30.3134   13.0615    6.3394 O   0  0  0  0  0  0  0  0  0  0  0  0
  2  1  1  1
  2  3  1  0
  3  4  1  0
  4  5  1  0
  5  6  1  0
  6  7  1  0
  7  8  1  0
  8  9  2  0
  9 10  1  0
 10 11  2  0
 11 12  1  0
 12 13  2  0
 13 14  1  0
  6 15  1  0
 15 16  1  6
 16 17  1  0
 16 18  2  0
 15  2  1  0
 13  8  1  0
A    1
 C1 
A    2
 C2 
A    3
 O1 
A    4
 C3 
A    5
 C4 
A    6
 N1 
A    7
 C5 
A    8
 C6 
A    9
 C7 
A   10
 C8 
A   11
 C9 
A   12
 C10
A   13
 C11
A   14
CL1 
A   15
 C12
A   16
 C13
A   17
 N2 
A   18
 O2 
M  END
>  <ref_pdb>  (643) 
Ax0310a

>  <ref_mols>  (643) 
Ax0446a,Ax1080a,Ax0812a,Ax0719a,Ax1140a,Ax0528a,Ax0310a

>  <original SMILES>  (643) 
C[C@H]1OCCN(Cc2ccccc2Cl)[C@@H]1C(N)=O

>  <rationale>  (643) 
info info set:3d;hbond:S87+S125+G127; hydroph_interaction:Y90; 

>  <experiment>  (643) 
3d

>  <cluster_label>  (643) 
3

>  <cluster_rank>  (643) 
300

>  <N_interactions>  (643) 
4

>  <∆∆G>  (643) 
-3.710276

>  <comRMSD>  (643) 
0.928323

>  <ROCS_TanimotoCombo>  (643) 
0.326

>  <ROCS_ShapeTanimoto>  (643) 
0.218

>  <ROCS_ColorTanimoto>  (643) 
0.108

$$$$
EN300_115660
     RDKit          3D

 14 14  0  0  0  0  0  0  0  0999 V2000
   30.6392    8.2631    9.1031 C   0  0  0  0  0  0  0  0  0  0  0  0
   30.3541    9.5319    8.3932 C   0  0  0  0  0  0  0  0  0  0  0  0
   31.4788   10.0274    7.4402 C   0  0  0  0  0  0  0  0  0  0  0  0
   32.3369    9.1974    6.8380 N   0  0  0  0  0  0  0  0  0  0  0  0
   33.1435   10.0204    6.1270 N   0  0  0  0  0  0  0  0  0  0  0  0
   34.1353    9.4768    5.3934 C   0  0  0  0  0  0  0  0  0  0  0  0
   32.8144   11.3393    6.2696 C   0  0  0  0  0  0  0  0  0  0  0  0
   33.6686   12.4252    5.5148 C   0  0  0  0  0  0  0  0  0  0  0  0
   32.7460   13.2010    4.5656 C   0  0  0  0  0  0  0  0  0  0  0  0
   31.7202   11.3788    7.1121 C   0  0  0  0  0  0  0  0  0  0  0  0
   30.8127   12.8067    7.6601 S   0  0  0  0  0  6  0  0  0  0  0  0
   29.3798   12.3260    8.3986 N   0  0  0  0  0  0  0  0  0  0  0  0
   31.6243   13.5104    8.6337 O   0  0  0  0  0  0  0  0  0  0  0  0
   30.3508   13.4396    6.4483 O   0  0  0  0  0  0  0  0  0  0  0  0
  1  2  1  0
  2  3  1  0
  3  4  2  0
  4  5  1  0
  5  6  1  0
  5  7  1  0
  7  8  1  0
  8  9  1  0
  7 10  2  0
 10 11  1  0
 11 12  1  0
 11 13  2  0
 11 14  2  0
 10  3  1  0
A    1
 C1 
A    2
 C2 
A    3
 C3 
A    4
 N1 
A    5
 N2 
A    6
 C4 
A    7
 C5 
A    8
 C6 
A    9
 C7 
A   10
 C8 
A   11
 S1 
A   12
 N3 
A   13
 O1 
A   14
 O2 
M  END
>  <ref_pdb>  (644) 
Ax0310a

>  <ref_mols>  (644) 
Ax0446a,Ax1080a,Ax0812a,Ax0719a,Ax1140a,Ax0528a,Ax0310a

>  <original SMILES>  (644) 
CCc1nn(C)c(CC)c1S(N)(=O)=O

>  <rationale>  (644) 
info info set:sulfonimide_whole;hbond:S87+S125; hydroph_interaction:P107+V124; 

>  <experiment>  (644) 
sulfonimide_whole

>  <cluster_label>  (644) 
3

>  <cluster_rank>  (644) 
301

>  <N_interactions>  (644) 
4

>  <∆∆G>  (644) 
-9.355443

>  <comRMSD>  (644) 
0.39148

>  <ROCS_TanimotoCombo>  (644) 
0.346

>  <ROCS_ShapeTanimoto>  (644) 
0.21

>  <ROCS_ColorTanimoto>  (644) 
0.136

$$$$
EN300_280748
     RDKit          3D

 16 16  0  0  0  0  0  0  0  0999 V2000
   33.7530    8.9428    5.7704 C   0  0  0  0  0  0  0  0  0  0  0  0
   32.7676    8.4480    6.6909 O   0  0  0  0  0  0  0  0  0  0  0  0
   32.0786    9.6005    7.0871 C   0  0  0  0  0  0  0  0  0  0  0  0
   32.6606   10.7968    6.3608 C   0  0  0  0  0  0  0  0  0  0  0  0
   32.0254   12.1044    6.7049 C   0  0  0  0  0  0  0  0  0  0  0  0
   32.7262   13.2077    5.9219 C   0  0  0  0  0  0  0  0  0  0  0  0
   32.1098   13.4849    4.5587 C   0  0  0  0  0  0  0  0  0  0  0  0
   34.2304   12.9568    5.8060 C   0  0  0  0  0  0  0  0  0  0  0  0
   30.9598   12.1388    7.6307 C   0  0  0  0  0  0  0  0  0  0  0  0
   30.1731   13.6627    8.0614 S   0  0  0  0  0  6  0  0  0  0  0  0
   28.8827   13.4044    9.0857 N   0  0  0  0  0  0  0  0  0  0  0  0
   29.5081   14.1295    6.8752 O   0  0  0  0  0  0  0  0  0  0  0  0
   31.1197   14.4346    8.8365 O   0  0  0  0  0  0  0  0  0  0  0  0
   30.4961   10.9663    8.2407 C   0  0  0  0  0  0  0  0  0  0  0  0
   31.0305    9.7013    8.0009 C   0  0  0  0  0  0  0  0  0  0  0  0
   30.4556    8.5359    8.7455 C   0  0  0  0  0  0  0  0  0  0  0  0
  1  2  1  0
  2  3  1  0
  3  4  2  0
  4  5  1  0
  5  6  1  0
  6  7  1  0
  6  8  1  0
  5  9  2  0
  9 10  1  0
 10 11  1  0
 10 12  2  0
 10 13  2  0
  9 14  1  0
 14 15  2  0
 15 16  1  0
 15  3  1  0
A    1
 C1 
A    2
 O1 
A    3
 C2 
A    4
 C3 
A    5
 C4 
A    6
 C5 
A    7
 C6 
A    8
 C7 
A    9
 C8 
A   10
 S1 
A   11
 N1 
A   12
 O2 
A   13
 O3 
A   14
 C9 
A   15
 C10
A   16
 C11
M  END
>  <ref_pdb>  (645) 
Ax0310a

>  <ref_mols>  (645) 
Ax0446a,Ax1080a,Ax0812a,Ax0719a,Ax1140a,Ax0528a,Ax0310a

>  <original SMILES>  (645) 
COc1cc(C(C)C)c(S(N)(=O)=O)cc1C

>  <rationale>  (645) 
info info set:sulfonimide_whole;hbond:S87+S125; hydroph_interaction:P107+V124; 

>  <experiment>  (645) 
sulfonimide_whole

>  <cluster_label>  (645) 
3

>  <cluster_rank>  (645) 
302

>  <N_interactions>  (645) 
4

>  <∆∆G>  (645) 
-10.278544

>  <comRMSD>  (645) 
0.513562

>  <ROCS_TanimotoCombo>  (645) 
0.347

>  <ROCS_ShapeTanimoto>  (645) 
0.209

>  <ROCS_ColorTanimoto>  (645) 
0.138

$$$$
Z992248534
     RDKit          3D

 13 14  0  0  0  0  0  0  0  0999 V2000
   33.4565   13.4013    9.1121 N   0  0  0  0  0  0  0  0  0  0  0  0
   32.1260   13.7857    8.8452 C   0  0  0  0  0  0  0  0  0  0  0  0
   31.4411   14.8295    9.2751 N   0  0  0  0  0  0  0  0  0  0  0  0
   30.1804   14.7112    8.6644 O   0  0  0  0  0  0  0  0  0  0  0  0
   30.0362   13.5709    7.8549 N   0  0  0  0  0  0  0  0  0  0  0  0
   31.2208   12.9901    7.9624 C   0  0  0  0  0  0  0  0  0  0  0  0
   31.7509   11.7218    7.3838 C   0  0  0  0  0  0  0  0  0  0  0  0
   33.0078   11.6895    6.3955 C   0  0  0  0  0  0  0  0  0  0  0  0
   33.2338   10.1631    6.0658 C   0  0  0  0  0  0  0  0  0  0  0  0
   32.4652    8.9911    6.5549 C   0  0  0  0  0  0  0  0  0  0  0  0
   31.4280    9.1944    7.3801 C   0  0  0  0  0  0  0  0  0  0  0  0
   31.0642   10.4029    7.7791 C   0  0  0  0  0  0  0  0  0  0  0  0
   30.0255   10.4509    8.5870 F   0  0  0  0  0  0  0  0  0  0  0  0
  1  2  1  0
  2  3  2  0
  3  4  1  0
  4  5  1  0
  5  6  2  0
  6  7  1  0
  7  8  2  0
  8  9  1  0
  9 10  2  0
 10 11  1  0
 11 12  2  0
 12 13  1  0
  6  2  1  0
 12  7  1  0
A    1
 N1 
A    2
 C1 
A    3
 N2 
A    4
 O1 
A    5
 N3 
A    6
 C2 
A    7
 C3 
A    8
 C4 
A    9
 C5 
A   10
 C6 
A   11
 C7 
A   12
 C8 
A   13
 F1 
M  END
>  <ref_pdb>  (646) 
Ax0310a

>  <ref_mols>  (646) 
Ax0446a,Ax1080a,Ax0812a,Ax0719a,Ax1140a,Ax0528a,Ax0310a

>  <original SMILES>  (646) 
Nc1nonc1-c1ccccc1F

>  <rationale>  (646) 
info info set:3d;hbond:S87+G127; 

>  <experiment>  (646) 
3d

>  <cluster_label>  (646) 
3

>  <cluster_rank>  (646) 
303

>  <N_interactions>  (646) 
3

>  <∆∆G>  (646) 
-2.738936

>  <comRMSD>  (646) 
0.623384

>  <ROCS_TanimotoCombo>  (646) 
0.326

>  <ROCS_ShapeTanimoto>  (646) 
0.188

>  <ROCS_ColorTanimoto>  (646) 
0.139

$$$$
EN300_228780
     RDKit          3D

 23 25  0  0  0  0  0  0  0  0999 V2000
   31.6289   14.6834   10.2099 C   0  0  0  0  0  0  0  0  0  0  0  0
   31.5432   14.1940    8.9155 O   0  0  0  0  0  0  0  0  0  0  0  0
   30.2649   14.3006    8.6041 C   0  0  0  0  0  0  0  0  0  0  0  0
   29.5863   15.5488    9.0121 C   0  0  0  0  0  0  0  0  0  0  0  0
   28.1506   15.5854    8.6164 C   0  0  0  0  0  0  0  0  0  0  0  0
   27.3565   14.4607    7.8182 C   0  0  0  0  0  0  0  0  0  0  0  0
   28.3471   13.3021    7.5552 C   0  0  0  0  0  0  0  0  0  0  0  0
   29.6657   13.3190    7.9572 C   0  0  0  0  0  0  0  0  0  0  0  0
   30.4315   12.0525    7.6024 C   0  0  0  0  0  0  0  0  0  0  0  0
   30.1479   10.9172    8.3102 C   0  0  0  0  0  0  0  0  0  0  0  0
   30.9135    9.7018    7.9973 C   0  0  0  0  0  0  0  0  0  0  0  0
   30.4063    8.6251    8.9514 C   0  0  0  0  0  0  0  0  0  0  0  0
   29.6951    9.1367    9.9162 F   0  0  0  0  0  0  0  0  0  0  0  0
   29.5174    7.7998    8.3975 F   0  0  0  0  0  0  0  0  0  0  0  0
   31.8534    9.7101    7.0738 N   0  0  0  0  0  0  0  0  0  0  0  0
   32.6396    8.7296    6.6626 N   0  0  0  0  0  0  0  0  0  0  0  0
   33.3961    9.3126    5.7544 C   0  0  0  0  0  0  0  0  0  0  0  0
   33.1018   10.6626    5.5687 C   0  0  0  0  0  0  0  0  0  0  0  0
   33.7612   11.5517    4.6537 C   0  0  0  0  0  0  0  0  0  0  0  0
   33.2895   12.6707    4.4797 O   0  0  0  0  0  0  0  0  0  0  0  0
   35.2005   10.9813    3.8407 Cl  0  0  0  0  0  0  0  0  0  0  0  0
   32.0795   10.9221    6.4287 C   0  0  0  0  0  0  0  0  0  0  0  0
   31.3631   12.0794    6.6886 N   0  0  0  0  0  0  0  0  0  0  0  0
  1  2  1  0
  2  3  1  0
  3  4  2  0
  4  5  1  0
  5  6  2  0
  6  7  1  0
  7  8  2  0
  8  9  1  0
  9 10  1  0
 10 11  2  0
 11 12  1  0
 12 13  1  0
 12 14  1  0
 11 15  1  0
 15 16  1  0
 16 17  2  0
 17 18  1  0
 18 19  1  0
 19 20  2  0
 19 21  1  0
 18 22  2  0
 22 23  1  0
  8  3  1  0
 23  9  2  0
 22 15  1  0
A    1
 C1 
A    2
 O1 
A    3
 C2 
A    4
 C3 
A    5
 C4 
A    6
 C5 
A    7
 C6 
A    8
 C7 
A    9
 C8 
A   10
 C9 
A   11
 C10
A   12
 C11
A   13
 F1 
A   14
 F2 
A   15
 N1 
A   16
 N2 
A   17
 C12
A   18
 C13
A   19
 C14
A   20
 O2 
A   21
CL1 
A   22
 C15
A   23
 N3 
M  END
>  <ref_pdb>  (647) 
Ax0310a

>  <ref_mols>  (647) 
Ax0446a,Ax1080a,Ax0812a,Ax0719a,Ax1140a,Ax0528a,Ax0310a

>  <original SMILES>  (647) 
COc1ccccc1-c1cc(C(F)F)n2ncc(C(=O)Cl)c2n1

>  <rationale>  (647) 
info info set:bb_whole;hbond:S87; hydroph_interaction:P107+Y89+Y90; 

>  <experiment>  (647) 
bb_whole

>  <cluster_label>  (647) 
3

>  <cluster_rank>  (647) 
304

>  <N_interactions>  (647) 
5

>  <∆∆G>  (647) 
-1.08638

>  <comRMSD>  (647) 
0.610901

>  <ROCS_TanimotoCombo>  (647) 
0.431

>  <ROCS_ShapeTanimoto>  (647) 
0.261

>  <ROCS_ColorTanimoto>  (647) 
0.17

$$$$
Z1607060571
     RDKit          3D

 14 14  0  0  0  0  0  0  0  0999 V2000
   34.3183   14.8351    9.2243 C   0  0  0  0  0  0  0  0  0  0  0  0
   35.1261   14.6226    7.9210 C   0  0  0  0  0  0  0  0  0  0  0  0
   34.1751   14.1021    6.8835 C   0  0  0  0  0  0  0  0  0  0  0  0
   32.8594   13.2689    7.7335 S   0  0  0  0  0  6  0  0  0  0  0  0
   33.5364   12.5397    8.7390 O   0  0  0  0  0  0  0  0  0  0  0  0
   31.7293   14.0636    8.1422 O   0  0  0  0  0  0  0  0  0  0  0  0
   32.3706   12.3677    6.4384 N   0  0  0  0  0  0  0  0  0  0  0  0
   32.1066   11.0306    6.8087 C   0  0  0  0  0  0  0  0  0  0  0  0
   32.8085    9.9354    6.4572 O   0  0  0  0  0  0  0  0  0  0  0  0
   32.2108    8.8480    7.0501 N   0  0  0  0  0  0  0  0  0  0  0  0
   31.1834    9.3444    7.7238 C   0  0  0  0  0  0  0  0  0  0  0  0
   30.2187    8.5034    8.5574 C   0  0  0  0  0  0  0  0  0  0  0  0
   31.0716   10.7076    7.5978 C   0  0  0  0  0  0  0  0  0  0  0  0
   30.0621   11.6685    8.1791 C   0  0  0  0  0  0  0  0  0  0  0  0
  1  2  1  0
  2  3  1  0
  3  4  1  0
  4  5  2  0
  4  6  2  0
  4  7  1  0
  7  8  1  0
  8  9  1  0
  9 10  1  0
 10 11  2  0
 11 12  1  0
 11 13  1  0
 13 14  1  0
 13  8  2  0
A    1
 C1 
A    2
 C2 
A    3
 C3 
A    4
 S1 
A    5
 O1 
A    6
 O2 
A    7
 N1 
A    8
 C4 
A    9
 O3 
A   10
 N2 
A   11
 C5 
A   12
 C6 
A   13
 C7 
A   14
 C8 
M  END
>  <ref_pdb>  (648) 
Ax0310a

>  <ref_mols>  (648) 
Ax0446a,Ax1080a,Ax0812a,Ax0719a,Ax1140a,Ax0528a,Ax0310a

>  <original SMILES>  (648) 
CCCS(=O)(=O)Nc1onc(C)c1C

>  <rationale>  (648) 
info info set:3d;hbond:S87+G127; hydroph_interaction:V124+V84+E85; 

>  <experiment>  (648) 
3d

>  <cluster_label>  (648) 
3

>  <cluster_rank>  (648) 
305

>  <N_interactions>  (648) 
5

>  <∆∆G>  (648) 
-6.03822

>  <comRMSD>  (648) 
0.66229

>  <ROCS_TanimotoCombo>  (648) 
0.325

>  <ROCS_ShapeTanimoto>  (648) 
0.19

>  <ROCS_ColorTanimoto>  (648) 
0.136

$$$$
EN300_43273
     RDKit          3D

  9  9  0  0  0  0  0  0  0  0999 V2000
   35.0006    9.4506    4.6279 C   0  0  0  0  0  0  0  0  0  0  0  0
   33.9496    8.7317    5.3095 N   0  0  0  0  0  0  0  0  0  0  0  0
   33.0498    9.4949    6.0463 C   0  0  0  0  0  0  0  0  0  0  0  0
   33.0069   10.9343    5.8541 C   0  0  0  0  0  0  0  0  0  0  0  0
   32.0243   11.7363    6.6275 C   0  0  0  0  0  0  0  0  0  0  0  0
   31.0999   10.9951    7.5921 C   0  0  0  0  0  0  0  0  0  0  0  0
   30.1380   11.6732    8.3358 N   0  0  0  0  0  0  0  0  0  0  0  0
   31.3405    9.6141    7.6099 C   0  0  0  0  0  0  0  0  0  0  0  0
   32.2326    8.8630    6.9176 N   0  0  0  0  0  0  0  0  0  0  0  0
  1  2  1  0
  2  3  1  0
  3  4  2  0
  4  5  1  0
  5  6  2  0
  6  7  1  0
  6  8  1  0
  8  9  2  0
  9  3  1  0
A    1
 C1 
A    2
 N1 
A    3
 C2 
A    4
 C3 
A    5
 C4 
A    6
 C5 
A    7
 N2 
A    8
 C6 
A    9
 N3 
M  END
>  <ref_pdb>  (649) 
Ax0310a

>  <ref_mols>  (649) 
Ax0446a,Ax1080a,Ax0812a,Ax0719a,Ax1140a,Ax0528a,Ax0310a

>  <original SMILES>  (649) 
CNc1ccc(N)cn1

>  <rationale>  (649) 
info info set:bb_densepocket2;hbond:S105+S125; hydroph_interaction:P107; 

>  <experiment>  (649) 
bb_densepocket2

>  <cluster_label>  (649) 
3

>  <cluster_rank>  (649) 
306

>  <N_interactions>  (649) 
3

>  <∆∆G>  (649) 
-4.100106

>  <comRMSD>  (649) 
0.374271

>  <ROCS_TanimotoCombo>  (649) 
0.627

>  <ROCS_ShapeTanimoto>  (649) 
0.192

>  <ROCS_ColorTanimoto>  (649) 
0.435

$$$$
EN300_293980
     RDKit          3D

 15 16  0  0  0  0  0  0  0  0999 V2000
   29.1022   13.8458    9.3321 N   0  0  0  0  0  0  0  0  0  0  0  0
   30.3119   13.3621    8.2748 S   0  0  0  0  0  6  0  0  0  0  0  0
   29.8510   13.8208    6.9923 O   0  0  0  0  0  0  0  0  0  0  0  0
   31.5549   13.8213    8.8685 O   0  0  0  0  0  0  0  0  0  0  0  0
   30.2162   11.5854    8.1998 C   0  0  0  0  0  0  0  0  0  0  0  0
   31.3423   11.1000    7.4032 C   0  0  0  0  0  0  0  0  0  0  0  0
   31.5816    9.6188    7.2643 C   0  0  0  0  0  0  0  0  0  0  0  0
   32.5561    9.0692    6.5432 N   0  0  0  0  0  0  0  0  0  0  0  0
   33.4105    9.8589    5.8690 C   0  0  0  0  0  0  0  0  0  0  0  0
   34.4885    9.1763    5.0309 C   0  0  0  0  0  0  0  0  0  0  0  0
   35.5075    9.9982    4.2293 C   0  0  0  0  0  0  0  0  0  0  0  0
   35.3847   11.5166    4.3246 C   0  0  0  0  0  0  0  0  0  0  0  0
   34.2615   12.0853    5.1925 C   0  0  0  0  0  0  0  0  0  0  0  0
   33.3773   11.2746    5.8791 C   0  0  0  0  0  0  0  0  0  0  0  0
   32.3047   12.0238    6.6786 C   0  0  0  0  0  0  0  0  0  0  0  0
  1  2  1  0
  2  3  2  0
  2  4  2  0
  2  5  1  0
  5  6  1  0
  6  7  2  0
  7  8  1  0
  8  9  2  0
  9 10  1  0
 10 11  2  0
 11 12  1  0
 12 13  2  0
 13 14  1  0
 14 15  2  0
 15  6  1  0
 14  9  1  0
A    1
 N1 
A    2
 S1 
A    3
 O1 
A    4
 O2 
A    5
 C1 
A    6
 C2 
A    7
 C3 
A    8
 N2 
A    9
 C4 
A   10
 C5 
A   11
 C6 
A   12
 C7 
A   13
 C8 
A   14
 C9 
A   15
 C10
M  END
>  <ref_pdb>  (650) 
Ax0310a

>  <ref_mols>  (650) 
Ax0446a,Ax1080a,Ax0812a,Ax0719a,Ax1140a,Ax0528a,Ax0310a

>  <original SMILES>  (650) 
NS(=O)(=O)Cc1cnc2ccccc2c1

>  <rationale>  (650) 
info info set:sulfonimide_whole;hbond:S87+S125; 

>  <experiment>  (650) 
sulfonimide_whole

>  <cluster_label>  (650) 
3

>  <cluster_rank>  (650) 
307

>  <N_interactions>  (650) 
2

>  <∆∆G>  (650) 
-5.176311

>  <comRMSD>  (650) 
0.721177

>  <ROCS_TanimotoCombo>  (650) 
0.354

>  <ROCS_ShapeTanimoto>  (650) 
0.19

>  <ROCS_ColorTanimoto>  (650) 
0.163

$$$$
Z2111525185
     RDKit          3D

 14 15  0  0  0  0  0  0  0  0999 V2000
   31.6578   13.5528    8.6476 O   0  0  0  0  0  0  0  0  0  0  0  0
   32.4542   12.7173    8.2394 C   0  0  0  0  0  0  0  0  0  0  0  0
   33.7079   12.7440    8.7520 O   0  0  0  0  0  0  0  0  0  0  0  0
   32.1235   11.6622    7.1655 C   0  0  0  0  0  0  0  0  0  0  0  0
   33.2628   11.5861    6.1506 C   0  0  0  0  0  0  0  0  0  0  0  0
   33.7536   12.9002    5.5758 C   0  0  0  0  0  0  0  0  0  0  0  0
   34.9126   12.7334    4.5747 C   0  0  0  0  0  0  0  0  0  0  0  0
   35.3511   11.4163    4.3323 C   0  0  0  0  0  0  0  0  0  0  0  0
   34.8470   10.2601    4.8985 N   0  0  0  0  0  0  0  0  0  0  0  0
   33.8348   10.3840    5.7708 C   0  0  0  0  0  0  0  0  0  0  0  0
   30.7600   12.1747    6.7349 C   0  0  0  0  0  0  0  0  0  0  0  0
   29.8325   11.6599    7.8181 C   0  0  0  0  0  0  0  0  0  0  0  0
   30.3777   10.2875    8.2210 C   0  0  0  0  0  0  0  0  0  0  0  0
   31.6412   10.2039    7.4394 C   0  0  0  0  0  0  0  0  0  0  0  0
  1  2  2  0
  2  3  1  0
  2  4  1  0
  4  5  1  0
  5  6  2  0
  6  7  1  0
  7  8  2  0
  8  9  1  0
  9 10  2  0
  4 11  1  0
 11 12  1  0
 12 13  1  0
 13 14  1  0
 14  4  1  0
 10  5  1  0
A    1
 O1 
A    2
 C1 
A    3
 O2 
A    4
 C2 
A    5
 C3 
A    6
 C4 
A    7
 C5 
A    8
 C6 
A    9
 N1 
A   10
 C7 
A   11
 C8 
A   12
 C9 
A   13
 C10
A   14
 C11
M  END
>  <ref_pdb>  (651) 
Ax0310a

>  <ref_mols>  (651) 
Ax0446a,Ax1080a,Ax0812a,Ax0719a,Ax1140a,Ax0528a,Ax0310a

>  <original SMILES>  (651) 
O=C(O)C1(c2cccnc2)CCCC1

>  <rationale>  (651) 
info info set:3d;hbond:S87+G127; hydroph_interaction:P107; 

>  <experiment>  (651) 
3d

>  <cluster_label>  (651) 
3

>  <cluster_rank>  (651) 
308

>  <N_interactions>  (651) 
4

>  <∆∆G>  (651) 
-3.08528

>  <comRMSD>  (651) 
0.865058

>  <ROCS_TanimotoCombo>  (651) 
0.315

>  <ROCS_ShapeTanimoto>  (651) 
0.189

>  <ROCS_ColorTanimoto>  (651) 
0.126

$$$$
Z2207129054
     RDKit          3D

 24 26  0  0  0  0  0  0  0  0999 V2000
   28.8591   16.9124    8.4528 C   0  0  0  0  0  0  0  0  0  0  0  0
   28.2913   15.5954    8.5118 C   0  0  0  0  0  0  0  0  0  0  0  0
   28.3615   15.0737    7.2168 O   0  0  0  0  0  0  0  0  0  0  0  0
   28.0338   13.8199    7.4080 C   0  0  0  0  0  0  0  0  0  0  0  0
   26.5296   13.5732    7.1356 C   0  0  0  0  0  0  0  0  0  0  0  0
   28.7651   13.0248    6.3592 C   0  0  0  0  0  0  0  0  0  0  0  0
   30.2895   12.8572    6.6182 C   0  0  0  0  0  0  0  0  0  0  0  0
   30.5970   12.5831    7.8987 N   0  0  0  0  0  0  0  0  0  0  0  0
   30.9087   11.3043    8.1274 C   0  0  0  0  0  0  0  0  0  0  0  0
   30.3719   10.3728    9.0471 O   0  0  0  0  0  0  0  0  0  0  0  0
   31.8566   10.8132    7.3001 C   0  0  0  0  0  0  0  0  0  0  0  0
   31.8125    9.3266    7.1331 C   0  0  0  0  0  0  0  0  0  0  0  0
   30.9234    8.5166    7.7911 O   0  0  0  0  0  0  0  0  0  0  0  0
   32.6777    8.7350    6.3087 N   0  0  0  0  0  0  0  0  0  0  0  0
   33.5793    9.4752    5.6298 C   0  0  0  0  0  0  0  0  0  0  0  0
   34.4995    8.8196    4.7025 C   0  0  0  0  0  0  0  0  0  0  0  0
   35.4431    9.5850    4.0143 C   0  0  0  0  0  0  0  0  0  0  0  0
   35.5355   10.9419    4.1791 C   0  0  0  0  0  0  0  0  0  0  0  0
   34.6736   11.5991    5.0426 C   0  0  0  0  0  0  0  0  0  0  0  0
   33.6887   10.8834    5.7681 C   0  0  0  0  0  0  0  0  0  0  0  0
   32.8079   11.5423    6.6262 C   0  0  0  0  0  0  0  0  0  0  0  0
   32.9193   13.0101    6.7823 C   0  0  0  0  0  0  0  0  0  0  0  0
   30.0710   13.5436    8.8569 C   0  0  0  0  0  0  0  0  0  0  0  0
   28.5488   13.4793    8.8239 C   0  0  0  0  0  0  0  0  0  0  0  0
  1  2  1  0
  2  3  1  0
  3  4  1  0
  4  5  1  0
  4  6  1  0
  6  7  1  0
  7  8  1  0
  8  9  1  0
  9 10  2  0
  9 11  1  0
 11 12  2  0
 12 13  1  0
 12 14  1  0
 14 15  2  0
 15 16  1  0
 16 17  2  0
 17 18  1  0
 18 19  2  0
 19 20  1  0
 20 21  2  0
 21 22  1  0
  8 23  1  0
 23 24  1  0
 24  4  1  0
 21 11  1  0
 20 15  1  0
A    1
 C1 
A    2
 C2 
A    3
 O1 
A    4
 C3 
A    5
 C4 
A    6
 C5 
A    7
 C6 
A    8
 N1 
A    9
 C7 
A   10
 O2 
A   11
 C8 
A   12
 C9 
A   13
 O3 
A   14
 N2 
A   15
 C10
A   16
 C11
A   17
 C12
A   18
 C13
A   19
 C14
A   20
 C15
A   21
 C16
A   22
 C17
A   23
 C18
A   24
 C19
M  END
>  <ref_pdb>  (652) 
Ax0310a

>  <ref_mols>  (652) 
Ax0446a,Ax1080a,Ax0812a,Ax0719a,Ax1140a,Ax0528a,Ax0310a

>  <original SMILES>  (652) 
CCOC1(C)CCN(C(=O)c2c(O)nc3ccccc3c2C)CC1

>  <rationale>  (652) 
info info set:screening_pocket;hbond:S105; hydroph_interaction:P107+Y89+Y90; 

>  <experiment>  (652) 
screening_pocket

>  <cluster_label>  (652) 
3

>  <cluster_rank>  (652) 
309

>  <N_interactions>  (652) 
5

>  <∆∆G>  (652) 
-4.603252

>  <comRMSD>  (652) 
0.72439

>  <ROCS_TanimotoCombo>  (652) 
0.654

>  <ROCS_ShapeTanimoto>  (652) 
0.297

>  <ROCS_ColorTanimoto>  (652) 
0.357

$$$$
Z133805700
     RDKit          3D

 16 17  0  0  0  0  0  0  0  0999 V2000
   34.3651   14.9997    8.8258 C   0  0  0  0  0  0  0  0  0  0  0  0
   33.2004   13.7477    8.3898 S   0  0  0  0  0  6  0  0  0  0  0  0
   31.8703   14.1563    8.8000 O   0  0  0  0  0  0  0  0  0  0  0  0
   33.8559   12.6416    8.9426 O   0  0  0  0  0  0  0  0  0  0  0  0
   33.3122   13.6914    6.6790 N   0  0  0  0  0  0  0  0  0  0  0  0
   32.1981   13.0496    5.9484 C   0  0  0  0  0  0  0  0  0  0  0  0
   31.8161   11.6794    6.6366 C   0  0  0  0  0  0  0  0  0  0  0  0
   32.6015   10.3733    6.2864 C   0  0  0  0  0  0  0  0  0  0  0  0
   32.2526    8.9500    6.9646 C   0  0  0  0  0  0  0  0  0  0  0  0
   31.0754    9.0021    7.9955 C   0  0  0  0  0  0  0  0  0  0  0  0
   30.6114   10.3214    8.0582 C   0  0  0  0  0  0  0  0  0  0  0  0
   30.7776   11.6300    7.5615 C   0  0  0  0  0  0  0  0  0  0  0  0
   30.0359   12.6774    7.9318 F   0  0  0  0  0  0  0  0  0  0  0  0
   34.6131   13.3766    6.0823 C   0  0  0  0  0  0  0  0  0  0  0  0
   35.1212   14.0186    4.8733 C   0  0  0  0  0  0  0  0  0  0  0  0
   35.8734   14.4177    6.0447 C   0  0  0  0  0  0  0  0  0  0  0  0
  1  2  1  0
  2  3  2  0
  2  4  2  0
  2  5  1  0
  5  6  1  0
  6  7  1  0
  7  8  2  0
  8  9  1  0
  9 10  2  0
 10 11  1  0
 11 12  2  0
 12 13  1  0
  5 14  1  0
 14 15  1  0
 15 16  1  0
 12  7  1  0
 16 14  1  0
A    1
 C1 
A    2
 S1 
A    3
 O1 
A    4
 O2 
A    5
 N1 
A    6
 C2 
A    7
 C3 
A    8
 C4 
A    9
 C5 
A   10
 C6 
A   11
 C7 
A   12
 C8 
A   13
 F1 
A   14
 C9 
A   15
 C10
A   16
 C11
M  END
>  <ref_pdb>  (653) 
Ax0310a

>  <ref_mols>  (653) 
Ax0446a,Ax1080a,Ax0812a,Ax0719a,Ax1140a,Ax0528a,Ax0310a

>  <original SMILES>  (653) 
CS(=O)(=O)N(Cc1ccccc1F)C1CC1

>  <rationale>  (653) 
info info set:3d;hbond:S87+G127; hydroph_interaction:P107+E85; 

>  <experiment>  (653) 
3d

>  <cluster_label>  (653) 
3

>  <cluster_rank>  (653) 
310

>  <N_interactions>  (653) 
4

>  <∆∆G>  (653) 
-5.087625

>  <comRMSD>  (653) 
0.433893

>  <ROCS_TanimotoCombo>  (653) 
0.326

>  <ROCS_ShapeTanimoto>  (653) 
0.205

>  <ROCS_ColorTanimoto>  (653) 
0.121

$$$$
Z94821784
     RDKit          3D

 16 17  0  0  0  0  0  0  0  0999 V2000
   29.7088   14.5494   10.2262 C   0  0  0  0  0  0  0  0  0  0  0  0
   29.0728   13.8512    9.1059 N   0  0  0  0  0  0  0  0  0  0  0  0
   29.7385   12.6567    8.6008 C   0  0  0  0  0  0  0  0  0  0  0  0
   30.9416   12.4923    8.5010 O   0  0  0  0  0  0  0  0  0  0  0  0
   28.9461   11.5522    8.2573 C   0  0  0  0  0  0  0  0  0  0  0  0
   29.8103   10.3488    8.2983 N   0  0  0  0  0  0  0  0  0  0  0  0
   29.1827    9.0849    8.6468 C   0  0  0  0  0  0  0  0  0  0  0  0
   30.9632   10.3905    7.5731 C   0  0  0  0  0  0  0  0  0  0  0  0
   31.4905   11.5054    7.1433 N   0  0  0  0  0  0  0  0  0  0  0  0
   32.6350   11.2860    6.4267 C   0  0  0  0  0  0  0  0  0  0  0  0
   33.4067   12.2878    5.8611 C   0  0  0  0  0  0  0  0  0  0  0  0
   34.6542   11.9799    5.0768 C   0  0  0  0  0  0  0  0  0  0  0  0
   34.9320   10.4869    4.9890 C   0  0  0  0  0  0  0  0  0  0  0  0
   34.1245    9.5219    5.5792 C   0  0  0  0  0  0  0  0  0  0  0  0
   32.9934    9.9454    6.2933 C   0  0  0  0  0  0  0  0  0  0  0  0
   31.8485    8.9923    7.1305 S   0  0  0  0  0  0  0  0  0  0  0  0
  1  2  1  0
  2  3  1  0
  3  4  2  0
  3  5  1  0
  5  6  1  0
  6  7  1  0
  6  8  1  0
  8  9  2  0
  9 10  1  0
 10 11  2  0
 11 12  1  0
 12 13  2  0
 13 14  1  0
 14 15  2  0
 15 16  1  0
 16  8  1  0
 15 10  1  0
A    1
 C1 
A    2
 N1 
A    3
 C2 
A    4
 O1 
A    5
 C3 
A    6
 N2 
A    7
 C4 
A    8
 C5 
A    9
 N3 
A   10
 C6 
A   11
 C7 
A   12
 C8 
A   13
 C9 
A   14
 C10
A   15
 C11
A   16
 S1 
M  END
>  <ref_pdb>  (654) 
Ax0310a

>  <ref_mols>  (654) 
Ax0446a,Ax1080a,Ax0812a,Ax0719a,Ax1140a,Ax0528a,Ax0310a

>  <original SMILES>  (654) 
CNC(=O)CN(C)c1nc2ccccc2s1

>  <rationale>  (654) 
info info set:3d;hbond:S87+G127; 

>  <experiment>  (654) 
3d

>  <cluster_label>  (654) 
3

>  <cluster_rank>  (654) 
311

>  <N_interactions>  (654) 
3

>  <∆∆G>  (654) 
-5.677081

>  <comRMSD>  (654) 
0.814387

>  <ROCS_TanimotoCombo>  (654) 
0.334

>  <ROCS_ShapeTanimoto>  (654) 
0.191

>  <ROCS_ColorTanimoto>  (654) 
0.144

$$$$
EN300_43134
     RDKit          3D

 15 16  0  0  0  0  0  0  0  0999 V2000
   34.4734   15.0296    8.7797 C   0  0  0  0  0  0  0  0  0  0  0  0
   33.2808   13.7901    8.4749 S   0  0  0  0  0  6  0  0  0  0  0  0
   31.9739   14.2615    8.8818 O   0  0  0  0  0  0  0  0  0  0  0  0
   33.9237   12.6993    9.0828 O   0  0  0  0  0  0  0  0  0  0  0  0
   33.4050   13.5780    6.7885 N   0  0  0  0  0  0  0  0  0  0  0  0
   33.5596   12.2856    6.3653 C   0  0  0  0  0  0  0  0  0  0  0  0
   34.7918   12.0998    5.4419 C   0  0  0  0  0  0  0  0  0  0  0  0
   34.6705   10.6025    5.1959 C   0  0  0  0  0  0  0  0  0  0  0  0
   33.6888    9.5743    5.6821 C   0  0  0  0  0  0  0  0  0  0  0  0
   32.5328    9.8998    6.5878 C   0  0  0  0  0  0  0  0  0  0  0  0
   32.5112   11.3512    6.8956 C   0  0  0  0  0  0  0  0  0  0  0  0
   31.5059   11.8270    7.6813 C   0  0  0  0  0  0  0  0  0  0  0  0
   30.4673   10.9878    8.0440 C   0  0  0  0  0  0  0  0  0  0  0  0
   30.6550    9.5849    8.0602 C   0  0  0  0  0  0  0  0  0  0  0  0
   31.6264    9.0724    7.0821 N   0  0  0  0  0  0  0  0  0  0  0  0
  1  2  1  0
  2  3  2  0
  2  4  2  0
  2  5  1  0
  5  6  1  0
  6  7  2  0
  7  8  1  0
  8  9  2  0
  9 10  1  0
 10 11  2  0
 11 12  1  0
 12 13  1  0
 13 14  1  0
 14 15  1  0
 11  6  1  0
 15 10  1  0
A    1
 C1 
A    2
 S1 
A    3
 O1 
A    4
 O2 
A    5
 N1 
A    6
 C2 
A    7
 C3 
A    8
 C4 
A    9
 C5 
A   10
 C6 
A   11
 C7 
A   12
 C8 
A   13
 C9 
A   14
 C10
A   15
 N2 
M  END
>  <ref_pdb>  (655) 
Ax0310a

>  <ref_mols>  (655) 
Ax0446a,Ax1080a,Ax0812a,Ax0719a,Ax1140a,Ax0528a,Ax0310a

>  <original SMILES>  (655) 
CS(=O)(=O)Nc1cccc2c1CCCN2

>  <rationale>  (655) 
info info set:sulfonimide_whole;hbond:S87+G127; 

>  <experiment>  (655) 
sulfonimide_whole

>  <cluster_label>  (655) 
3

>  <cluster_rank>  (655) 
312

>  <N_interactions>  (655) 
2

>  <∆∆G>  (655) 
-4.188599

>  <comRMSD>  (655) 
0.432556

>  <ROCS_TanimotoCombo>  (655) 
0.357

>  <ROCS_ShapeTanimoto>  (655) 
0.207

>  <ROCS_ColorTanimoto>  (655) 
0.15

$$$$
Z2523346599
     RDKit          3D

 19 20  0  0  0  0  0  0  0  0999 V2000
   27.6948   12.4926    6.5557 C   0  0  0  0  0  0  0  0  0  0  0  0
   29.2091   12.6092    6.5163 C   0  0  0  0  0  0  0  0  0  0  0  0
   29.7256   12.3325    7.8014 N   0  0  0  0  0  0  0  0  0  0  0  0
   30.3545   11.1942    8.0722 C   0  0  0  0  0  0  0  0  0  0  0  0
   30.1548   10.4556    9.0023 O   0  0  0  0  0  0  0  0  0  0  0  0
   31.4277   10.5982    7.2426 C   0  0  0  0  0  0  0  0  0  0  0  0
   32.0775   11.5774    6.2600 C   0  0  0  0  0  0  0  0  0  0  0  0
   33.1860   11.0148    5.3686 C   0  0  0  0  0  0  0  0  0  0  0  0
   33.5287    9.5365    5.5487 C   0  0  0  0  0  0  0  0  0  0  0  0
   34.5207    8.9967    4.7511 C   0  0  0  0  0  0  0  0  0  0  0  0
   32.9590    8.7462    6.4020 N   0  0  0  0  0  0  0  0  0  0  0  0
   31.9597    9.1702    7.2417 C   0  0  0  0  0  0  0  0  0  0  0  0
   31.4526    8.2004    8.1320 N   0  0  0  0  0  0  0  0  0  0  0  0
   30.0832    8.2658    8.5273 C   0  0  0  0  0  0  0  0  0  0  0  0
   29.2840   13.3513    8.6723 C   0  0  0  0  0  0  0  0  0  0  0  0
   30.4378   14.0098    9.3810 C   0  0  0  0  0  0  0  0  0  0  0  0
   29.8654   15.3147    9.7651 C   0  0  0  0  0  0  0  0  0  0  0  0
   28.7307   15.6719    8.7953 C   0  0  0  0  0  0  0  0  0  0  0  0
   28.5914   14.4687    7.9004 C   0  0  0  0  0  0  0  0  0  0  0  0
  1  2  1  0
  2  3  1  0
  3  4  1  0
  4  5  2  0
  4  6  1  0
  6  7  2  0
  7  8  1  0
  8  9  2  0
  9 10  1  0
  9 11  1  0
 11 12  2  0
 12 13  1  0
 13 14  1  0
  3 15  1  0
 15 16  1  0
 16 17  1  0
 17 18  1  0
 18 19  1  0
 12  6  1  0
 19 15  1  0
A    1
 C1 
A    2
 C2 
A    3
 N1 
A    4
 C3 
A    5
 O1 
A    6
 C4 
A    7
 C5 
A    8
 C6 
A    9
 C7 
A   10
 C8 
A   11
 N2 
A   12
 C9 
A   13
 N3 
A   14
 C10
A   15
 C11
A   16
 C12
A   17
 C13
A   18
 C14
A   19
 C15
M  END
>  <ref_pdb>  (656) 
Ax0310a

>  <ref_mols>  (656) 
Ax0446a,Ax1080a,Ax0812a,Ax0719a,Ax1140a,Ax0528a,Ax0310a

>  <original SMILES>  (656) 
CCN(C(=O)c1ccc(C)nc1NC)C1CCCC1

>  <rationale>  (656) 
info info set:screening_pocket;hbond:S105; hydroph_interaction:P107+Y90; 

>  <experiment>  (656) 
screening_pocket

>  <cluster_label>  (656) 
3

>  <cluster_rank>  (656) 
313

>  <N_interactions>  (656) 
4

>  <∆∆G>  (656) 
-7.489704

>  <comRMSD>  (656) 
0.731858

>  <ROCS_TanimotoCombo>  (656) 
0.65

>  <ROCS_ShapeTanimoto>  (656) 
0.264

>  <ROCS_ColorTanimoto>  (656) 
0.386

$$$$
EN300_7672053
     RDKit          3D

 10 10  0  0  0  0  0  0  0  0999 V2000
   29.7304    8.2826    8.5787 C   0  0  0  0  0  0  0  0  0  0  0  0
   30.5521    8.9835    8.1311 C   0  0  0  0  0  0  0  0  0  0  0  0
   31.4578    9.7753    7.4094 C   0  0  0  0  0  0  0  0  0  0  0  0
   32.3447    9.0183    6.7326 N   0  0  0  0  0  0  0  0  0  0  0  0
   33.2433    9.6701    5.9824 C   0  0  0  0  0  0  0  0  0  0  0  0
   33.2858   11.0404    5.8951 C   0  0  0  0  0  0  0  0  0  0  0  0
   34.2073   11.6315    5.1261 F   0  0  0  0  0  0  0  0  0  0  0  0
   32.3670   11.8035    6.6075 C   0  0  0  0  0  0  0  0  0  0  0  0
   31.4060   11.1750    7.4024 C   0  0  0  0  0  0  0  0  0  0  0  0
   30.4711   11.9616    8.1164 N   0  0  0  0  0  0  0  0  0  0  0  0
  1  2  3  0
  2  3  1  0
  3  4  2  0
  4  5  1  0
  5  6  2  0
  6  7  1  0
  6  8  1  0
  8  9  2  0
  9 10  1  0
  9  3  1  0
A    1
 C1 
A    2
 C2 
A    3
 C3 
A    4
 N1 
A    5
 C4 
A    6
 C5 
A    7
 F1 
A    8
 C6 
A    9
 C7 
A   10
 N2 
M  END
>  <ref_pdb>  (657) 
Ax0310a

>  <ref_mols>  (657) 
Ax0446a,Ax1080a,Ax0812a,Ax0719a,Ax1140a,Ax0528a,Ax0310a

>  <original SMILES>  (657) 
C#Cc1ncc(F)cc1N

>  <rationale>  (657) 
info info set:bb_densepocket2;hbond:S125; hydroph_interaction:V124; 

>  <experiment>  (657) 
bb_densepocket2

>  <cluster_label>  (657) 
3

>  <cluster_rank>  (657) 
314

>  <N_interactions>  (657) 
2

>  <∆∆G>  (657) 
-3.225921

>  <comRMSD>  (657) 
0.350618

>  <ROCS_TanimotoCombo>  (657) 
0.627

>  <ROCS_ShapeTanimoto>  (657) 
0.212

>  <ROCS_ColorTanimoto>  (657) 
0.415

$$$$
EN300_21047570
     RDKit          3D

 13 13  0  0  0  0  0  0  0  0999 V2000
   29.7376    7.0988    9.1561 C   0  0  0  0  0  0  0  0  0  0  0  0
   29.6217    8.1949    8.8126 C   0  0  0  0  0  0  0  0  0  0  0  0
   29.2041    9.4394    8.3792 C   0  0  0  0  0  0  0  0  0  0  0  0
   29.3130    8.6239   10.1209 C   0  0  0  0  0  0  0  0  0  0  0  0
   30.9650    8.5799    8.5296 O   0  0  0  0  0  0  0  0  0  0  0  0
   31.1466    9.8782    8.1541 C   0  0  0  0  0  0  0  0  0  0  0  0
   30.6863   10.9082    8.6181 O   0  0  0  0  0  0  0  0  0  0  0  0
   31.9765    9.9621    7.1225 N   0  0  0  0  0  0  0  0  0  0  0  0
   32.2420   11.1368    6.5701 C   0  0  0  0  0  0  0  0  0  0  0  0
   33.1161   10.8644    5.5656 C   0  0  0  0  0  0  0  0  0  0  0  0
   33.6620   11.7468    4.7300 F   0  0  0  0  0  0  0  0  0  0  0  0
   33.3177    9.4863    5.5861 C   0  0  0  0  0  0  0  0  0  0  0  0
   32.6095    8.9136    6.5501 N   0  0  0  0  0  0  0  0  0  0  0  0
  1  2  1  0
  2  3  1  0
  2  4  1  0
  2  5  1  0
  5  6  1  0
  6  7  2  0
  6  8  1  0
  8  9  1  0
  9 10  2  0
 10 11  1  0
 10 12  1  0
 12 13  2  0
 13  8  1  0
A    1
 C1 
A    2
 C2 
A    3
 C3 
A    4
 C4 
A    5
 O1 
A    6
 C5 
A    7
 O2 
A    8
 N1 
A    9
 C6 
A   10
 C7 
A   11
 F1 
A   12
 C8 
A   13
 N2 
M  END
>  <ref_pdb>  (658) 
Ax0310a

>  <ref_mols>  (658) 
Ax0446a,Ax1080a,Ax0812a,Ax0719a,Ax1140a,Ax0528a,Ax0310a

>  <original SMILES>  (658) 
CC(C)(C)OC(=O)n1cc(F)cn1

>  <rationale>  (658) 
info info set:bb_densepocket2;hydroph_interaction:V124+D109; 

>  <experiment>  (658) 
bb_densepocket2

>  <cluster_label>  (658) 
3

>  <cluster_rank>  (658) 
315

>  <N_interactions>  (658) 
3

>  <∆∆G>  (658) 
-3.193953

>  <comRMSD>  (658) 
0.542051

>  <ROCS_TanimotoCombo>  (658) 
0.616

>  <ROCS_ShapeTanimoto>  (658) 
0.203

>  <ROCS_ColorTanimoto>  (658) 
0.413

$$$$
Z3390324200
     RDKit          3D

 19 21  0  0  0  0  0  0  0  0999 V2000
   28.7930   14.3803    6.2769 C   0  0  0  0  0  0  0  0  0  0  0  0
   29.4875   13.0885    6.5001 C   0  0  0  0  0  0  0  0  0  0  0  0
   29.7228   12.7629    7.9145 C   0  0  0  0  0  0  0  0  0  0  0  0
   30.3395   11.5994    8.3504 N   0  0  0  0  0  0  0  0  0  0  0  0
   31.2019   10.9390    7.6159 C   0  0  0  0  0  0  0  0  0  0  0  0
   32.0562   11.8784    6.7492 C   0  0  0  0  0  0  0  0  0  0  0  0
   33.0334   11.0359    5.8982 C   0  0  0  0  0  0  0  0  0  0  0  0
   33.0469    9.5238    6.0009 C   0  0  0  0  0  0  0  0  0  0  0  0
   33.9366    8.8085    5.1844 N   0  0  0  0  0  0  0  0  0  0  0  0
   35.0843    9.2605    4.4081 C   0  0  0  0  0  0  0  0  0  0  0  0
   34.8049   10.0470    3.2957 C   0  0  0  0  0  0  0  0  0  0  0  0
   35.9065   10.0466    2.4302 C   0  0  0  0  0  0  0  0  0  0  0  0
   36.7081    8.8268    2.9201 C   0  0  0  0  0  0  0  0  0  0  0  0
   35.9267    8.1073    3.8298 C   0  0  0  0  0  0  0  0  0  0  0  0
   32.2189    8.8668    6.8466 N   0  0  0  0  0  0  0  0  0  0  0  0
   31.3455    9.5603    7.6021 C   0  0  0  0  0  0  0  0  0  0  0  0
   29.3162   13.6207    8.8709 N   0  0  0  0  0  0  0  0  0  0  0  0
   28.6976   14.7612    8.5149 C   0  0  0  0  0  0  0  0  0  0  0  0
   28.4164   15.1854    7.2761 N   0  0  0  0  0  0  0  0  0  0  0  0
  1  2  2  0
  2  3  1  0
  3  4  1  0
  4  5  1  0
  5  6  2  0
  6  7  1  0
  7  8  2  0
  8  9  1  0
  9 10  1  0
 10 11  1  0
 11 12  1  0
 12 13  1  0
 13 14  1  0
  8 15  1  0
 15 16  2  0
  3 17  2  0
 17 18  1  0
 18 19  2  0
 19  1  1  0
 16  5  1  0
 14 10  1  0
A    1
 C1 
A    2
 C2 
A    3
 C3 
A    4
 N1 
A    5
 C4 
A    6
 C5 
A    7
 C6 
A    8
 C7 
A    9
 N2 
A   10
 C8 
A   11
 C9 
A   12
 C10
A   13
 C11
A   14
 C12
A   15
 N3 
A   16
 C13
A   17
 N4 
A   18
 C14
A   19
 N5 
M  END
>  <ref_pdb>  (659) 
Ax0310a

>  <ref_mols>  (659) 
Ax0446a,Ax1080a,Ax0812a,Ax0719a,Ax1140a,Ax0528a,Ax0310a

>  <original SMILES>  (659) 
c1cc(Nc2ccc(NC3CCCC3)nc2)ncn1

>  <rationale>  (659) 
info info set:screening_pocket;hbond:S105+S125+G127; hydroph_interaction:P107; pistack:H21; 

>  <experiment>  (659) 
screening_pocket

>  <cluster_label>  (659) 
3

>  <cluster_rank>  (659) 
316

>  <N_interactions>  (659) 
5

>  <∆∆G>  (659) 
-5.302362

>  <comRMSD>  (659) 
0.390902

>  <ROCS_TanimotoCombo>  (659) 
0.635

>  <ROCS_ShapeTanimoto>  (659) 
0.237

>  <ROCS_ColorTanimoto>  (659) 
0.398

$$$$
Z999344170
     RDKit          3D

 16 17  0  0  0  0  0  0  0  0999 V2000
   28.5539   15.5979    6.9986 N   0  0  0  0  0  0  0  0  0  0  0  0
   29.0144   14.8350    7.6581 C   0  0  0  0  0  0  0  0  0  0  0  0
   29.5168   13.8632    8.5287 C   0  0  0  0  0  0  0  0  0  0  0  0
   30.4985   12.9564    7.8288 N   0  0  0  0  0  0  0  0  0  0  0  0
   30.5959   11.5834    7.9853 C   0  0  0  0  0  0  0  0  0  0  0  0
   29.9408   10.9166    8.7302 O   0  0  0  0  0  0  0  0  0  0  0  0
   31.5667   10.8447    7.1893 C   0  0  0  0  0  0  0  0  0  0  0  0
   32.4053   11.4555    6.2661 C   0  0  0  0  0  0  0  0  0  0  0  0
   33.2993   10.6714    5.5518 C   0  0  0  0  0  0  0  0  0  0  0  0
   33.3120    9.3134    5.7944 C   0  0  0  0  0  0  0  0  0  0  0  0
   32.5037    8.7064    6.6902 N   0  0  0  0  0  0  0  0  0  0  0  0
   31.6560    9.4700    7.3615 C   0  0  0  0  0  0  0  0  0  0  0  0
   30.9012    8.7356    8.2261 O   0  0  0  0  0  0  0  0  0  0  0  0
   28.2635   13.2462    9.1208 C   0  0  0  0  0  0  0  0  0  0  0  0
   28.3908   14.2159   10.2982 C   0  0  0  0  0  0  0  0  0  0  0  0
   29.8845   14.3792    9.9429 C   0  0  0  0  0  0  0  0  0  0  0  0
  1  2  3  0
  2  3  1  0
  3  4  1  0
  4  5  1  0
  5  6  2  0
  5  7  1  0
  7  8  2  0
  8  9  1  0
  9 10  2  0
 10 11  1  0
 11 12  2  0
 12 13  1  0
  3 14  1  0
 14 15  1  0
 15 16  1  0
 16  3  1  0
 12  7  1  0
A    1
 N1 
A    2
 C1 
A    3
 C2 
A    4
 N2 
A    5
 C3 
A    6
 O1 
A    7
 C4 
A    8
 C5 
A    9
 C6 
A   10
 C7 
A   11
 N3 
A   12
 C8 
A   13
 O2 
A   14
 C9 
A   15
 C10
A   16
 C11
M  END
>  <ref_pdb>  (660) 
Ax0310a

>  <ref_mols>  (660) 
Ax0446a,Ax1080a,Ax0812a,Ax0719a,Ax1140a,Ax0528a,Ax0310a

>  <original SMILES>  (660) 
N#CC1(NC(=O)c2cccnc2O)CCC1

>  <rationale>  (660) 
info info set:screening_pocket;hbond:S87; hydroph_interaction:P107+Y90; 

>  <experiment>  (660) 
screening_pocket

>  <cluster_label>  (660) 
3

>  <cluster_rank>  (660) 
317

>  <N_interactions>  (660) 
4

>  <∆∆G>  (660) 
-0.63775

>  <comRMSD>  (660) 
0.475889

>  <ROCS_TanimotoCombo>  (660) 
0.655

>  <ROCS_ShapeTanimoto>  (660) 
0.232

>  <ROCS_ColorTanimoto>  (660) 
0.423

$$$$
EN300_91969
     RDKit          3D

 19 19  0  0  0  0  0  0  0  0999 V2000
   41.8851   14.6313   13.5960 C   0  0  0  0  0  0  0  0  0  0  0  0
   42.1724   13.3588   12.8166 C   0  0  0  0  0  0  0  0  0  0  0  0
   43.2449   13.5393   11.7404 C   0  0  0  0  0  0  0  0  0  0  0  0
   42.5853   12.2410   13.7887 C   0  0  0  0  0  0  0  0  0  0  0  0
   40.9620   12.8905   12.2501 O   0  0  0  0  0  0  0  0  0  0  0  0
   39.8984   12.6904   13.0417 C   0  0  0  0  0  0  0  0  0  0  0  0
   39.9141   12.4783   14.2309 O   0  0  0  0  0  0  0  0  0  0  0  0
   38.8132   12.7681   12.2570 N   0  0  0  0  0  0  0  0  0  0  0  0
   37.5256   12.2146   12.6626 C   0  0  0  0  0  0  0  0  0  0  0  0
   37.1445   11.1022   11.7286 C   0  0  0  0  0  0  0  0  0  0  0  0
   37.1227   11.6075   10.3441 N   0  0  0  0  0  0  0  0  0  0  0  0
   36.1831   12.7405   10.2012 C   0  0  0  0  0  0  0  0  0  0  0  0
   36.2582   13.6097    8.9322 C   0  0  0  0  0  0  0  0  0  0  0  0
   34.5895   13.7732    8.2578 S   0  0  0  0  0  6  0  0  0  0  0  0
   34.1455   15.1403    9.0795 N   0  0  0  0  0  0  0  0  0  0  0  0
   34.6189   14.0848    6.8470 O   0  0  0  0  0  0  0  0  0  0  0  0
   33.6429   12.8009    8.7492 O   0  0  0  0  0  0  0  0  0  0  0  0
   38.4573   11.9383    9.9505 C   0  0  0  0  0  0  0  0  0  0  0  0
   39.0018   13.0535   10.8302 C   0  0  0  0  0  0  0  0  0  0  0  0
  1  2  1  0
  2  3  1  0
  2  4  1  0
  2  5  1  0
  5  6  1  0
  6  7  2  0
  6  8  1  0
  8  9  1  0
  9 10  1  0
 10 11  1  0
 11 12  1  0
 12 13  1  0
 13 14  1  0
 14 15  1  0
 14 16  2  0
 14 17  2  0
 11 18  1  0
 18 19  1  0
 19  8  1  0
A    1
 C1 
A    2
 C2 
A    3
 C3 
A    4
 C4 
A    5
 O1 
A    6
 C5 
A    7
 O2 
A    8
 N1 
A    9
 C6 
A   10
 C7 
A   11
 N2 
A   12
 C8 
A   13
 C9 
A   14
 S1 
A   15
 N3 
A   16
 O3 
A   17
 O4 
A   18
 C10
A   19
 C11
M  END
>  <ref_pdb>  (661) 
Ax0310a

>  <ref_mols>  (661) 
Ax0446a,Ax1080a,Ax0812a,Ax0719a,Ax1140a,Ax0528a,Ax0310a

>  <original SMILES>  (661) 
CC(C)(C)OC(=O)N1CCN(CCS(N)(=O)=O)CC1

>  <rationale>  (661) 
info info set:sulfonimide_joint;hbond:S87+G127; hydroph_interaction:L131; 

>  <experiment>  (661) 
sulfonimide_joint

>  <cluster_label>  (661) 
3

>  <cluster_rank>  (661) 
318

>  <N_interactions>  (661) 
3

>  <∆∆G>  (661) 
-4.758753

>  <comRMSD>  (661) 
0.786923

>  <ROCS_TanimotoCombo>  (661) 
0.331

>  <ROCS_ShapeTanimoto>  (661) 
0.194

>  <ROCS_ColorTanimoto>  (661) 
0.136

$$$$
Z729056160
     RDKit          3D

 19 21  0  0  0  0  0  0  0  0999 V2000
   34.8227    9.4137    4.3660 C   0  0  0  0  0  0  0  0  0  0  0  0
   34.2656    8.8470    5.4769 N   0  0  0  0  0  0  0  0  0  0  0  0
   33.1896    9.5176    6.0789 C   0  0  0  0  0  0  0  0  0  0  0  0
   33.0044   10.9721    5.7865 C   0  0  0  0  0  0  0  0  0  0  0  0
   31.9393   11.6390    6.3923 C   0  0  0  0  0  0  0  0  0  0  0  0
   31.0792   10.9526    7.2428 C   0  0  0  0  0  0  0  0  0  0  0  0
   30.0173   11.4599    7.8779 N   0  0  0  0  0  0  0  0  0  0  0  0
   29.3371   12.5922    7.6289 C   0  0  0  0  0  0  0  0  0  0  0  0
   28.2744   12.6532    6.8312 N   0  0  0  0  0  0  0  0  0  0  0  0
   27.6878   13.8410    6.7624 C   0  0  0  0  0  0  0  0  0  0  0  0
   28.0520   14.9399    7.4179 N   0  0  0  0  0  0  0  0  0  0  0  0
   29.1107   14.8491    8.1930 C   0  0  0  0  0  0  0  0  0  0  0  0
   29.5308   16.0876    8.9512 C   0  0  0  0  0  0  0  0  0  0  0  0
   30.8090   15.9317    9.8460 C   0  0  0  0  0  0  0  0  0  0  0  0
   31.5024   14.5946    9.8703 C   0  0  0  0  0  0  0  0  0  0  0  0
   30.8848   13.5352    9.0370 C   0  0  0  0  0  0  0  0  0  0  0  0
   29.8009   13.6796    8.3066 C   0  0  0  0  0  0  0  0  0  0  0  0
   31.3422    9.5982    7.4520 C   0  0  0  0  0  0  0  0  0  0  0  0
   32.3413    8.8793    6.9118 N   0  0  0  0  0  0  0  0  0  0  0  0
  1  2  1  0
  2  3  1  0
  3  4  2  0
  4  5  1  0
  5  6  2  0
  6  7  1  0
  7  8  1  0
  8  9  2  0
  9 10  1  0
 10 11  2  0
 11 12  1  0
 12 13  2  0
 13 14  1  0
 14 15  2  0
 15 16  1  0
 16 17  2  0
  6 18  1  0
 18 19  2  0
 19  3  1  0
 17  8  1  0
 17 12  1  0
A    1
 C1 
A    2
 N1 
A    3
 C2 
A    4
 C3 
A    5
 C4 
A    6
 C5 
A    7
 N2 
A    8
 C6 
A    9
 N3 
A   10
 C7 
A   11
 N4 
A   12
 C8 
A   13
 C9 
A   14
 C10
A   15
 C11
A   16
 C12
A   17
 C13
A   18
 C14
A   19
 N5 
M  END
>  <ref_pdb>  (662) 
Ax0310a

>  <ref_mols>  (662) 
Ax0446a,Ax1080a,Ax0812a,Ax0719a,Ax1140a,Ax0528a,Ax0310a

>  <original SMILES>  (662) 
CNc1ccc(Nc2ncnc3ccccc23)cn1

>  <rationale>  (662) 
info info set:screening_pocket;hbond:S105+S125; hydroph_interaction:P107+Y90+T126+V84; 

>  <experiment>  (662) 
screening_pocket

>  <cluster_label>  (662) 
3

>  <cluster_rank>  (662) 
319

>  <N_interactions>  (662) 
6

>  <∆∆G>  (662) 
-4.519895

>  <comRMSD>  (662) 
0.559844

>  <ROCS_TanimotoCombo>  (662) 
0.631

>  <ROCS_ShapeTanimoto>  (662) 
0.233

>  <ROCS_ColorTanimoto>  (662) 
0.398

$$$$
EN300_251782
     RDKit          3D

 11 12  0  0  0  0  0  0  0  0999 V2000
   29.3825   12.8633    8.6883 N   0  0  0  0  0  0  0  0  0  0  0  0
   30.7793   13.4014    7.9703 S   0  0  0  0  0  6  0  0  0  0  0  0
   31.3492   14.4152    8.8321 O   0  0  0  0  0  0  0  0  0  0  0  0
   30.3027   13.6168    6.6298 O   0  0  0  0  0  0  0  0  0  0  0  0
   31.8615   12.0159    7.8412 C   0  0  2  0  0  0  0  0  0  0  0  0
   32.7377   12.0982    6.6395 C   0  0  0  0  0  0  0  0  0  0  0  0
   32.4362   10.9615    5.9748 C   0  0  1  0  0  0  0  0  0  0  0  0
   32.5082    9.6280    6.4824 C   0  0  0  0  0  0  0  0  0  0  0  0
   31.5043    9.4655    7.5955 C   0  0  0  0  0  0  0  0  0  0  0  0
   30.9746   10.7947    7.6026 C   0  0  2  0  0  0  0  0  0  0  0  0
   31.0133   11.0305    6.1760 O   0  0  0  0  0  0  0  0  0  0  0  0
  1  2  1  0
  2  3  2  0
  2  4  2  0
  5  2  1  6
  5  6  1  0
  7  6  1  1
  7  8  1  0
  8  9  1  0
 10  9  1  6
 10 11  1  0
 10  5  1  0
 11  7  1  0
A    1
 N1 
A    2
 S1 
A    3
 O1 
A    4
 O2 
A    5
 C1 
A    6
 C2 
A    7
 C3 
A    8
 C4 
A    9
 C5 
A   10
 C6 
A   11
 O3 
M  END
>  <ref_pdb>  (663) 
Ax0310a

>  <ref_mols>  (663) 
Ax0446a,Ax1080a,Ax0812a,Ax0719a,Ax1140a,Ax0528a,Ax0310a

>  <original SMILES>  (663) 
NS(=O)(=O)[C@@H]1C[C@H]2CC[C@@H]1O2

>  <rationale>  (663) 
info info set:sulfonimide_whole;hbond:S87+S125; 

>  <experiment>  (663) 
sulfonimide_whole

>  <cluster_label>  (663) 
3

>  <cluster_rank>  (663) 
320

>  <N_interactions>  (663) 
2

>  <∆∆G>  (663) 
-0.431371

>  <comRMSD>  (663) 
0.622103

>  <ROCS_TanimotoCombo>  (663) 
0.39

>  <ROCS_ShapeTanimoto>  (663) 
0.177

>  <ROCS_ColorTanimoto>  (663) 
0.214

$$$$
EN300_396127
     RDKit          3D

 17 18  0  0  0  0  0  0  0  0999 V2000
   38.7053   12.4464   11.9295 N   0  0  0  0  0  0  0  0  0  0  0  0
   37.1697   12.0630   11.4232 S   0  0  0  0  0  6  0  0  0  0  0  0
   37.3084   10.7384   10.8698 O   0  0  0  0  0  0  0  0  0  0  0  0
   36.3783   12.2783   12.6139 O   0  0  0  0  0  0  0  0  0  0  0  0
   36.8408   13.2700   10.0857 C   0  0  1  0  0  0  0  0  0  0  0  0
   37.9410   13.0493    9.0179 C   0  0  0  0  0  0  0  0  0  0  0  0
   37.2161   13.5734    7.7799 C   0  0  0  0  0  0  0  0  0  0  0  0
   35.9419   14.4373    7.9647 C   0  0  0  0  0  0  0  0  0  0  0  0
   34.9791   13.6810    8.4209 N   0  0  0  0  0  0  0  0  0  0  0  0
   34.0371   13.1682    7.4918 C   0  0  0  0  0  0  0  0  0  0  0  0
   34.1897   13.3004    6.2798 O   0  0  0  0  0  0  0  0  0  0  0  0
   32.9148   12.5128    7.9697 N   0  0  0  0  0  0  0  0  0  0  0  0
   31.9924   11.7400    7.0652 C   0  0  0  0  0  0  0  0  0  0  0  0
   32.5534   10.3295    6.4899 C   0  0  0  0  0  0  0  0  0  0  0  0
   31.4675    9.8285    7.4743 C   0  0  0  0  0  0  0  0  0  0  0  0
   30.7803   11.0804    7.8368 C   0  0  0  0  0  0  0  0  0  0  0  0
   35.3782   13.2537    9.6496 C   0  0  0  0  0  0  0  0  0  0  0  0
  1  2  1  0
  2  3  2  0
  2  4  2  0
  5  2  1  1
  5  6  1  0
  6  7  1  0
  7  8  1  0
  8  9  1  0
  9 10  1  0
 10 11  2  0
 10 12  1  0
 12 13  1  0
 13 14  1  0
 14 15  1  0
 15 16  1  0
  9 17  1  0
 17  5  1  0
 16 13  1  0
A    1
 N1 
A    2
 S1 
A    3
 O1 
A    4
 O2 
A    5
 C1 
A    6
 C2 
A    7
 C3 
A    8
 C4 
A    9
 N2 
A   10
 C5 
A   11
 O3 
A   12
 N3 
A   13
 C6 
A   14
 C7 
A   15
 C8 
A   16
 C9 
A   17
 C10
M  END
>  <ref_pdb>  (664) 
Ax0310a

>  <ref_mols>  (664) 
Ax0446a,Ax1080a,Ax0812a,Ax0719a,Ax1140a,Ax0528a,Ax0310a

>  <original SMILES>  (664) 
NS(=O)(=O)[C@H]1CCCN(C(=O)NC2CCC2)C1

>  <rationale>  (664) 
info info set:sulfonimide_whole;hbond:G127+T126; hydroph_interaction:E85; 

>  <experiment>  (664) 
sulfonimide_whole

>  <cluster_label>  (664) 
3

>  <cluster_rank>  (664) 
321

>  <N_interactions>  (664) 
3

>  <∆∆G>  (664) 
-1.441292

>  <comRMSD>  (664) 
0.609105

>  <ROCS_TanimotoCombo>  (664) 
0.346

>  <ROCS_ShapeTanimoto>  (664) 
0.219

>  <ROCS_ColorTanimoto>  (664) 
0.127

$$$$
EN300_7064089
     RDKit          3D

 16 16  0  0  0  0  0  0  0  0999 V2000
   29.8674    8.5724    8.3560 C   0  0  0  0  0  0  0  0  0  0  0  0
   31.3182    8.9175    8.1394 C   0  0  0  0  0  0  0  0  0  0  0  0
   31.7775    9.8479    7.0083 C   0  0  2  0  0  0  0  0  0  0  0  0
   32.9877    9.2222    6.5976 O   0  0  0  0  0  0  0  0  0  0  0  0
   33.6743    9.6841    5.4547 C   0  0  0  0  0  0  0  0  0  0  0  0
   33.4171   11.1634    5.0885 C   0  0  0  0  0  0  0  0  0  0  0  0
   32.8469   12.0463    6.2201 C   0  0  0  0  0  0  0  0  0  0  0  0
   31.9324   11.3894    7.2466 C   0  0  1  0  0  0  0  0  0  0  0  0
   30.6772   12.1320    7.2900 N   0  0  0  0  0  0  0  0  0  0  0  0
   29.9049   11.8421    8.3322 C   0  0  0  0  0  0  0  0  0  0  0  0
   30.1273   10.7987    8.9064 O   0  0  0  0  0  0  0  0  0  0  0  0
   28.9281   12.7982    8.5790 O   0  0  0  0  0  0  0  0  0  0  0  0
   29.0184   14.0003    9.4387 C   0  0  0  0  0  0  0  0  0  0  0  0
   28.1257   13.9630   10.6897 C   0  0  0  0  0  0  0  0  0  0  0  0
   30.4550   14.4037    9.7896 C   0  0  0  0  0  0  0  0  0  0  0  0
   28.3832   15.0938    8.5662 C   0  0  0  0  0  0  0  0  0  0  0  0
  1  2  2  0
  3  2  1  1
  3  4  1  0
  4  5  1  0
  5  6  1  0
  6  7  1  0
  7  8  1  0
  8  9  1  6
  9 10  1  0
 10 11  2  0
 10 12  1  0
 12 13  1  0
 13 14  1  0
 13 15  1  0
 13 16  1  0
  8  3  1  0
A    1
 C1 
A    2
 C2 
A    3
 C3 
A    4
 O1 
A    5
 C4 
A    6
 C5 
A    7
 C6 
A    8
 C7 
A    9
 N1 
A   10
 C8 
A   11
 O2 
A   12
 O3 
A   13
 C9 
A   14
 C10
A   15
 C11
A   16
 C12
M  END
>  <ref_pdb>  (665) 
Ax0310a

>  <ref_mols>  (665) 
Ax0446a,Ax1080a,Ax0812a,Ax0719a,Ax1140a,Ax0528a,Ax0310a

>  <original SMILES>  (665) 
C=C[C@@H]1OCCC[C@H]1NC(=O)OC(C)(C)C

>  <rationale>  (665) 
info info set:bb_densepocket2;hydroph_interaction:P107+Y90+V124; 

>  <experiment>  (665) 
bb_densepocket2

>  <cluster_label>  (665) 
3

>  <cluster_rank>  (665) 
322

>  <N_interactions>  (665) 
4

>  <∆∆G>  (665) 
-1.299688

>  <comRMSD>  (665) 
0.977015

>  <ROCS_TanimotoCombo>  (665) 
0.623

>  <ROCS_ShapeTanimoto>  (665) 
0.211

>  <ROCS_ColorTanimoto>  (665) 
0.412

$$$$
Z1258850794
     RDKit          3D

 15 15  0  0  0  0  0  0  0  0999 V2000
   32.0273   13.5851    4.1408 C   0  0  0  0  0  0  0  0  0  0  0  0
   33.0456   12.8233    4.9972 C   0  0  0  0  0  0  0  0  0  0  0  0
   34.0307   12.0062    4.1890 C   0  0  0  0  0  0  0  0  0  0  0  0
   33.7727   13.8416    5.8747 C   0  0  0  0  0  0  0  0  0  0  0  0
   32.3302   11.8523    5.9316 C   0  0  0  0  0  0  0  0  0  0  0  0
   31.2275   12.2782    6.5339 N   0  0  0  0  0  0  0  0  0  0  0  0
   30.5654   11.3946    7.4091 C   0  0  0  0  0  0  0  0  0  0  0  0
   29.3538   12.0490    7.9915 C   0  0  0  0  0  0  0  0  0  0  0  0
   28.6593   10.8921    8.6587 C   0  0  0  0  0  0  0  0  0  0  0  0
   28.4491   12.6190    6.9125 C   0  0  0  0  0  0  0  0  0  0  0  0
   29.7874   13.1439    8.8778 N   0  0  0  0  0  0  0  0  0  0  0  0
   30.9053   10.1788    7.6833 N   0  0  0  0  0  0  0  0  0  0  0  0
   31.9886    9.6276    7.0629 C   0  0  0  0  0  0  0  0  0  0  0  0
   32.2558    8.4407    7.2013 O   0  0  0  0  0  0  0  0  0  0  0  0
   32.8555   10.4733    6.1626 C   0  0  0  0  0  0  0  0  0  0  0  0
  1  2  1  0
  2  3  1  0
  2  4  1  0
  2  5  1  0
  5  6  2  0
  6  7  1  0
  7  8  1  0
  8  9  1  0
  8 10  1  0
  8 11  1  0
  7 12  2  0
 12 13  1  0
 13 14  2  0
 13 15  1  0
 15  5  1  0
A    1
 C1 
A    2
 C2 
A    3
 C3 
A    4
 C4 
A    5
 C5 
A    6
 N1 
A    7
 C6 
A    8
 C7 
A    9
 C8 
A   10
 C9 
A   11
 N2 
A   12
 N3 
A   13
 C10
A   14
 O1 
A   15
 C11
M  END
>  <ref_pdb>  (666) 
Ax0310a

>  <ref_mols>  (666) 
Ax0446a,Ax1080a,Ax0812a,Ax0719a,Ax1140a,Ax0528a,Ax0310a

>  <original SMILES>  (666) 
CC(C)(C)C1=NC(C(C)(C)N)=NC(=O)C1

>  <rationale>  (666) 
info info set:3d;hbond:S125; hydroph_interaction:P107; 

>  <experiment>  (666) 
3d

>  <cluster_label>  (666) 
3

>  <cluster_rank>  (666) 
323

>  <N_interactions>  (666) 
4

>  <∆∆G>  (666) 
-8.089173

>  <comRMSD>  (666) 
0.623761

>  <ROCS_TanimotoCombo>  (666) 
0.308

>  <ROCS_ShapeTanimoto>  (666) 
0.186

>  <ROCS_ColorTanimoto>  (666) 
0.122

$$$$
EN300_2100945
     RDKit          3D

 12 12  0  0  0  0  0  0  0  0999 V2000
   34.9961    9.3658    3.9322 C   0  0  0  0  0  0  0  0  0  0  0  0
   34.5805    8.7360    5.1680 N   0  0  0  0  0  0  0  0  0  0  0  0
   33.5651    9.5127    5.8691 C   0  0  0  0  0  0  0  0  0  0  0  0
   33.5765   10.8544    5.7967 N   0  0  0  0  0  0  0  0  0  0  0  0
   32.6290   11.4846    6.4917 C   0  0  0  0  0  0  0  0  0  0  0  0
   31.6305   10.7034    7.2912 C   0  0  0  0  0  0  0  0  0  0  0  0
   30.5423   11.3258    8.1015 C   0  0  0  0  0  0  0  0  0  0  0  0
   30.1001   12.5944    7.8847 N   0  0  0  0  0  0  0  0  0  0  0  0
   30.0763   10.6066    8.9312 O   0  0  0  0  0  0  0  0  0  0  0  0
   31.7314    9.3622    7.2733 C   0  0  0  0  0  0  0  0  0  0  0  0
   30.8270    8.5778    8.0119 N   0  0  0  0  0  0  0  0  0  0  0  0
   32.6863    8.7700    6.5657 N   0  0  0  0  0  0  0  0  0  0  0  0
  1  2  1  0
  2  3  1  0
  3  4  2  0
  4  5  1  0
  5  6  2  0
  6  7  1  0
  7  8  1  0
  7  9  2  0
  6 10  1  0
 10 11  1  0
 10 12  2  0
 12  3  1  0
A    1
 C1 
A    2
 N1 
A    3
 C2 
A    4
 N2 
A    5
 C3 
A    6
 C4 
A    7
 C5 
A    8
 N3 
A    9
 O1 
A   10
 C6 
A   11
 N4 
A   12
 N5 
M  END
>  <ref_pdb>  (667) 
Ax0310a

>  <ref_mols>  (667) 
Ax0446a,Ax1080a,Ax0812a,Ax0719a,Ax1140a,Ax0528a,Ax0310a

>  <original SMILES>  (667) 
CNc1ncc(C(N)=O)c(N)n1

>  <rationale>  (667) 
info info set:bb_densepocket2;hbond:S105+S125+G127; 

>  <experiment>  (667) 
bb_densepocket2

>  <cluster_label>  (667) 
3

>  <cluster_rank>  (667) 
324

>  <N_interactions>  (667) 
4

>  <∆∆G>  (667) 
-1.98518

>  <comRMSD>  (667) 
0.725587

>  <ROCS_TanimotoCombo>  (667) 
0.635

>  <ROCS_ShapeTanimoto>  (667) 
0.225

>  <ROCS_ColorTanimoto>  (667) 
0.41

$$$$
EN300_2073655
     RDKit          3D

 10 10  0  0  0  0  0  0  0  0999 V2000
   29.7858    8.1272    8.6284 C   0  0  0  0  0  0  0  0  0  0  0  0
   30.2967    9.5389    8.6927 C   0  0  0  0  0  0  0  0  0  0  0  0
   31.3512    9.8030    7.6338 C   0  0  0  0  0  0  0  0  0  0  0  0
   32.1091    8.8339    7.0839 N   0  0  0  0  0  0  0  0  0  0  0  0
   33.0073    9.2965    6.1702 C   0  0  0  0  0  0  0  0  0  0  0  0
   33.1561   10.7394    5.8030 C   0  0  0  0  0  0  0  0  0  0  0  0
   34.3171   11.2605    4.6553 Cl  0  0  0  0  0  0  0  0  0  0  0  0
   32.2215   11.7585    6.4968 C   0  0  0  0  0  0  0  0  0  0  0  0
   31.3106   11.2765    7.4185 C   0  0  0  0  0  0  0  0  0  0  0  0
   30.4310   12.1515    8.0792 N   0  0  0  0  0  0  0  0  0  0  0  0
  1  2  3  0
  2  3  1  0
  3  4  2  0
  4  5  1  0
  5  6  2  0
  6  7  1  0
  6  8  1  0
  8  9  2  0
  9 10  1  0
  9  3  1  0
A    1
 C1 
A    2
 C2 
A    3
 C3 
A    4
 N1 
A    5
 C4 
A    6
 C5 
A    7
CL1 
A    8
 C6 
A    9
 C7 
A   10
 N2 
M  END
>  <ref_pdb>  (668) 
Ax0310a

>  <ref_mols>  (668) 
Ax0446a,Ax1080a,Ax0812a,Ax0719a,Ax1140a,Ax0528a,Ax0310a

>  <original SMILES>  (668) 
C#Cc1ncc(Cl)cc1N

>  <rationale>  (668) 
info info set:bb_densepocket2;hbond:S125; hydroph_interaction:V124; 

>  <experiment>  (668) 
bb_densepocket2

>  <cluster_label>  (668) 
3

>  <cluster_rank>  (668) 
325

>  <N_interactions>  (668) 
2

>  <∆∆G>  (668) 
-3.598741

>  <comRMSD>  (668) 
0.439073

>  <ROCS_TanimotoCombo>  (668) 
0.624

>  <ROCS_ShapeTanimoto>  (668) 
0.21

>  <ROCS_ColorTanimoto>  (668) 
0.415

$$$$
EN300_801599
     RDKit          3D

 16 17  0  0  0  0  0  0  0  0999 V2000
   30.6720    7.6053    8.4567 C   0  0  0  0  0  0  0  0  0  0  0  0
   30.2055    8.8968    8.2793 C   0  0  0  0  0  0  0  0  0  0  0  0
   30.2175    9.3120    9.5561 C   0  0  0  0  0  0  0  0  0  0  0  0
   28.7522    8.9710    8.2789 C   0  0  0  0  0  0  0  0  0  0  0  0
   31.1660    9.7634    7.4866 C   0  0  0  0  0  0  0  0  0  0  0  0
   32.2143    9.0113    6.7509 N   0  0  0  0  0  0  0  0  0  0  0  0
   33.1539    9.7424    5.9604 C   0  0  0  0  0  0  0  0  0  0  0  0
   34.2827    9.0804    5.1221 C   0  0  0  0  0  0  0  0  0  0  0  0
   35.2542    9.9151    4.2989 C   0  0  0  0  0  0  0  0  0  0  0  0
   35.0201   11.4243    4.3792 C   0  0  0  0  0  0  0  0  0  0  0  0
   33.9985   11.9761    5.1388 C   0  0  0  0  0  0  0  0  0  0  0  0
   33.0984   11.2284    5.8936 C   0  0  0  0  0  0  0  0  0  0  0  0
   31.9860   11.8991    6.7067 C   0  0  0  0  0  0  0  0  0  0  0  0
   31.0663   11.1641    7.4653 C   0  0  0  0  0  0  0  0  0  0  0  0
   30.0499   11.8569    8.1910 N   0  0  0  0  0  0  0  0  0  0  0  0
   29.9563   13.2507    8.0009 N   0  0  0  0  0  0  0  0  0  0  0  0
  1  2  1  0
  2  3  1  0
  2  4  1  0
  2  5  1  0
  5  6  2  0
  6  7  1  0
  7  8  2  0
  8  9  1  0
  9 10  2  0
 10 11  1  0
 11 12  2  0
 12 13  1  0
 13 14  2  0
 14 15  1  0
 15 16  1  0
 14  5  1  0
 12  7  1  0
A    1
 C1 
A    2
 C2 
A    3
 C3 
A    4
 C4 
A    5
 C5 
A    6
 N1 
A    7
 C6 
A    8
 C7 
A    9
 C8 
A   10
 C9 
A   11
 C10
A   12
 C11
A   13
 C12
A   14
 C13
A   15
 N2 
A   16
 N3 
M  END
>  <ref_pdb>  (669) 
Ax0310a

>  <ref_mols>  (669) 
Ax0446a,Ax1080a,Ax0812a,Ax0719a,Ax1140a,Ax0528a,Ax0310a

>  <original SMILES>  (669) 
CC(C)(C)c1nc2ccccc2cc1NN

>  <rationale>  (669) 
info info set:bb_densepocket2;hbond:S87+S125; 

>  <experiment>  (669) 
bb_densepocket2

>  <cluster_label>  (669) 
3

>  <cluster_rank>  (669) 
326

>  <N_interactions>  (669) 
3

>  <∆∆G>  (669) 
-5.469377

>  <comRMSD>  (669) 
0.586991

>  <ROCS_TanimotoCombo>  (669) 
0.618

>  <ROCS_ShapeTanimoto>  (669) 
0.282

>  <ROCS_ColorTanimoto>  (669) 
0.336

$$$$
Z1981006209
     RDKit          3D

 18 19  0  0  0  0  0  0  0  0999 V2000
   28.4875   13.0411    7.2451 C   0  0  0  0  0  0  0  0  0  0  0  0
   29.4708   12.5972    8.3111 C   0  0  0  0  0  0  0  0  0  0  0  0
   30.8550   12.5227    7.8676 N   0  0  0  0  0  0  0  0  0  0  0  0
   31.8093   13.5178    8.3633 C   0  0  0  0  0  0  0  0  0  0  0  0
   31.6492   14.3011    9.2975 O   0  0  0  0  0  0  0  0  0  0  0  0
   33.1340   13.5774    7.5900 C   0  0  0  0  0  0  0  0  0  0  0  0
   34.3107   13.6525    8.3859 C   0  0  0  0  0  0  0  0  0  0  0  0
   35.5870   13.7456    7.8722 C   0  0  0  0  0  0  0  0  0  0  0  0
   35.6682   13.7450    6.4440 C   0  0  0  0  0  0  0  0  0  0  0  0
   34.6117   13.6680    5.5990 N   0  0  0  0  0  0  0  0  0  0  0  0
   33.2914   13.5848    6.2221 C   0  0  0  0  0  0  0  0  0  0  0  0
   31.4379   11.3057    7.3469 C   0  0  0  0  0  0  0  0  0  0  0  0
   32.3579   11.4674    6.1835 C   0  0  0  0  0  0  0  0  0  0  0  0
   32.9765   10.3835    5.6405 C   0  0  0  0  0  0  0  0  0  0  0  0
   32.7404    9.1643    6.1852 C   0  0  0  0  0  0  0  0  0  0  0  0
   31.9265    8.9127    7.2120 N   0  0  0  0  0  0  0  0  0  0  0  0
   31.2814    9.9569    7.7761 C   0  0  0  0  0  0  0  0  0  0  0  0
   30.4820    9.4950    8.7891 C   0  0  0  0  0  0  0  0  0  0  0  0
  1  2  1  0
  2  3  1  0
  3  4  1  0
  4  5  2  0
  4  6  1  0
  6  7  2  0
  7  8  1  0
  8  9  2  0
  9 10  1  0
 10 11  2  0
  3 12  1  0
 12 13  2  0
 13 14  1  0
 14 15  2  0
 15 16  1  0
 16 17  2  0
 17 18  1  0
 11  6  1  0
 17 12  1  0
A    1
 C1 
A    2
 C2 
A    3
 N1 
A    4
 C3 
A    5
 O1 
A    6
 C4 
A    7
 C5 
A    8
 C6 
A    9
 C7 
A   10
 N2 
A   11
 C8 
A   12
 C9 
A   13
 C10
A   14
 C11
A   15
 C12
A   16
 N3 
A   17
 C13
A   18
 C14
M  END
>  <ref_pdb>  (670) 
Ax0310a

>  <ref_mols>  (670) 
Ax0446a,Ax1080a,Ax0812a,Ax0719a,Ax1140a,Ax0528a,Ax0310a

>  <original SMILES>  (670) 
CCN(C(=O)c1cccnc1)c1cccnc1C

>  <rationale>  (670) 
info info set:3d;hbond:S87; hydroph_interaction:P107+V84; 

>  <experiment>  (670) 
3d

>  <cluster_label>  (670) 
3

>  <cluster_rank>  (670) 
327

>  <N_interactions>  (670) 
3

>  <∆∆G>  (670) 
-7.458446

>  <comRMSD>  (670) 
0.881929

>  <ROCS_TanimotoCombo>  (670) 
0.324

>  <ROCS_ShapeTanimoto>  (670) 
0.204

>  <ROCS_ColorTanimoto>  (670) 
0.12

$$$$
EN300_1988484
     RDKit          3D

 14 15  0  0  0  0  0  0  0  0999 V2000
   29.1965   12.5492    8.4982 N   0  0  0  0  0  0  0  0  0  0  0  0
   30.6143   12.9155    7.7100 S   0  0  0  0  0  6  0  0  0  0  0  0
   31.4288   13.6672    8.6375 O   0  0  0  0  0  0  0  0  0  0  0  0
   30.1592   13.4272    6.4435 O   0  0  0  0  0  0  0  0  0  0  0  0
   31.3201   11.3172    7.4145 C   0  0  0  0  0  0  0  0  0  0  0  0
   30.6663   10.2119    8.1651 C   0  0  0  0  0  0  0  0  0  0  0  0
   31.3379    8.9412    7.8075 C   0  0  0  0  0  0  0  0  0  0  0  0
   32.3592    8.7684    6.9631 N   0  0  0  0  0  0  0  0  0  0  0  0
   32.9000    9.8267    6.3314 C   0  0  0  0  0  0  0  0  0  0  0  0
   34.0551    9.5836    5.3982 C   0  0  0  0  0  0  0  0  0  0  0  0
   34.6579   10.7224    4.7096 C   0  0  0  0  0  0  0  0  0  0  0  0
   34.0268   12.1135    5.0128 C   0  0  0  0  0  0  0  0  0  0  0  0
   32.9478   12.3279    5.8819 C   0  0  0  0  0  0  0  0  0  0  0  0
   32.4105   11.1711    6.5218 C   0  0  0  0  0  0  0  0  0  0  0  0
  1  2  1  0
  2  3  2  0
  2  4  2  0
  2  5  1  0
  5  6  2  0
  6  7  1  0
  7  8  2  0
  8  9  1  0
  9 10  2  0
 10 11  1  0
 11 12  2  0
 12 13  1  0
 13 14  2  0
 14  5  1  0
 14  9  1  0
A    1
 N1 
A    2
 S1 
A    3
 O1 
A    4
 O2 
A    5
 C1 
A    6
 C2 
A    7
 C3 
A    8
 N2 
A    9
 C4 
A   10
 C5 
A   11
 C6 
A   12
 C7 
A   13
 C8 
A   14
 C9 
M  END
>  <ref_pdb>  (671) 
Ax0310a

>  <ref_mols>  (671) 
Ax0446a,Ax1080a,Ax0812a,Ax0719a,Ax1140a,Ax0528a,Ax0310a

>  <original SMILES>  (671) 
NS(=O)(=O)c1ccnc2ccccc12

>  <rationale>  (671) 
info info set:sulfonimide_whole;hbond:S87+S125; 

>  <experiment>  (671) 
sulfonimide_whole

>  <cluster_label>  (671) 
3

>  <cluster_rank>  (671) 
328

>  <N_interactions>  (671) 
2

>  <∆∆G>  (671) 
-6.373535

>  <comRMSD>  (671) 
0.461563

>  <ROCS_TanimotoCombo>  (671) 
0.343

>  <ROCS_ShapeTanimoto>  (671) 
0.207

>  <ROCS_ColorTanimoto>  (671) 
0.137

$$$$
Z27725043
     RDKit          3D

 19 20  0  0  0  0  0  0  0  0999 V2000
   29.6550    8.4675    8.6130 C   0  0  0  0  0  0  0  0  0  0  0  0
   31.3722    8.2373    8.4238 S   0  0  0  0  0  0  0  0  0  0  0  0
   31.9706    9.3877    7.2243 C   0  0  0  0  0  0  0  0  0  0  0  0
   32.8920    8.8306    6.4244 N   0  0  0  0  0  0  0  0  0  0  0  0
   33.4678    9.5639    5.4641 C   0  0  0  0  0  0  0  0  0  0  0  0
   33.1698   11.0556    5.1741 C   0  0  0  0  0  0  0  0  0  0  0  0
   32.1019   11.6920    6.1110 C   0  0  0  0  0  0  0  0  0  0  0  0
   31.5584   10.6929    7.1367 C   0  0  0  0  0  0  0  0  0  0  0  0
   30.5567   11.3835    7.9729 C   0  0  0  0  0  0  0  0  0  0  0  0
   30.1477   10.6960    8.8704 O   0  0  0  0  0  0  0  0  0  0  0  0
   30.1007   12.6578    7.7407 N   0  0  0  0  0  0  0  0  0  0  0  0
   29.0656   13.2001    8.5736 C   0  0  0  0  0  0  0  0  0  0  0  0
   29.6758   14.1721    9.5362 C   0  0  0  0  0  0  0  0  0  0  0  0
   31.0628   14.6235    9.1380 C   0  0  0  0  0  0  0  0  0  0  0  0
   31.7664   15.5644    9.8821 C   0  0  0  0  0  0  0  0  0  0  0  0
   31.2145   16.1249   11.0525 C   0  0  0  0  0  0  0  0  0  0  0  0
   32.1018   17.3102   11.9117 Cl  0  0  0  0  0  0  0  0  0  0  0  0
   29.8467   15.6833   11.5353 C   0  0  0  0  0  0  0  0  0  0  0  0
   29.0800   14.6499   10.6824 C   0  0  0  0  0  0  0  0  0  0  0  0
  1  2  1  0
  2  3  1  0
  3  4  2  0
  4  5  1  0
  5  6  2  0
  6  7  1  0
  7  8  2  0
  8  9  1  0
  9 10  2  0
  9 11  1  0
 11 12  1  0
 12 13  1  0
 13 14  2  0
 14 15  1  0
 15 16  2  0
 16 17  1  0
 16 18  1  0
 18 19  2  0
  8  3  1  0
 19 13  1  0
A    1
 C1 
A    2
 S1 
A    3
 C2 
A    4
 N1 
A    5
 C3 
A    6
 C4 
A    7
 C5 
A    8
 C6 
A    9
 C7 
A   10
 O1 
A   11
 N2 
A   12
 C8 
A   13
 C9 
A   14
 C10
A   15
 C11
A   16
 C12
A   17
CL1 
A   18
 C13
A   19
 C14
M  END
>  <ref_pdb>  (672) 
Ax0310a

>  <ref_mols>  (672) 
Ax0446a,Ax1080a,Ax0812a,Ax0719a,Ax1140a,Ax0528a,Ax0310a

>  <original SMILES>  (672) 
CSc1ncccc1C(=O)NCc1ccc(Cl)cc1

>  <rationale>  (672) 
info info set:screening_pocket;hbond:S87; hydroph_interaction:P107+Y90+V84; 

>  <experiment>  (672) 
screening_pocket

>  <cluster_label>  (672) 
3

>  <cluster_rank>  (672) 
329

>  <N_interactions>  (672) 
5

>  <∆∆G>  (672) 
-6.342391

>  <comRMSD>  (672) 
0.66218

>  <ROCS_TanimotoCombo>  (672) 
0.636

>  <ROCS_ShapeTanimoto>  (672) 
0.216

>  <ROCS_ColorTanimoto>  (672) 
0.42

$$$$
EN300_230739
     RDKit          3D

 22 24  0  0  0  0  0  0  0  0999 V2000
   25.4328   12.2830    6.5702 C   0  0  0  0  0  0  0  0  0  0  0  0
   26.9085   12.4283    6.3582 C   0  0  0  0  0  0  0  0  0  0  0  0
   27.6925   13.1938    7.2158 C   0  0  0  0  0  0  0  0  0  0  0  0
   29.0581   13.0810    6.8900 C   0  0  0  0  0  0  0  0  0  0  0  0
   30.0090   13.5941    7.8485 N   0  0  0  0  0  0  0  0  0  0  0  0
   29.9101   14.7260    8.5394 C   0  0  0  0  0  0  0  0  0  0  0  0
   28.6082   15.8023    8.4043 S   0  0  0  0  0  0  0  0  0  0  0  0
   30.9700   14.8632    9.3074 N   0  0  0  0  0  0  0  0  0  0  0  0
   31.7695   13.7642    9.0794 N   0  0  0  0  0  0  0  0  0  0  0  0
   31.1662   12.9882    8.1914 C   0  0  0  0  0  0  0  0  0  0  0  0
   31.6502   11.6363    7.6457 C   0  0  0  0  0  0  0  0  0  0  0  0
   30.8473   10.5144    8.1496 C   0  0  0  0  0  0  0  0  0  0  0  0
   31.2825    9.1452    7.6677 C   0  0  0  0  0  0  0  0  0  0  0  0
   30.1858    8.3620    8.4651 C   0  0  0  0  0  0  0  0  0  0  0  0
   32.2809    8.8379    6.8458 N   0  0  0  0  0  0  0  0  0  0  0  0
   32.9490    9.9742    6.4366 C   0  0  0  0  0  0  0  0  0  0  0  0
   32.7223   11.3428    6.7729 C   0  0  0  0  0  0  0  0  0  0  0  0
   33.7388   12.0454    6.0692 C   0  0  0  0  0  0  0  0  0  0  0  0
   34.0201   13.4954    6.0476 C   0  0  0  0  0  0  0  0  0  0  0  0
   34.5147   11.2334    5.3517 N   0  0  0  0  0  0  0  0  0  0  0  0
   34.0228   10.0065    5.5873 N   0  0  0  0  0  0  0  0  0  0  0  0
   34.6671    8.9057    4.9426 C   0  0  0  0  0  0  0  0  0  0  0  0
  1  2  1  0
  2  3  1  0
  3  4  1  0
  4  5  1  0
  5  6  1  0
  6  7  1  0
  6  8  2  0
  8  9  1  0
  9 10  2  0
 10 11  1  0
 11 12  2  0
 12 13  1  0
 13 14  1  0
 13 15  2  0
 15 16  1  0
 16 17  2  0
 17 18  1  0
 18 19  1  0
 18 20  2  0
 20 21  1  0
 21 22  1  0
 10  5  1  0
 17 11  1  0
 21 16  1  0
A    1
 C1 
A    2
 C2 
A    3
 C3 
A    4
 C4 
A    5
 N1 
A    6
 C5 
A    7
 S1 
A    8
 N2 
A    9
 N3 
A   10
 C6 
A   11
 C7 
A   12
 C8 
A   13
 C9 
A   14
 C10
A   15
 N4 
A   16
 C11
A   17
 C12
A   18
 C13
A   19
 C14
A   20
 N5 
A   21
 N6 
A   22
 C15
M  END
>  <ref_pdb>  (673) 
Ax0310a

>  <ref_mols>  (673) 
Ax0446a,Ax1080a,Ax0812a,Ax0719a,Ax1140a,Ax0528a,Ax0310a

>  <original SMILES>  (673) 
CCCCn1c(S)nnc1-c1cc(C)nc2c1c(C)nn2C

>  <rationale>  (673) 
info info set:bb_whole;hbond:S87; hydroph_interaction:P107+V124; 

>  <experiment>  (673) 
bb_whole

>  <cluster_label>  (673) 
3

>  <cluster_rank>  (673) 
330

>  <N_interactions>  (673) 
3

>  <∆∆G>  (673) 
-10.993285

>  <comRMSD>  (673) 
0.574252

>  <ROCS_TanimotoCombo>  (673) 
0.43

>  <ROCS_ShapeTanimoto>  (673) 
0.263

>  <ROCS_ColorTanimoto>  (673) 
0.167

$$$$
Z2979016735
     RDKit          3D

 19 21  0  0  0  0  0  0  0  0999 V2000
   33.1910   13.4465    6.4077 C   0  0  0  0  0  0  0  0  0  0  0  0
   31.9430   12.6887    6.3733 N   0  0  0  0  0  0  0  0  0  0  0  0
   30.8407   13.0876    7.2480 C   0  0  0  0  0  0  0  0  0  0  0  0
   29.4978   13.2658    6.5376 C   0  0  0  0  0  0  0  0  0  0  0  0
   28.7510   14.0640    7.4441 N   0  0  0  0  0  0  0  0  0  0  0  0
   27.8026   13.6788    8.3164 C   0  0  0  0  0  0  0  0  0  0  0  0
   27.4479   14.8198    8.9803 C   0  0  0  0  0  0  0  0  0  0  0  0
   28.2317   15.7956    8.4146 C   0  0  0  0  0  0  0  0  0  0  0  0
   29.0052   15.3498    7.4845 N   0  0  0  0  0  0  0  0  0  0  0  0
   32.1383   11.3356    6.5040 C   0  0  0  0  0  0  0  0  0  0  0  0
   31.3451   10.6485    7.3687 N   0  0  0  0  0  0  0  0  0  0  0  0
   31.5068    9.3358    7.5119 C   0  0  0  0  0  0  0  0  0  0  0  0
   30.6808    8.6823    8.4170 N   0  0  0  0  0  0  0  0  0  0  0  0
   32.3976    8.6052    6.8666 N   0  0  0  0  0  0  0  0  0  0  0  0
   33.1653    9.3111    6.0249 C   0  0  0  0  0  0  0  0  0  0  0  0
   34.1510    8.7914    5.2509 N   0  0  0  0  0  0  0  0  0  0  0  0
   34.7485    9.7799    4.5134 C   0  0  0  0  0  0  0  0  0  0  0  0
   34.1126   10.9551    4.8326 C   0  0  0  0  0  0  0  0  0  0  0  0
   33.1070   10.6531    5.7907 C   0  0  0  0  0  0  0  0  0  0  0  0
  1  2  1  0
  2  3  1  0
  3  4  1  0
  4  5  1  0
  5  6  1  0
  6  7  2  0
  7  8  1  0
  8  9  2  0
  2 10  1  0
 10 11  2  0
 11 12  1  0
 12 13  1  0
 12 14  2  0
 14 15  1  0
 15 16  1  0
 16 17  1  0
 17 18  2  0
 18 19  1  0
  9  5  1  0
 19 10  1  0
 19 15  2  0
A    1
 C1 
A    2
 N1 
A    3
 C2 
A    4
 C3 
A    5
 N2 
A    6
 C4 
A    7
 C5 
A    8
 C6 
A    9
 N3 
A   10
 C7 
A   11
 N4 
A   12
 C8 
A   13
 N5 
A   14
 N6 
A   15
 C9 
A   16
 N7 
A   17
 C10
A   18
 C11
A   19
 C12
M  END
>  <ref_pdb>  (674) 
Ax0310a

>  <ref_mols>  (674) 
Ax0446a,Ax1080a,Ax0812a,Ax0719a,Ax1140a,Ax0528a,Ax0310a

>  <original SMILES>  (674) 
CN(CCn1cccn1)c1nc(N)nc2[nH]ccc12

>  <rationale>  (674) 
info info set:screening_pocket;hbond:S87+S105; hydroph_interaction:P107+Y89+Y90; pistack:H21; 

>  <experiment>  (674) 
screening_pocket

>  <cluster_label>  (674) 
3

>  <cluster_rank>  (674) 
331

>  <N_interactions>  (674) 
6

>  <∆∆G>  (674) 
-3.893643

>  <comRMSD>  (674) 
0.470579

>  <ROCS_TanimotoCombo>  (674) 
0.64

>  <ROCS_ShapeTanimoto>  (674) 
0.255

>  <ROCS_ColorTanimoto>  (674) 
0.385

$$$$
EN300_1800518
     RDKit          3D

 16 17  0  0  0  0  0  0  0  0999 V2000
   30.1462    8.2356    8.4994 C   0  0  0  0  0  0  0  0  0  0  0  0
   31.0889    9.1688    7.7986 C   0  0  0  0  0  0  0  0  0  0  0  0
   30.8475   10.6273    8.0550 C   0  0  0  0  0  0  0  0  0  0  0  0
   31.7812   11.6183    7.3867 C   0  0  0  0  0  0  0  0  0  0  0  0
   31.2317   12.9814    7.9101 C   0  0  0  0  0  0  0  0  0  0  0  0
   30.1514   13.4174    7.5472 O   0  0  0  0  0  0  0  0  0  0  0  0
   32.1072   13.7368    8.8783 C   0  0  0  0  0  0  0  0  0  0  0  0
   33.2493   13.4015    9.1681 O   0  0  0  0  0  0  0  0  0  0  0  0
   31.3757   14.8841    9.4267 O   0  0  0  0  0  0  0  0  0  0  0  0
   32.9014   11.2693    6.5001 C   0  0  0  0  0  0  0  0  0  0  0  0
   33.7682   12.1569    5.8902 C   0  0  0  0  0  0  0  0  0  0  0  0
   34.8915   11.6715    4.9947 C   0  0  0  0  0  0  0  0  0  0  0  0
   34.9950   10.3101    4.8227 C   0  0  0  0  0  0  0  0  0  0  0  0
   33.9954    9.3813    5.5352 C   0  0  0  0  0  0  0  0  0  0  0  0
   32.9851    9.8583    6.3522 C   0  0  0  0  0  0  0  0  0  0  0  0
   32.1485    8.9194    6.9609 N   0  0  0  0  0  0  0  0  0  0  0  0
  1  2  1  0
  2  3  2  0
  3  4  1  0
  4  5  1  0
  5  6  2  0
  5  7  1  0
  7  8  2  0
  7  9  1  0
  4 10  2  0
 10 11  1  0
 11 12  2  0
 12 13  1  0
 13 14  2  0
 14 15  1  0
 15 16  2  0
 16  2  1  0
 15 10  1  0
A    1
 C1 
A    2
 C2 
A    3
 C3 
A    4
 C4 
A    5
 C5 
A    6
 O1 
A    7
 C6 
A    8
 O2 
A    9
 O3 
A   10
 C7 
A   11
 C8 
A   12
 C9 
A   13
 C10
A   14
 C11
A   15
 C12
A   16
 N1 
M  END
>  <ref_pdb>  (675) 
Ax0310a

>  <ref_mols>  (675) 
Ax0446a,Ax1080a,Ax0812a,Ax0719a,Ax1140a,Ax0528a,Ax0310a

>  <original SMILES>  (675) 
Cc1cc(C(=O)C(=O)O)c2ccccc2n1

>  <rationale>  (675) 
info info set:bb_whole;hbond:S87+G127; hydroph_interaction:V124; 

>  <experiment>  (675) 
bb_whole

>  <cluster_label>  (675) 
3

>  <cluster_rank>  (675) 
332

>  <N_interactions>  (675) 
4

>  <∆∆G>  (675) 
-7.570753

>  <comRMSD>  (675) 
0.513107

>  <ROCS_TanimotoCombo>  (675) 
0.414

>  <ROCS_ShapeTanimoto>  (675) 
0.22

>  <ROCS_ColorTanimoto>  (675) 
0.194

$$$$
Z98405335
     RDKit          3D

 23 27  0  0  0  0  0  0  0  0999 V2000
   30.3091    7.3669    8.4789 C   0  0  0  0  0  0  0  0  0  0  0  0
   30.9260    8.4919    8.0028 C   0  0  0  0  0  0  0  0  0  0  0  0
   30.4322    9.5920    8.4696 C   0  0  0  0  0  0  0  0  0  0  0  0
   31.1392   10.4947    7.9380 C   0  0  0  0  0  0  0  0  0  0  0  0
   30.9879   11.7009    8.1621 N   0  0  0  0  0  0  0  0  0  0  0  0
   31.7599   12.5203    7.7169 C   0  0  0  0  0  0  0  0  0  0  0  0
   31.1740   13.6007    8.2991 N   0  0  0  0  0  0  0  0  0  0  0  0
   31.7403   14.4861    9.1353 N   0  0  0  0  0  0  0  0  0  0  0  0
   30.7837   15.3429    9.4820 N   0  0  0  0  0  0  0  0  0  0  0  0
   29.6207   14.9635    8.8478 C   0  0  0  0  0  0  0  0  0  0  0  0
   28.3336   15.4851    8.8401 C   0  0  0  0  0  0  0  0  0  0  0  0
   27.3583   14.8640    8.1007 C   0  0  0  0  0  0  0  0  0  0  0  0
   27.6079   13.7437    7.3567 C   0  0  0  0  0  0  0  0  0  0  0  0
   28.8724   13.2044    7.3324 C   0  0  0  0  0  0  0  0  0  0  0  0
   29.8526   13.8513    8.0952 C   0  0  0  0  0  0  0  0  0  0  0  0
   32.9080   12.1409    6.7944 C   0  0  0  0  0  0  0  0  0  0  0  0
   33.8366   12.9957    6.2212 C   0  0  0  0  0  0  0  0  0  0  0  0
   34.8358   12.4863    5.3830 C   0  0  0  0  0  0  0  0  0  0  0  0
   34.9163   11.1171    5.1046 C   0  0  0  0  0  0  0  0  0  0  0  0
   33.9998   10.2340    5.6660 C   0  0  0  0  0  0  0  0  0  0  0  0
   33.0169   10.7528    6.5033 C   0  0  0  0  0  0  0  0  0  0  0  0
   32.0786    9.9387    7.1470 N   0  0  0  0  0  0  0  0  0  0  0  0
   31.9627    8.6062    7.1488 N   0  0  0  0  0  0  0  0  0  0  0  0
  1  2  1  0
  2  3  1  0
  3  4  2  0
  4  5  1  0
  5  6  2  0
  6  7  1  0
  7  8  1  0
  8  9  2  0
  9 10  1  0
 10 11  2  0
 11 12  1  0
 12 13  2  0
 13 14  1  0
 14 15  2  0
  6 16  1  0
 16 17  2  0
 17 18  1  0
 18 19  2  0
 19 20  1  0
 20 21  2  0
 21 22  1  0
 22 23  1  0
 23  2  2  0
 22  4  1  0
 15  7  1  0
 21 16  1  0
 15 10  1  0
A    1
 C1 
A    2
 C2 
A    3
 C3 
A    4
 C4 
A    5
 N1 
A    6
 C5 
A    7
 N2 
A    8
 N3 
A    9
 N4 
A   10
 C6 
A   11
 C7 
A   12
 C8 
A   13
 C9 
A   14
 C10
A   15
 C11
A   16
 C12
A   17
 C13
A   18
 C14
A   19
 C15
A   20
 C16
A   21
 C17
A   22
 N5 
A   23
 N6 
M  END
>  <ref_pdb>  (676) 
Ax0310a

>  <ref_mols>  (676) 
Ax0446a,Ax1080a,Ax0812a,Ax0719a,Ax1140a,Ax0528a,Ax0310a

>  <original SMILES>  (676) 
Cc1cc2nc(-n3nnc4ccccc43)c3ccccc3n2n1

>  <rationale>  (676) 
info info set:screening_whole;hbond:S87+G127; hydroph_interaction:Y89+Y90+V124+D109; 

>  <experiment>  (676) 
screening_whole

>  <cluster_label>  (676) 
3

>  <cluster_rank>  (676) 
333

>  <N_interactions>  (676) 
6

>  <∆∆G>  (676) 
-4.756338

>  <comRMSD>  (676) 
0.837401

>  <ROCS_TanimotoCombo>  (676) 
0.454

>  <ROCS_ShapeTanimoto>  (676) 
0.271

>  <ROCS_ColorTanimoto>  (676) 
0.183

$$$$
Z274590020
     RDKit          3D

 12 12  0  0  0  0  0  0  0  0999 V2000
   30.2162    8.5554    8.7225 C   0  0  0  0  0  0  0  0  0  0  0  0
   31.0307    9.5349    7.9174 C   0  0  0  0  0  0  0  0  0  0  0  0
   32.0287    8.9598    7.0300 C   0  0  0  0  0  0  0  0  0  0  0  0
   32.8437    9.7580    6.2412 C   0  0  0  0  0  0  0  0  0  0  0  0
   32.7061   11.1402    6.3053 C   0  0  0  0  0  0  0  0  0  0  0  0
   31.7453   11.7193    7.1632 C   0  0  0  0  0  0  0  0  0  0  0  0
   31.6325   13.2325    7.2289 C   0  0  0  0  0  0  0  0  0  0  0  0
   31.9622   13.8210    8.8543 S   0  0  0  0  0  6  0  0  0  0  0  0
   30.4228   13.4560    9.4248 N   0  0  0  0  0  0  0  0  0  0  0  0
   31.8990   15.2031    9.2116 O   0  0  0  0  0  0  0  0  0  0  0  0
   33.0918   13.0369    9.2864 O   0  0  0  0  0  0  0  0  0  0  0  0
   30.9053   10.9199    7.9615 C   0  0  0  0  0  0  0  0  0  0  0  0
  1  2  1  0
  2  3  2  0
  3  4  1  0
  4  5  2  0
  5  6  1  0
  6  7  1  0
  7  8  1  0
  8  9  1  0
  8 10  2  0
  8 11  2  0
  6 12  2  0
 12  2  1  0
A    1
 C1 
A    2
 C2 
A    3
 C3 
A    4
 C4 
A    5
 C5 
A    6
 C6 
A    7
 C7 
A    8
 S1 
A    9
 N1 
A   10
 O1 
A   11
 O2 
A   12
 C8 
M  END
>  <ref_pdb>  (677) 
Ax0310a

>  <ref_mols>  (677) 
Ax0446a,Ax1080a,Ax0812a,Ax0719a,Ax1140a,Ax0528a,Ax0310a

>  <original SMILES>  (677) 
Cc1cccc(CS(N)(=O)=O)c1

>  <rationale>  (677) 
info info set:3d;hbond:S87+S125+G127; hydroph_interaction:V124; 

>  <experiment>  (677) 
3d

>  <cluster_label>  (677) 
3

>  <cluster_rank>  (677) 
334

>  <N_interactions>  (677) 
4

>  <∆∆G>  (677) 
-7.873358

>  <comRMSD>  (677) 
0.330878

>  <ROCS_TanimotoCombo>  (677) 
0.308

>  <ROCS_ShapeTanimoto>  (677) 
0.179

>  <ROCS_ColorTanimoto>  (677) 
0.129

$$$$
Z2055165621
     RDKit          3D

 19 20  0  0  0  0  0  0  0  0999 V2000
   28.6795   16.0501    8.2360 C   0  0  0  0  0  0  0  0  0  0  0  0
   28.7720   15.3476    7.0315 O   0  0  0  0  0  0  0  0  0  0  0  0
   28.7024   14.0375    7.2692 C   0  0  0  0  0  0  0  0  0  0  0  0
   27.3886   13.4083    6.9855 C   0  0  0  0  0  0  0  0  0  0  0  0
   27.2573   11.9737    7.2735 C   0  0  0  0  0  0  0  0  0  0  0  0
   28.3421   11.0644    7.8436 C   0  0  0  0  0  0  0  0  0  0  0  0
   29.4457   11.8759    7.9527 C   0  0  0  0  0  0  0  0  0  0  0  0
   30.5572   11.0593    8.3618 C   0  0  0  0  0  0  0  0  0  0  0  0
   30.4656   10.1763    9.1851 O   0  0  0  0  0  0  0  0  0  0  0  0
   31.6930   11.3456    7.5396 N   0  0  0  0  0  0  0  0  0  0  0  0
   31.5772   12.2261    6.3702 C   0  0  0  0  0  0  0  0  0  0  0  0
   32.6563   11.9046    5.4804 C   0  0  1  0  0  0  0  0  0  0  0  0
   33.5629   13.1223    5.3527 C   0  0  0  0  0  0  0  0  0  0  0  0
   33.3700   10.7854    6.1853 C   0  0  2  0  0  0  0  0  0  0  0  0
   33.7099    9.4602    5.5985 C   0  0  0  0  0  0  0  0  0  0  0  0
   34.6356    9.3448    4.6138 N   0  0  0  0  0  0  0  0  0  0  0  0
   33.1239    8.5239    6.0647 O   0  0  0  0  0  0  0  0  0  0  0  0
   32.2287   10.2334    6.9517 C   0  0  0  0  0  0  0  0  0  0  0  0
   29.6831   13.2335    7.7283 C   0  0  0  0  0  0  0  0  0  0  0  0
  1  2  1  0
  2  3  1  0
  3  4  2  0
  4  5  1  0
  5  6  2  0
  6  7  1  0
  7  8  1  0
  8  9  2  0
  8 10  1  0
 10 11  1  0
 11 12  1  0
 12 13  1  1
 12 14  1  0
 14 15  1  6
 15 16  1  0
 15 17  2  0
 14 18  1  0
  7 19  2  0
 19  3  1  0
 18 10  1  0
A    1
 C1 
A    2
 O1 
A    3
 C2 
A    4
 C3 
A    5
 C4 
A    6
 C5 
A    7
 C6 
A    8
 C7 
A    9
 O2 
A   10
 N1 
A   11
 C8 
A   12
 C9 
A   13
 C10
A   14
 C11
A   15
 C12
A   16
 N2 
A   17
 O3 
A   18
 C13
A   19
 C14
M  END
>  <ref_pdb>  (678) 
Ax0310a

>  <ref_mols>  (678) 
Ax0446a,Ax1080a,Ax0812a,Ax0719a,Ax1140a,Ax0528a,Ax0310a

>  <original SMILES>  (678) 
COc1cccc(C(=O)N2C[C@@H](C)[C@H](C(N)=O)C2)c1

>  <rationale>  (678) 
info info set:screening_pocket;hbond:S105; hydroph_interaction:P107+Y89; 

>  <experiment>  (678) 
screening_pocket

>  <cluster_label>  (678) 
3

>  <cluster_rank>  (678) 
335

>  <N_interactions>  (678) 
4

>  <∆∆G>  (678) 
-1.245669

>  <comRMSD>  (678) 
0.912471

>  <ROCS_TanimotoCombo>  (678) 
0.678

>  <ROCS_ShapeTanimoto>  (678) 
0.223

>  <ROCS_ColorTanimoto>  (678) 
0.455

$$$$
EN300_8755692
     RDKit          3D

 14 14  0  0  0  0  0  0  0  0999 V2000
   31.0146   12.7979    6.2544 C   0  0  0  0  0  0  0  0  0  0  0  0
   32.2267   11.9391    6.6539 C   0  0  2  0  0  0  0  0  0  0  0  0
   33.2207   11.7667    5.5110 C   0  0  0  0  0  0  0  0  0  0  0  0
   33.5592   10.2975    5.4620 C   0  0  0  0  0  0  0  0  0  0  0  0
   32.5935    9.6340    6.4615 C   0  0  0  0  0  0  0  0  0  0  0  0
   32.5977    8.4560    6.7207 O   0  0  0  0  0  0  0  0  0  0  0  0
   31.8064   10.5941    6.9654 N   0  0  0  0  0  0  0  0  0  0  0  0
   31.1426   10.4597    8.1232 C   0  0  0  0  0  0  0  0  0  0  0  0
   30.5205   11.3903    8.6016 O   0  0  0  0  0  0  0  0  0  0  0  0
   31.2439    9.1682    8.7101 O   0  0  0  0  0  0  0  0  0  0  0  0
   29.9851    8.6606    9.0484 C   0  0  0  0  0  0  0  0  0  0  0  0
   29.8343    8.1387   10.3840 C   0  0  0  0  0  0  0  0  0  0  0  0
   28.9233    9.6375    8.6912 C   0  0  0  0  0  0  0  0  0  0  0  0
   29.7320    7.3518    8.5804 C   0  0  0  0  0  0  0  0  0  0  0  0
  2  1  1  6
  2  3  1  0
  3  4  1  0
  4  5  1  0
  5  6  2  0
  5  7  1  0
  7  8  1  0
  8  9  2  0
  8 10  1  0
 10 11  1  0
 11 12  1  0
 11 13  1  0
 11 14  1  0
  7  2  1  0
A    1
 C1 
A    2
 C2 
A    3
 C3 
A    4
 C4 
A    5
 C5 
A    6
 O1 
A    7
 N1 
A    8
 C6 
A    9
 O2 
A   10
 O3 
A   11
 C7 
A   12
 C8 
A   13
 C9 
A   14
 C10
M  END
>  <ref_pdb>  (679) 
Ax0310a

>  <ref_mols>  (679) 
Ax0446a,Ax1080a,Ax0812a,Ax0719a,Ax1140a,Ax0528a,Ax0310a

>  <original SMILES>  (679) 
C[C@@H]1CCC(=O)N1C(=O)OC(C)(C)C

>  <rationale>  (679) 
info info set:bb_densepocket2;hydroph_interaction:P107+V124+D109; 

>  <experiment>  (679) 
bb_densepocket2

>  <cluster_label>  (679) 
3

>  <cluster_rank>  (679) 
336

>  <N_interactions>  (679) 
3

>  <∆∆G>  (679) 
-5.523496

>  <comRMSD>  (679) 
0.554278

>  <ROCS_TanimotoCombo>  (679) 
0.615

>  <ROCS_ShapeTanimoto>  (679) 
0.215

>  <ROCS_ColorTanimoto>  (679) 
0.4

$$$$
EN300_363543
     RDKit          3D

 10 10  0  0  0  0  0  0  0  0999 V2000
   29.2345   12.6008    7.5350 C   0  0  0  0  0  0  0  0  0  0  0  0
   30.3056   11.9005    8.2159 N   0  0  0  0  0  0  0  0  0  0  0  0
   31.2003   11.0835    7.5263 C   0  0  0  0  0  0  0  0  0  0  0  0
   31.3684    9.5552    7.6060 C   0  0  0  0  0  0  0  0  0  0  0  0
   32.2654    8.8283    6.9028 N   0  0  0  0  0  0  0  0  0  0  0  0
   33.0674    9.5415    6.0585 C   0  0  0  0  0  0  0  0  0  0  0  0
   34.0130    8.8537    5.2985 N   0  0  0  0  0  0  0  0  0  0  0  0
   32.9932   10.9185    5.9164 C   0  0  0  0  0  0  0  0  0  0  0  0
   33.9835   11.5162    4.9236 C   0  0  0  0  0  0  0  0  0  0  0  0
   32.0774   11.6830    6.6357 C   0  0  0  0  0  0  0  0  0  0  0  0
  1  2  1  0
  2  3  1  0
  3  4  2  0
  4  5  1  0
  5  6  2  0
  6  7  1  0
  6  8  1  0
  8  9  1  0
  8 10  2  0
 10  3  1  0
A    1
 C1 
A    2
 N1 
A    3
 C2 
A    4
 C3 
A    5
 N2 
A    6
 C4 
A    7
 N3 
A    8
 C5 
A    9
 C6 
A   10
 C7 
M  END
>  <ref_pdb>  (680) 
Ax0310a

>  <ref_mols>  (680) 
Ax0446a,Ax1080a,Ax0812a,Ax0719a,Ax1140a,Ax0528a,Ax0310a

>  <original SMILES>  (680) 
CNc1cnc(N)c(C)c1

>  <rationale>  (680) 
info info set:bb_densepocket2;hbond:S105+S125; hydroph_interaction:P107; 

>  <experiment>  (680) 
bb_densepocket2

>  <cluster_label>  (680) 
3

>  <cluster_rank>  (680) 
337

>  <N_interactions>  (680) 
3

>  <∆∆G>  (680) 
-5.991435

>  <comRMSD>  (680) 
0.297106

>  <ROCS_TanimotoCombo>  (680) 
0.624

>  <ROCS_ShapeTanimoto>  (680) 
0.212

>  <ROCS_ColorTanimoto>  (680) 
0.412

$$$$
Z432838040
     RDKit          3D

 18 19  0  0  0  0  0  0  0  0999 V2000
   33.0662   14.0578    4.9102 C   0  0  0  0  0  0  0  0  0  0  0  0
   33.8279   12.8674    5.3863 C   0  0  0  0  0  0  0  0  0  0  0  0
   34.0714   12.0488    4.1539 C   0  0  0  0  0  0  0  0  0  0  0  0
   35.1816   13.3709    5.9564 C   0  0  0  0  0  0  0  0  0  0  0  0
   35.0914   14.1944    7.1646 N   0  0  0  0  0  0  0  0  0  0  0  0
   34.3155   13.9196    8.2773 C   0  0  0  0  0  0  0  0  0  0  0  0
   34.4118   14.9900    9.2821 N   0  0  0  0  0  0  0  0  0  0  0  0
   33.6009   12.9520    8.4731 O   0  0  0  0  0  0  0  0  0  0  0  0
   33.0539   11.9933    6.3151 N   0  0  0  0  0  0  0  0  0  0  0  0
   33.2386   10.5907    5.9073 C   0  0  0  0  0  0  0  0  0  0  0  0
   32.4077    9.5652    6.5799 C   0  0  0  0  0  0  0  0  0  0  0  0
   31.2177   10.1837    7.2273 C   0  0  0  0  0  0  0  0  0  0  0  0
   30.4549    9.1084    7.9654 C   0  0  0  0  0  0  0  0  0  0  0  0
   29.1826    9.5243    8.6357 C   0  0  0  0  0  0  0  0  0  0  0  0
   28.8196   10.8877    8.5110 C   0  0  0  0  0  0  0  0  0  0  0  0
   29.6226   11.8337    7.8073 C   0  0  0  0  0  0  0  0  0  0  0  0
   30.8274   11.4874    7.1674 C   0  0  0  0  0  0  0  0  0  0  0  0
   31.6242   12.4007    6.4835 C   0  0  0  0  0  0  0  0  0  0  0  0
  1  2  1  0
  2  3  1  0
  2  4  1  0
  4  5  1  0
  5  6  1  0
  6  7  1  0
  6  8  2  0
  2  9  1  0
  9 10  1  0
 10 11  1  0
 11 12  1  0
 12 13  2  0
 13 14  1  0
 14 15  2  0
 15 16  1  0
 16 17  2  0
 17 18  1  0
 18  9  1  0
 17 12  1  0
A    1
 C1 
A    2
 C2 
A    3
 C3 
A    4
 C4 
A    5
 N1 
A    6
 C5 
A    7
 N2 
A    8
 O1 
A    9
 N3 
A   10
 C6 
A   11
 C7 
A   12
 C8 
A   13
 C9 
A   14
 C10
A   15
 C11
A   16
 C12
A   17
 C13
A   18
 C14
M  END
>  <ref_pdb>  (681) 
Ax0310a

>  <ref_mols>  (681) 
Ax0446a,Ax1080a,Ax0812a,Ax0719a,Ax1140a,Ax0528a,Ax0310a

>  <original SMILES>  (681) 
CC(C)(CNC(N)=O)N1CCc2ccccc2C1

>  <rationale>  (681) 
info info set:3d;hbond:G127+E85; 

>  <experiment>  (681) 
3d

>  <cluster_label>  (681) 
3

>  <cluster_rank>  (681) 
338

>  <N_interactions>  (681) 
3

>  <∆∆G>  (681) 
-3.9115

>  <comRMSD>  (681) 
0.499877

>  <ROCS_TanimotoCombo>  (681) 
0.348

>  <ROCS_ShapeTanimoto>  (681) 
0.213

>  <ROCS_ColorTanimoto>  (681) 
0.134

$$$$
EN300_281962
     RDKit          3D

 14 15  0  0  0  0  0  0  0  0999 V2000
   30.2927   13.4066    9.0672 N   0  0  0  0  0  0  0  0  0  0  0  0
   29.7525   12.6542    7.6738 S   0  0  0  0  0  6  0  0  0  0  0  0
   28.3986   12.2204    7.8411 O   0  0  0  0  0  0  0  0  0  0  0  0
   30.0869   13.5397    6.5920 O   0  0  0  0  0  0  0  0  0  0  0  0
   30.8008   11.2413    7.4819 C   0  0  0  0  0  0  0  0  0  0  0  0
   30.5608    9.8605    8.0391 C   0  0  0  0  0  0  0  0  0  0  0  0
   31.5722    9.0725    7.6113 N   0  0  0  0  0  0  0  0  0  0  0  0
   32.4795    9.8787    6.7971 C   0  0  0  0  0  0  0  0  0  0  0  0
   33.7511    9.4639    6.0704 C   0  0  0  0  0  0  0  0  0  0  0  0
   34.5153   10.5519    5.3197 C   0  0  0  0  0  0  0  0  0  0  0  0
   33.8934   11.9336    5.3852 C   0  0  0  0  0  0  0  0  0  0  0  0
   32.7112   12.2132    6.0585 C   0  0  0  0  0  0  0  0  0  0  0  0
   32.2568   13.4640    6.0337 F   0  0  0  0  0  0  0  0  0  0  0  0
   32.0002   11.2136    6.7549 C   0  0  0  0  0  0  0  0  0  0  0  0
  1  2  1  0
  2  3  2  0
  2  4  2  0
  2  5  1  0
  5  6  2  0
  6  7  1  0
  7  8  1  0
  8  9  2  0
  9 10  1  0
 10 11  2  0
 11 12  1  0
 12 13  1  0
 12 14  2  0
 14  5  1  0
 14  8  1  0
A    1
 N1 
A    2
 S1 
A    3
 O1 
A    4
 O2 
A    5
 C1 
A    6
 C2 
A    7
 N2 
A    8
 C3 
A    9
 C4 
A   10
 C5 
A   11
 C6 
A   12
 C7 
A   13
 F1 
A   14
 C8 
M  END
>  <ref_pdb>  (682) 
Ax0310a

>  <ref_mols>  (682) 
Ax0446a,Ax1080a,Ax0812a,Ax0719a,Ax1140a,Ax0528a,Ax0310a

>  <original SMILES>  (682) 
NS(=O)(=O)c1c[nH]c2cccc(F)c12

>  <rationale>  (682) 
info info set:sulfonimide_whole;hbond:S87+S125; 

>  <experiment>  (682) 
sulfonimide_whole

>  <cluster_label>  (682) 
3

>  <cluster_rank>  (682) 
339

>  <N_interactions>  (682) 
2

>  <∆∆G>  (682) 
-5.682051

>  <comRMSD>  (682) 
0.713282

>  <ROCS_TanimotoCombo>  (682) 
0.345

>  <ROCS_ShapeTanimoto>  (682) 
0.21

>  <ROCS_ColorTanimoto>  (682) 
0.136

$$$$
Z2044981890
     RDKit          3D

 17 19  0  0  0  0  0  0  0  0999 V2000
   31.7725   14.3160    9.0178 O   0  0  0  0  0  0  0  0  0  0  0  0
   31.1998   13.3835    8.4905 C   0  0  0  0  0  0  0  0  0  0  0  0
   29.7002   13.1424    8.4912 C   0  0  2  0  0  0  0  0  0  0  0  0
   29.0188   13.6224    7.2189 C   0  0  0  0  0  0  0  0  0  0  0  0
   28.3337   14.8817    7.6094 C   0  0  0  0  0  0  0  0  0  0  0  0
   28.7005   15.0446    9.0687 C   0  0  0  0  0  0  0  0  0  0  0  0
   29.1471   13.7382    9.4417 O   0  0  0  0  0  0  0  0  0  0  0  0
   31.8243   12.2833    7.7683 N   0  0  0  0  0  0  0  0  0  0  0  0
   31.0941   11.1642    7.5334 C   0  0  0  0  0  0  0  0  0  0  0  0
   31.8173   10.3155    6.5523 C   0  0  0  0  0  0  0  0  0  0  0  0
   33.0187   11.0816    6.0605 C   0  0  2  0  0  0  0  0  0  0  0  0
   32.9090   11.7866    4.7156 C   0  0  0  0  0  0  0  0  0  0  0  0
   34.2187   12.4295    4.3637 C   0  0  0  0  0  0  0  0  0  0  0  0
   35.3296   11.3760    4.3617 C   0  0  0  0  0  0  0  0  0  0  0  0
   35.2870   10.6555    5.5687 O   0  0  0  0  0  0  0  0  0  0  0  0
   33.9980   10.1081    5.7621 C   0  0  0  0  0  0  0  0  0  0  0  0
   33.1327   12.2546    7.0716 C   0  0  0  0  0  0  0  0  0  0  0  0
  1  2  2  0
  3  2  1  6
  3  4  1  0
  4  5  1  0
  5  6  1  0
  6  7  1  0
  2  8  1  0
  8  9  1  0
  9 10  1  0
 11 10  1  1
 11 12  1  0
 12 13  1  0
 13 14  1  0
 14 15  1  0
 15 16  1  0
 11 17  1  0
  7  3  1  0
 17  8  1  0
 16 11  1  0
A    1
 O1 
A    2
 C1 
A    3
 C2 
A    4
 C3 
A    5
 C4 
A    6
 C5 
A    7
 O2 
A    8
 N1 
A    9
 C6 
A   10
 C7 
A   11
 C8 
A   12
 C9 
A   13
 C10
A   14
 C11
A   15
 O3 
A   16
 C12
A   17
 C13
M  END
>  <ref_pdb>  (683) 
Ax0310a

>  <ref_mols>  (683) 
Ax0446a,Ax1080a,Ax0812a,Ax0719a,Ax1140a,Ax0528a,Ax0310a

>  <original SMILES>  (683) 
O=C([C@@H]1CCCO1)N1CC[C@@]2(CCCOC2)C1

>  <rationale>  (683) 
info info set:3d;hbond:S87; hydroph_interaction:Y89; 

>  <experiment>  (683) 
3d

>  <cluster_label>  (683) 
3

>  <cluster_rank>  (683) 
340

>  <N_interactions>  (683) 
2

>  <∆∆G>  (683) 
-0.917777

>  <comRMSD>  (683) 
0.657232

>  <ROCS_TanimotoCombo>  (683) 
0.338

>  <ROCS_ShapeTanimoto>  (683) 
0.206

>  <ROCS_ColorTanimoto>  (683) 
0.132

$$$$
EN300_1295426
     RDKit          3D

 13 13  0  0  0  0  0  0  0  0999 V2000
   29.9157    7.6133    8.4975 C   0  0  0  0  0  0  0  0  0  0  0  0
   29.8120    8.9571    8.9114 C   0  0  0  0  0  0  0  0  0  0  0  0
   28.9221   10.0028    8.4073 C   0  0  0  0  0  0  0  0  0  0  0  0
   29.1893    8.5817   10.1634 C   0  0  0  0  0  0  0  0  0  0  0  0
   31.0850    9.4646    8.9012 O   0  0  0  0  0  0  0  0  0  0  0  0
   31.6595    9.8397    7.7219 C   0  0  0  0  0  0  0  0  0  0  0  0
   32.3498    8.9268    7.0094 N   0  0  0  0  0  0  0  0  0  0  0  0
   32.9184    9.3941    5.8935 C   0  0  0  0  0  0  0  0  0  0  0  0
   32.7853   10.8136    5.4641 C   0  0  0  0  0  0  0  0  0  0  0  0
   33.3665   11.2405    4.3367 F   0  0  0  0  0  0  0  0  0  0  0  0
   32.0522   11.6806    6.2358 C   0  0  0  0  0  0  0  0  0  0  0  0
   31.4699   11.1971    7.3967 C   0  0  0  0  0  0  0  0  0  0  0  0
   30.7537   12.0329    8.1683 N   0  0  0  0  0  0  0  0  0  0  0  0
  1  2  1  0
  2  3  1  0
  2  4  1  0
  2  5  1  0
  5  6  1  0
  6  7  2  0
  7  8  1  0
  8  9  2  0
  9 10  1  0
  9 11  1  0
 11 12  2  0
 12 13  1  0
 12  6  1  0
A    1
 C1 
A    2
 C2 
A    3
 C3 
A    4
 C4 
A    5
 O1 
A    6
 C5 
A    7
 N1 
A    8
 C6 
A    9
 C7 
A   10
 F1 
A   11
 C8 
A   12
 C9 
A   13
 N2 
M  END
>  <ref_pdb>  (684) 
Ax0310a

>  <ref_mols>  (684) 
Ax0446a,Ax1080a,Ax0812a,Ax0719a,Ax1140a,Ax0528a,Ax0310a

>  <original SMILES>  (684) 
CC(C)(C)Oc1ncc(F)cc1N

>  <rationale>  (684) 
info info set:bb_densepocket2;hbond:S105+S125+G127; hydroph_interaction:P107+D109; 

>  <experiment>  (684) 
bb_densepocket2

>  <cluster_label>  (684) 
3

>  <cluster_rank>  (684) 
341

>  <N_interactions>  (684) 
5

>  <∆∆G>  (684) 
-3.735463

>  <comRMSD>  (684) 
0.70171

>  <ROCS_TanimotoCombo>  (684) 
0.613

>  <ROCS_ShapeTanimoto>  (684) 
0.214

>  <ROCS_ColorTanimoto>  (684) 
0.399

$$$$
Z3354020541
     RDKit          3D

 22 24  0  0  0  0  0  0  0  0999 V2000
   29.2900   14.3494    9.4849 C   0  0  0  0  0  0  0  0  0  0  0  0
   29.0336   13.4075    8.3159 C   0  0  2  0  0  0  0  0  0  0  0  0
   30.3132   12.8713    7.8597 N   0  0  0  0  0  0  0  0  0  0  0  0
   30.6102   11.5665    8.0263 C   0  0  0  0  0  0  0  0  0  0  0  0
   30.1347   10.7752    8.7988 O   0  0  0  0  0  0  0  0  0  0  0  0
   31.6670   10.8517    7.2119 C   0  0  0  0  0  0  0  0  0  0  0  0
   31.6340    9.3537    7.2948 C   0  0  0  0  0  0  0  0  0  0  0  0
   30.6910    8.6672    8.0887 N   0  0  0  0  0  0  0  0  0  0  0  0
   32.5602    8.7972    6.5610 N   0  0  0  0  0  0  0  0  0  0  0  0
   33.2166    9.8739    5.9975 N   0  0  0  0  0  0  0  0  0  0  0  0
   34.2983    9.7930    5.1235 C   0  0  0  0  0  0  0  0  0  0  0  0
   35.0076   11.0033    4.5334 C   0  0  0  0  0  0  0  0  0  0  0  0
   34.4563   12.2020    4.9566 C   0  0  0  0  0  0  0  0  0  0  0  0
   33.2692   12.3071    5.9028 C   0  0  0  0  0  0  0  0  0  0  0  0
   32.6929   11.1416    6.3876 C   0  0  0  0  0  0  0  0  0  0  0  0
   28.4388   14.1844    7.1070 C   0  0  0  0  0  0  0  0  0  0  0  0
   28.6804   15.3875    7.0047 O   0  0  0  0  0  0  0  0  0  0  0  0
   27.6580   13.4781    6.1878 N   0  0  0  0  0  0  0  0  0  0  0  0
   27.0553   12.2702    6.6342 C   0  0  0  0  0  0  0  0  0  0  0  0
   25.9724   12.0445    5.7696 C   0  0  0  0  0  0  0  0  0  0  0  0
   26.0506   12.8043    4.4732 C   0  0  0  0  0  0  0  0  0  0  0  0
   27.1416   13.8103    4.8326 C   0  0  0  0  0  0  0  0  0  0  0  0
  2  1  1  1
  2  3  1  0
  3  4  1  0
  4  5  2  0
  4  6  1  0
  6  7  1  0
  7  8  1  0
  7  9  2  0
  9 10  1  0
 10 11  1  0
 11 12  2  0
 12 13  1  0
 13 14  2  0
 14 15  1  0
  2 16  1  0
 16 17  2  0
 16 18  1  0
 18 19  1  0
 19 20  1  0
 20 21  1  0
 21 22  1  0
 15  6  2  0
 22 18  1  0
 15 10  1  0
A    1
 C1 
A    2
 C2 
A    3
 N1 
A    4
 C3 
A    5
 O1 
A    6
 C4 
A    7
 C5 
A    8
 N2 
A    9
 N3 
A   10
 N4 
A   11
 C6 
A   12
 C7 
A   13
 C8 
A   14
 C9 
A   15
 C10
A   16
 C11
A   17
 O2 
A   18
 N5 
A   19
 C12
A   20
 C13
A   21
 C14
A   22
 C15
M  END
>  <ref_pdb>  (685) 
Ax0310a

>  <ref_mols>  (685) 
Ax0446a,Ax1080a,Ax0812a,Ax0719a,Ax1140a,Ax0528a,Ax0310a

>  <original SMILES>  (685) 
C[C@H](NC(=O)c1c(N)nn2ccccc12)C(=O)N1CCCC1

>  <rationale>  (685) 
info info set:screening_pocket;hbond:S105; hydroph_interaction:P107+Y89+Y90; 

>  <experiment>  (685) 
screening_pocket

>  <cluster_label>  (685) 
3

>  <cluster_rank>  (685) 
342

>  <N_interactions>  (685) 
4

>  <∆∆G>  (685) 
-4.541597

>  <comRMSD>  (685) 
0.540298

>  <ROCS_TanimotoCombo>  (685) 
0.647

>  <ROCS_ShapeTanimoto>  (685) 
0.278

>  <ROCS_ColorTanimoto>  (685) 
0.369

$$$$
EN300_26594275
     RDKit          3D

 24 26  0  0  0  0  0  0  0  0999 V2000
   27.2768   15.2428    8.6055 C   0  0  0  0  0  0  0  0  0  0  0  0
   28.3012   15.8001    7.8233 O   0  0  0  0  0  0  0  0  0  0  0  0
   29.0856   14.7888    7.7219 C   0  0  0  0  0  0  0  0  0  0  0  0
   28.7556   13.7808    6.6437 C   0  0  0  0  0  0  0  0  0  0  0  0
   29.7388   12.6586    6.6885 C   0  0  0  0  0  0  0  0  0  0  0  0
   30.8559   12.7077    7.7609 C   0  0  0  0  0  0  0  0  0  0  0  0
   31.4818   11.3609    7.3970 C   0  0  0  0  0  0  0  0  0  0  0  0
   30.8158   10.3512    7.9627 N   0  0  0  0  0  0  0  0  0  0  0  0
   31.1949    9.1391    7.7815 C   0  0  0  0  0  0  0  0  0  0  0  0
   30.2892    7.9874    8.5964 Cl  0  0  0  0  0  0  0  0  0  0  0  0
   32.2908    8.8158    6.9735 N   0  0  0  0  0  0  0  0  0  0  0  0
   32.9868    9.8792    6.3858 C   0  0  0  0  0  0  0  0  0  0  0  0
   34.1935    9.5455    5.5151 C   0  0  0  0  0  0  0  0  0  0  0  0
   34.9512   10.7382    4.9222 C   0  0  0  0  0  0  0  0  0  0  0  0
   34.4347   12.1470    5.2376 C   0  0  0  0  0  0  0  0  0  0  0  0
   35.2955   13.4777    4.5824 Cl  0  0  0  0  0  0  0  0  0  0  0  0
   33.3164   12.4285    6.0203 C   0  0  0  0  0  0  0  0  0  0  0  0
   32.6111   11.2155    6.5875 C   0  0  0  0  0  0  0  0  0  0  0  0
   31.0264   13.7194    8.6628 C   0  0  0  0  0  0  0  0  0  0  0  0
   31.9887   13.7405    9.5692 O   0  0  0  0  0  0  0  0  0  0  0  0
   31.3177   14.5079   10.5456 C   0  0  0  0  0  0  0  0  0  0  0  0
   30.1301   14.7567    8.6373 C   0  0  0  0  0  0  0  0  0  0  0  0
   30.2598   15.8044    9.5384 O   0  0  0  0  0  0  0  0  0  0  0  0
   31.5475   16.2240   10.0581 C   0  0  0  0  0  0  0  0  0  0  0  0
  1  2  1  0
  2  3  1  0
  3  4  2  0
  4  5  1  0
  5  6  2  0
  6  7  1  0
  7  8  2  0
  8  9  1  0
  9 10  1  0
  9 11  2  0
 11 12  1  0
 12 13  2  0
 13 14  1  0
 14 15  2  0
 15 16  1  0
 15 17  1  0
 17 18  2  0
  6 19  1  0
 19 20  1  0
 20 21  1  0
 19 22  2  0
 22 23  1  0
 23 24  1  0
 22  3  1  0
 18  7  1  0
 18 12  1  0
A    1
 C1 
A    2
 O1 
A    3
 C2 
A    4
 C3 
A    5
 C4 
A    6
 C5 
A    7
 C6 
A    8
 N1 
A    9
 C7 
A   10
CL1 
A   11
 N2 
A   12
 C8 
A   13
 C9 
A   14
 C10
A   15
 C11
A   16
CL2 
A   17
 C12
A   18
 C13
A   19
 C14
A   20
 O2 
A   21
 C15
A   22
 C16
A   23
 O3 
A   24
 C17
M  END
>  <ref_pdb>  (686) 
Ax0310a

>  <ref_mols>  (686) 
Ax0446a,Ax1080a,Ax0812a,Ax0719a,Ax1140a,Ax0528a,Ax0310a

>  <original SMILES>  (686) 
COc1ccc(-c2nc(Cl)nc3ccc(Cl)cc23)c(OC)c1OC

>  <rationale>  (686) 
info info set:bb_whole;hbond:S87+S105+G127+Y90; hydroph_interaction:P107; 

>  <experiment>  (686) 
bb_whole

>  <cluster_label>  (686) 
3

>  <cluster_rank>  (686) 
343

>  <N_interactions>  (686) 
5

>  <∆∆G>  (686) 
-2.044085

>  <comRMSD>  (686) 
0.890325

>  <ROCS_TanimotoCombo>  (686) 
0.44

>  <ROCS_ShapeTanimoto>  (686) 
0.268

>  <ROCS_ColorTanimoto>  (686) 
0.172

$$$$
EN300_124626
     RDKit          3D

 17 17  0  0  0  0  0  0  0  0999 V2000
   28.0246   14.4527   10.5113 C   0  0  0  0  0  0  0  0  0  0  0  0
   29.3061   14.8017   10.9307 C   0  0  0  0  0  0  0  0  0  0  0  0
   30.2635   14.9860    9.4742 S   0  0  0  0  0  6  0  0  0  0  0  0
   31.6037   15.4280    9.7395 O   0  0  0  0  0  0  0  0  0  0  0  0
   29.4000   15.5916    8.4746 O   0  0  0  0  0  0  0  0  0  0  0  0
   30.3299   13.4075    9.0322 N   0  0  0  0  0  0  0  0  0  0  0  0
   29.3791   12.9520    8.0451 C   0  0  0  0  0  0  0  0  0  0  0  0
   29.5913   11.6088    7.9129 C   0  0  0  0  0  0  0  0  0  0  0  0
   30.7878   11.2059    7.3830 C   0  0  0  0  0  0  0  0  0  0  0  0
   31.3312    9.8684    7.3204 C   0  0  0  0  0  0  0  0  0  0  0  0
   32.5948    9.8498    6.6820 C   0  0  0  0  0  0  0  0  0  0  0  0
   32.9634   11.1445    6.3022 C   0  0  0  0  0  0  0  0  0  0  0  0
   34.3392   11.8984    5.4959 S   0  0  0  0  0  6  0  0  0  0  0  0
   34.9266   13.0272    6.5878 N   0  0  0  0  0  0  0  0  0  0  0  0
   35.3211   10.8635    5.2952 O   0  0  0  0  0  0  0  0  0  0  0  0
   33.7667   12.6949    4.4523 O   0  0  0  0  0  0  0  0  0  0  0  0
   31.8186   12.3367    6.6969 S   0  0  0  0  0  0  0  0  0  0  0  0
  1  2  1  0
  2  3  1  0
  3  4  2  0
  3  5  2  0
  3  6  1  0
  6  7  1  0
  7  8  1  0
  8  9  1  0
  9 10  2  0
 10 11  1  0
 11 12  2  0
 12 13  1  0
 13 14  1  0
 13 15  2  0
 13 16  2  0
 12 17  1  0
 17  9  1  0
A    1
 C1 
A    2
 C2 
A    3
 S1 
A    4
 O1 
A    5
 O2 
A    6
 N1 
A    7
 C3 
A    8
 C4 
A    9
 C5 
A   10
 C6 
A   11
 C7 
A   12
 C8 
A   13
 S2 
A   14
 N2 
A   15
 O3 
A   16
 O4 
A   17
 S3 
M  END
>  <ref_pdb>  (687) 
Ax0310a

>  <ref_mols>  (687) 
Ax0446a,Ax1080a,Ax0812a,Ax0719a,Ax1140a,Ax0528a,Ax0310a

>  <original SMILES>  (687) 
CCS(=O)(=O)NCCc1ccc(S(N)(=O)=O)s1

>  <rationale>  (687) 
info info set:sulfonimide_whole;hbond:S87+S125; hydroph_interaction:Y90; 

>  <experiment>  (687) 
sulfonimide_whole

>  <cluster_label>  (687) 
3

>  <cluster_rank>  (687) 
344

>  <N_interactions>  (687) 
4

>  <∆∆G>  (687) 
-7.834061

>  <comRMSD>  (687) 
0.834742

>  <ROCS_TanimotoCombo>  (687) 
0.354

>  <ROCS_ShapeTanimoto>  (687) 
0.197

>  <ROCS_ColorTanimoto>  (687) 
0.158

$$$$
Z1729687753
     RDKit          3D

 14 14  0  0  0  0  0  0  0  0999 V2000
   35.6024   13.8384    6.9631 C   0  0  0  0  0  0  0  0  0  0  0  0
   34.3384   14.5261    7.3527 C   0  0  0  0  0  0  0  0  0  0  0  0
   33.1752   13.7707    8.3773 S   0  0  0  0  0  6  0  0  0  0  0  0
   32.4390   14.7179    9.1831 O   0  0  0  0  0  0  0  0  0  0  0  0
   33.9008   12.7265    8.9889 O   0  0  0  0  0  0  0  0  0  0  0  0
   32.0573   13.1947    7.2760 N   0  0  0  0  0  0  0  0  0  0  0  0
   31.9658   11.8143    7.2097 C   0  0  0  0  0  0  0  0  0  0  0  0
   33.0980   11.2747    6.3615 C   0  0  0  0  0  0  0  0  0  0  0  0
   33.1578    9.8094    6.2184 C   0  0  0  0  0  0  0  0  0  0  0  0
   34.1718    9.0481    5.4500 C   0  0  0  0  0  0  0  0  0  0  0  0
   32.0509    9.1019    6.9734 C   0  0  0  0  0  0  0  0  0  0  0  0
   31.0812    9.7579    7.7123 C   0  0  0  0  0  0  0  0  0  0  0  0
   30.1323    9.0120    8.3793 C   0  0  0  0  0  0  0  0  0  0  0  0
   31.0163   11.1061    7.8347 N   0  0  0  0  0  0  0  0  0  0  0  0
  1  2  1  0
  2  3  1  0
  3  4  2  0
  3  5  2  0
  3  6  1  0
  6  7  1  0
  7  8  2  0
  8  9  1  0
  9 10  1  0
  9 11  2  0
 11 12  1  0
 12 13  1  0
 12 14  2  0
 14  7  1  0
A    1
 C1 
A    2
 C2 
A    3
 S1 
A    4
 O1 
A    5
 O2 
A    6
 N1 
A    7
 C3 
A    8
 C4 
A    9
 C5 
A   10
 C6 
A   11
 C7 
A   12
 C8 
A   13
 C9 
A   14
 N2 
M  END
>  <ref_pdb>  (688) 
Ax0310a

>  <ref_mols>  (688) 
Ax0446a,Ax1080a,Ax0812a,Ax0719a,Ax1140a,Ax0528a,Ax0310a

>  <original SMILES>  (688) 
CCS(=O)(=O)Nc1cc(C)cc(C)n1

>  <rationale>  (688) 
info info set:3d;hbond:S87+G127; hydroph_interaction:E85; 

>  <experiment>  (688) 
3d

>  <cluster_label>  (688) 
3

>  <cluster_rank>  (688) 
345

>  <N_interactions>  (688) 
3

>  <∆∆G>  (688) 
-8.257659

>  <comRMSD>  (688) 
0.895447

>  <ROCS_TanimotoCombo>  (688) 
0.326

>  <ROCS_ShapeTanimoto>  (688) 
0.178

>  <ROCS_ColorTanimoto>  (688) 
0.148

$$$$
EN300_6510740
     RDKit          3D

 15 15  0  0  0  0  0  0  0  0999 V2000
   31.2010   12.4537    6.8766 C   0  0  0  0  0  0  0  0  0  0  0  0
   32.1363   11.4314    6.2599 C   0  0  0  0  0  0  0  0  0  0  0  0
   33.0105   11.7065    5.0010 C   0  0  0  0  0  0  0  0  0  0  0  0
   33.8223   10.7900    4.4690 N   0  0  0  0  0  0  0  0  0  0  0  0
   33.8493    9.6024    5.0826 C   0  0  0  0  0  0  0  0  0  0  0  0
   34.6695    8.6419    4.5461 N   0  0  0  0  0  0  0  0  0  0  0  0
   33.1551    9.2590    6.1626 N   0  0  0  0  0  0  0  0  0  0  0  0
   32.3288   10.1618    6.7207 C   0  0  0  0  0  0  0  0  0  0  0  0
   31.5379    9.7563    7.9804 C   0  0  0  0  0  0  0  0  0  0  0  0
   30.8763   10.6222    8.5267 O   0  0  0  0  0  0  0  0  0  0  0  0
   31.5986    8.4705    8.4950 O   0  0  0  0  0  0  0  0  0  0  0  0
   30.3250    8.4528    9.0194 C   0  0  0  0  0  0  0  0  0  0  0  0
   29.5870    7.3265    8.5963 C   0  0  0  0  0  0  0  0  0  0  0  0
   29.7680    9.6497    8.3810 C   0  0  0  0  0  0  0  0  0  0  0  0
   29.9903    8.1652   10.3923 C   0  0  0  0  0  0  0  0  0  0  0  0
  1  2  1  0
  2  3  2  0
  3  4  1  0
  4  5  2  0
  5  6  1  0
  5  7  1  0
  7  8  2  0
  8  9  1  0
  9 10  2  0
  9 11  1  0
 11 12  1  0
 12 13  1  0
 12 14  1  0
 12 15  1  0
  8  2  1  0
A    1
 C1 
A    2
 C2 
A    3
 C3 
A    4
 N1 
A    5
 C4 
A    6
 N2 
A    7
 N3 
A    8
 C5 
A    9
 C6 
A   10
 O1 
A   11
 O2 
A   12
 C7 
A   13
 C8 
A   14
 C9 
A   15
 C10
M  END
>  <ref_pdb>  (689) 
Ax0310a

>  <ref_mols>  (689) 
Ax0446a,Ax1080a,Ax0812a,Ax0719a,Ax1140a,Ax0528a,Ax0310a

>  <original SMILES>  (689) 
Cc1cnc(N)nc1C(=O)OC(C)(C)C

>  <rationale>  (689) 
info info set:bb_densepocket2;hbond:S105; hydroph_interaction:P107+V124+D109; 

>  <experiment>  (689) 
bb_densepocket2

>  <cluster_label>  (689) 
3

>  <cluster_rank>  (689) 
346

>  <N_interactions>  (689) 
5

>  <∆∆G>  (689) 
-2.93791

>  <comRMSD>  (689) 
0.966232

>  <ROCS_TanimotoCombo>  (689) 
0.617

>  <ROCS_ShapeTanimoto>  (689) 
0.232

>  <ROCS_ColorTanimoto>  (689) 
0.385

$$$$
Z933723030
     RDKit          3D

 18 19  0  0  0  0  0  0  0  0999 V2000
   29.8814   12.2771    6.1503 O   0  0  0  0  0  0  0  0  0  0  0  0
   30.1410   12.8535    7.1833 C   0  0  0  0  0  0  0  0  0  0  0  0
   31.4484   13.0071    7.6247 N   0  0  0  0  0  0  0  0  0  0  0  0
   32.2181   12.0378    8.0339 C   0  0  0  0  0  0  0  0  0  0  0  0
   33.0798   11.5808    6.8874 C   0  0  0  0  0  0  0  0  0  0  0  0
   34.0242   12.6560    6.3849 C   0  0  0  0  0  0  0  0  0  0  0  0
   34.9104   12.1864    5.2408 C   0  0  0  0  0  0  0  0  0  0  0  0
   34.7824   10.7641    4.7273 C   0  0  0  0  0  0  0  0  0  0  0  0
   33.7787    9.7679    5.3246 C   0  0  0  0  0  0  0  0  0  0  0  0
   32.9656   10.1234    6.3379 C   0  0  0  0  0  0  0  0  0  0  0  0
   32.0982    9.2405    6.8521 F   0  0  0  0  0  0  0  0  0  0  0  0
   29.1624   13.3476    7.9581 N   0  0  0  0  0  0  0  0  0  0  0  0
   27.9163   13.3964    7.4939 C   0  0  0  0  0  0  0  0  0  0  0  0
   27.6260   14.8492    7.6345 C   0  0  0  0  0  0  0  0  0  0  0  0
   28.4725   15.1992    8.8019 C   0  0  0  0  0  0  0  0  0  0  0  0
   29.2964   14.1417    9.1201 C   0  0  2  0  0  0  0  0  0  0  0  0
   30.6086   14.6846    9.6133 C   0  0  0  0  0  0  0  0  0  0  0  0
   31.7469   14.0012    9.1134 O   0  0  0  0  0  0  0  0  0  0  0  0
  1  2  2  0
  2  3  1  0
  3  4  1  0
  4  5  1  0
  5  6  2  0
  6  7  1  0
  7  8  2  0
  8  9  1  0
  9 10  2  0
 10 11  1  0
  2 12  1  0
 12 13  1  0
 13 14  1  0
 14 15  1  0
 15 16  1  0
 16 17  1  6
 17 18  1  0
 10  5  1  0
 16 12  1  0
A    1
 O1 
A    2
 C1 
A    3
 N1 
A    4
 C2 
A    5
 C3 
A    6
 C4 
A    7
 C5 
A    8
 C6 
A    9
 C7 
A   10
 C8 
A   11
 F1 
A   12
 N2 
A   13
 C9 
A   14
 C10
A   15
 C11
A   16
 C12
A   17
 C13
A   18
 O2 
M  END
>  <ref_pdb>  (690) 
Ax0310a

>  <ref_mols>  (690) 
Ax0446a,Ax1080a,Ax0812a,Ax0719a,Ax1140a,Ax0528a,Ax0310a

>  <original SMILES>  (690) 
O=C(NCc1ccccc1F)N1CCC[C@@H]1CO

>  <rationale>  (690) 
info info set:3d;halogenbond:S105; hbond:S87; hydroph_interaction:Y89+Y90; 

>  <experiment>  (690) 
3d

>  <cluster_label>  (690) 
3

>  <cluster_rank>  (690) 
347

>  <N_interactions>  (690) 
4

>  <∆∆G>  (690) 
-2.1278

>  <comRMSD>  (690) 
0.799742

>  <ROCS_TanimotoCombo>  (690) 
0.329

>  <ROCS_ShapeTanimoto>  (690) 
0.21

>  <ROCS_ColorTanimoto>  (690) 
0.119

$$$$
Z1431484556
     RDKit          3D

 16 17  0  0  0  0  0  0  0  0999 V2000
   32.5529   13.5986    8.7301 O   0  0  0  0  0  0  0  0  0  0  0  0
   31.6646   13.0393    8.1025 C   0  0  0  0  0  0  0  0  0  0  0  0
   31.7948   11.7609    7.6318 C   0  0  0  0  0  0  0  0  0  0  0  0
   31.0134   10.7385    8.1842 C   0  0  0  0  0  0  0  0  0  0  0  0
   31.2281    9.3861    7.6746 C   0  0  0  0  0  0  0  0  0  0  0  0
   32.2180    9.1335    6.6209 C   0  0  0  0  0  0  0  0  0  0  0  0
   32.9274   10.1862    6.1056 C   0  0  0  0  0  0  0  0  0  0  0  0
   34.0682    9.8873    4.8553 Cl  0  0  0  0  0  0  0  0  0  0  0  0
   32.7237   11.4811    6.5999 C   0  0  0  0  0  0  0  0  0  0  0  0
   33.4414   12.4874    6.0785 F   0  0  0  0  0  0  0  0  0  0  0  0
   30.4046   13.6579    7.8208 N   0  0  0  0  0  0  0  0  0  0  0  0
   29.4662   13.1556    6.8061 C   0  0  0  0  0  0  0  0  0  0  0  0
   28.1135   13.8052    6.9029 C   0  0  0  0  0  0  0  0  0  0  0  0
   28.2104   15.1629    7.2897 O   0  0  0  0  0  0  0  0  0  0  0  0
   28.7454   15.3178    8.5897 C   0  0  0  0  0  0  0  0  0  0  0  0
   29.8509   14.4911    8.8581 C   0  0  0  0  0  0  0  0  0  0  0  0
  1  2  2  0
  2  3  1  0
  3  4  2  0
  4  5  1  0
  5  6  2  0
  6  7  1  0
  7  8  1  0
  7  9  2  0
  9 10  1  0
  2 11  1  0
 11 12  1  0
 12 13  1  0
 13 14  1  0
 14 15  1  0
 15 16  1  0
  9  3  1  0
 16 11  1  0
A    1
 O1 
A    2
 C1 
A    3
 C2 
A    4
 C3 
A    5
 C4 
A    6
 C5 
A    7
 C6 
A    8
CL1 
A    9
 C7 
A   10
 F1 
A   11
 N1 
A   12
 C8 
A   13
 C9 
A   14
 O2 
A   15
 C10
A   16
 C11
M  END
>  <ref_pdb>  (691) 
Ax0310a

>  <ref_mols>  (691) 
Ax0446a,Ax1080a,Ax0812a,Ax0719a,Ax1140a,Ax0528a,Ax0310a

>  <original SMILES>  (691) 
O=C(c1cccc(Cl)c1F)N1CCOCC1

>  <rationale>  (691) 
info info set:3d;hbond:S87+G127; 

>  <experiment>  (691) 
3d

>  <cluster_label>  (691) 
3

>  <cluster_rank>  (691) 
348

>  <N_interactions>  (691) 
2

>  <∆∆G>  (691) 
-6.081593

>  <comRMSD>  (691) 
0.566954

>  <ROCS_TanimotoCombo>  (691) 
0.312

>  <ROCS_ShapeTanimoto>  (691) 
0.212

>  <ROCS_ColorTanimoto>  (691) 
0.1

$$$$
Z2118085153
     RDKit          3D

 19 21  0  0  0  0  0  0  0  0999 V2000
   27.8126   15.6703    9.0059 C   0  0  0  0  0  0  0  0  0  0  0  0
   28.4973   15.4911    7.7975 O   0  0  0  0  0  0  0  0  0  0  0  0
   28.3114   14.1427    7.4827 C   0  0  1  0  0  0  0  0  0  0  0  0
   28.8033   13.7938    6.0967 C   0  0  0  0  0  0  0  0  0  0  0  0
   29.9879   12.8845    6.3228 C   0  0  0  0  0  0  0  0  0  0  0  0
   30.0713   12.5355    7.7099 N   0  0  0  0  0  0  0  0  0  0  0  0
   30.5720   11.2812    8.0001 C   0  0  0  0  0  0  0  0  0  0  0  0
   30.2108   10.5585    8.8931 O   0  0  0  0  0  0  0  0  0  0  0  0
   31.6152   10.7426    7.1664 C   0  0  0  0  0  0  0  0  0  0  0  0
   32.3912   11.5460    6.3972 C   0  0  0  0  0  0  0  0  0  0  0  0
   33.3644   11.0943    5.6140 N   0  0  0  0  0  0  0  0  0  0  0  0
   33.5822    9.7763    5.5899 C   0  0  0  0  0  0  0  0  0  0  0  0
   34.7350    9.3866    4.6785 C   0  0  0  0  0  0  0  0  0  0  0  0
   34.9137    8.1516    3.8260 C   0  0  0  0  0  0  0  0  0  0  0  0
   34.5690    9.4351    3.1746 C   0  0  0  0  0  0  0  0  0  0  0  0
   32.8478    8.9043    6.3296 N   0  0  0  0  0  0  0  0  0  0  0  0
   31.8641    9.3962    7.1182 C   0  0  0  0  0  0  0  0  0  0  0  0
   31.1073    8.4902    7.8881 N   0  0  0  0  0  0  0  0  0  0  0  0
   29.1293   13.3231    8.4798 C   0  0  0  0  0  0  0  0  0  0  0  0
  1  2  1  0
  3  2  1  1
  3  4  1  0
  4  5  1  0
  5  6  1  0
  6  7  1  0
  7  8  2  0
  7  9  1  0
  9 10  2  0
 10 11  1  0
 11 12  2  0
 12 13  1  0
 13 14  1  0
 14 15  1  0
 12 16  1  0
 16 17  2  0
 17 18  1  0
  6 19  1  0
 19  3  1  0
 17  9  1  0
 15 13  1  0
A    1
 C1 
A    2
 O1 
A    3
 C2 
A    4
 C3 
A    5
 C4 
A    6
 N1 
A    7
 C5 
A    8
 O2 
A    9
 C6 
A   10
 C7 
A   11
 N2 
A   12
 C8 
A   13
 C9 
A   14
 C10
A   15
 C11
A   16
 N3 
A   17
 C12
A   18
 N4 
A   19
 C13
M  END
>  <ref_pdb>  (692) 
Ax0310a

>  <ref_mols>  (692) 
Ax0446a,Ax1080a,Ax0812a,Ax0719a,Ax1140a,Ax0528a,Ax0310a

>  <original SMILES>  (692) 
CO[C@H]1CCN(C(=O)c2cnc(C3CC3)nc2N)C1

>  <rationale>  (692) 
info info set:screening_pocket;hbond:S87+S105; hydroph_interaction:P107; 

>  <experiment>  (692) 
screening_pocket

>  <cluster_label>  (692) 
3

>  <cluster_rank>  (692) 
349

>  <N_interactions>  (692) 
3

>  <∆∆G>  (692) 
-4.304466

>  <comRMSD>  (692) 
0.728318

>  <ROCS_TanimotoCombo>  (692) 
0.664

>  <ROCS_ShapeTanimoto>  (692) 
0.27

>  <ROCS_ColorTanimoto>  (692) 
0.394

$$$$
EN300_735809
     RDKit          3D

 14 14  0  0  0  0  0  0  0  0999 V2000
   34.9266   14.4505    8.4450 C   0  0  0  0  0  0  0  0  0  0  0  0
   33.9174   13.4509    8.2837 O   0  0  0  0  0  0  0  0  0  0  0  0
   33.5416   13.1599    6.9903 C   0  0  0  0  0  0  0  0  0  0  0  0
   33.8337   13.7627    5.9724 O   0  0  0  0  0  0  0  0  0  0  0  0
   32.7095   11.9249    7.1058 C   0  0  2  0  0  0  0  0  0  0  0  0
   32.2633   11.1605    5.9436 C   0  0  0  0  0  0  0  0  0  0  0  0
   32.6032    9.6370    6.1989 C   0  0  0  0  0  0  0  0  0  0  0  0
   31.4872    9.5040    7.3628 C   0  0  0  0  0  0  0  0  0  0  0  0
   30.8343   10.7575    8.0040 C   0  0  0  0  0  0  0  0  0  0  0  0
   31.4512   11.9629    7.9106 C   0  0  2  0  0  0  0  0  0  0  0  0
   30.3646   13.3223    7.7871 S   0  0  0  0  0  6  0  0  0  0  0  0
   28.9246   12.8692    8.6129 N   0  0  0  0  0  0  0  0  0  0  0  0
   29.9939   13.6391    6.3598 O   0  0  0  0  0  0  0  0  0  0  0  0
   30.9689   14.4531    8.5452 O   0  0  0  0  0  0  0  0  0  0  0  0
  1  2  1  0
  2  3  1  0
  3  4  2  0
  5  3  1  6
  5  6  1  0
  6  7  1  0
  7  8  1  0
  8  9  1  0
  9 10  1  0
 10 11  1  6
 11 12  1  0
 11 13  2  0
 11 14  2  0
 10  5  1  0
A    1
 C1 
A    2
 O1 
A    3
 C2 
A    4
 O2 
A    5
 C3 
A    6
 C4 
A    7
 C5 
A    8
 C6 
A    9
 C7 
A   10
 C8 
A   11
 S1 
A   12
 N1 
A   13
 O3 
A   14
 O4 
M  END
>  <ref_pdb>  (693) 
Ax0310a

>  <ref_mols>  (693) 
Ax0446a,Ax1080a,Ax0812a,Ax0719a,Ax1140a,Ax0528a,Ax0310a

>  <original SMILES>  (693) 
COC(=O)[C@@H]1CCCC[C@@H]1S(N)(=O)=O

>  <rationale>  (693) 
info info set:sulfonimide_whole;hbond:S87+S125; hydroph_interaction:P107; 

>  <experiment>  (693) 
sulfonimide_whole

>  <cluster_label>  (693) 
3

>  <cluster_rank>  (693) 
350

>  <N_interactions>  (693) 
3

>  <∆∆G>  (693) 
-3.220122

>  <comRMSD>  (693) 
0.650437

>  <ROCS_TanimotoCombo>  (693) 
0.356

>  <ROCS_ShapeTanimoto>  (693) 
0.192

>  <ROCS_ColorTanimoto>  (693) 
0.164

$$$$
EN300_103227
     RDKit          3D

 10 10  0  0  0  0  0  0  0  0999 V2000
   29.8466    8.7409    8.7520 C   0  0  0  0  0  0  0  0  0  0  0  0
   31.1465    8.2435    8.3258 C   0  0  0  0  0  0  0  0  0  0  0  0
   31.7241    9.3062    7.3965 C   0  0  0  0  0  0  0  0  0  0  0  0
   32.6622    8.7409    6.6103 N   0  0  0  0  0  0  0  0  0  0  0  0
   33.2967    9.4971    5.7145 C   0  0  0  0  0  0  0  0  0  0  0  0
   33.0543   10.9783    5.5007 C   0  0  0  0  0  0  0  0  0  0  0  0
   32.0836   11.4481    6.3557 C   0  0  0  0  0  0  0  0  0  0  0  0
   31.4072   10.6718    7.2965 C   0  0  0  0  0  0  0  0  0  0  0  0
   30.3866   11.4475    8.1058 C   0  0  0  0  0  0  0  0  0  0  0  0
   30.7121   12.4156    8.7628 O   0  0  0  0  0  0  0  0  0  0  0  0
  1  2  1  0
  2  3  1  0
  3  4  2  0
  4  5  1  0
  5  6  2  0
  6  7  1  0
  7  8  2  0
  8  9  1  0
  9 10  2  0
  8  3  1  0
A    1
 C1 
A    2
 C2 
A    3
 C3 
A    4
 N1 
A    5
 C4 
A    6
 C5 
A    7
 C6 
A    8
 C7 
A    9
 C8 
A   10
 O1 
M  END
>  <ref_pdb>  (694) 
Ax0310a

>  <ref_mols>  (694) 
Ax0446a,Ax1080a,Ax0812a,Ax0719a,Ax1140a,Ax0528a,Ax0310a

>  <original SMILES>  (694) 
CCc1ncccc1C=O

>  <rationale>  (694) 
info info set:bb_densepocket2;hbond:G127; hydroph_interaction:P107+V124; 

>  <experiment>  (694) 
bb_densepocket2

>  <cluster_label>  (694) 
3

>  <cluster_rank>  (694) 
351

>  <N_interactions>  (694) 
3

>  <∆∆G>  (694) 
-3.987836

>  <comRMSD>  (694) 
0.60317

>  <ROCS_TanimotoCombo>  (694) 
0.625

>  <ROCS_ShapeTanimoto>  (694) 
0.195

>  <ROCS_ColorTanimoto>  (694) 
0.43

$$$$
Z825741288
     RDKit          3D

 14 15  0  0  0  0  0  0  0  0999 V2000
   33.0608   13.0349    8.7784 O   0  0  0  0  0  0  0  0  0  0  0  0
   31.8942   13.4460    8.6308 C   0  0  0  0  0  0  0  0  0  0  0  0
   31.5161   14.5747    9.2484 O   0  0  0  0  0  0  0  0  0  0  0  0
   30.7638   12.7929    7.8139 C   0  0  0  0  0  0  0  0  0  0  0  0
   31.2248   11.4008    7.5158 C   0  0  0  0  0  0  0  0  0  0  0  0
   30.6920   10.4056    8.2675 C   0  0  0  0  0  0  0  0  0  0  0  0
   31.1597    9.0365    7.9995 C   0  0  0  0  0  0  0  0  0  0  0  0
   32.1480    8.8496    6.9583 C   0  0  0  0  0  0  0  0  0  0  0  0
   32.6244    9.9229    6.2353 C   0  0  0  0  0  0  0  0  0  0  0  0
   32.1665   11.1740    6.5122 C   0  0  0  0  0  0  0  0  0  0  0  0
   32.6521   12.1972    5.7898 F   0  0  0  0  0  0  0  0  0  0  0  0
   30.3573   13.2668    6.5669 C   0  0  0  0  0  0  0  0  0  0  0  0
   29.1396   13.7991    7.0561 C   0  0  0  0  0  0  0  0  0  0  0  0
   29.2331   13.1929    8.3093 C   0  0  0  0  0  0  0  0  0  0  0  0
  1  2  2  0
  2  3  1  0
  2  4  1  0
  4  5  1  0
  5  6  2  0
  6  7  1  0
  7  8  2  0
  8  9  1  0
  9 10  2  0
 10 11  1  0
  4 12  1  0
 12 13  1  0
 13 14  1  0
 14  4  1  0
 10  5  1  0
A    1
 O1 
A    2
 C1 
A    3
 O2 
A    4
 C2 
A    5
 C3 
A    6
 C4 
A    7
 C5 
A    8
 C6 
A    9
 C7 
A   10
 C8 
A   11
 F1 
A   12
 C9 
A   13
 C10
A   14
 C11
M  END
>  <ref_pdb>  (695) 
Ax0310a

>  <ref_mols>  (695) 
Ax0446a,Ax1080a,Ax0812a,Ax0719a,Ax1140a,Ax0528a,Ax0310a

>  <original SMILES>  (695) 
O=C(O)C1(c2ccccc2F)CCC1

>  <rationale>  (695) 
info info set:3d;hbond:S87+G127; 

>  <experiment>  (695) 
3d

>  <cluster_label>  (695) 
3

>  <cluster_rank>  (695) 
352

>  <N_interactions>  (695) 
3

>  <∆∆G>  (695) 
-4.361127

>  <comRMSD>  (695) 
0.413645

>  <ROCS_TanimotoCombo>  (695) 
0.316

>  <ROCS_ShapeTanimoto>  (695) 
0.2

>  <ROCS_ColorTanimoto>  (695) 
0.116

$$$$
EN300_832832
     RDKit          3D

 13 14  0  0  0  0  0  0  0  0999 V2000
   30.4152   13.0986    8.8724 N   0  0  0  0  0  0  0  0  0  0  0  0
   29.9279   12.3428    7.4713 S   0  0  0  0  0  6  0  0  0  0  0  0
   28.6258   11.7897    7.6485 O   0  0  0  0  0  0  0  0  0  0  0  0
   30.1079   13.3359    6.4414 O   0  0  0  0  0  0  0  0  0  0  0  0
   31.1124   11.0639    7.1668 C   0  0  0  0  0  0  0  0  0  0  0  0
   30.9698    9.6305    7.6247 C   0  0  0  0  0  0  0  0  0  0  0  0
   31.9966    8.8584    7.2030 O   0  0  0  0  0  0  0  0  0  0  0  0
   32.7968    9.8341    6.4792 C   0  0  0  0  0  0  0  0  0  0  0  0
   34.1216    9.4524    5.7590 C   0  0  0  0  0  0  0  0  0  0  0  0
   34.9698   10.4827    5.0264 C   0  0  0  0  0  0  0  0  0  0  0  0
   34.4084   11.9052    5.0560 C   0  0  0  0  0  0  0  0  0  0  0  0
   33.0865   12.2525    5.7575 C   0  0  0  0  0  0  0  0  0  0  0  0
   32.3055   11.1415    6.4659 C   0  0  0  0  0  0  0  0  0  0  0  0
  1  2  1  0
  2  3  2  0
  2  4  2  0
  2  5  1  0
  5  6  2  0
  6  7  1  0
  7  8  1  0
  8  9  2  0
  9 10  1  0
 10 11  2  0
 11 12  1  0
 12 13  2  0
 13  5  1  0
 13  8  1  0
A    1
 N1 
A    2
 S1 
A    3
 O1 
A    4
 O2 
A    5
 C1 
A    6
 C2 
A    7
 O3 
A    8
 C3 
A    9
 C4 
A   10
 C5 
A   11
 C6 
A   12
 C7 
A   13
 C8 
M  END
>  <ref_pdb>  (696) 
Ax0310a

>  <ref_mols>  (696) 
Ax0446a,Ax1080a,Ax0812a,Ax0719a,Ax1140a,Ax0528a,Ax0310a

>  <original SMILES>  (696) 
NS(=O)(=O)c1coc2ccccc12

>  <rationale>  (696) 
info info set:sulfonimide_whole;hbond:S87+S125; hydroph_interaction:P107; 

>  <experiment>  (696) 
sulfonimide_whole

>  <cluster_label>  (696) 
3

>  <cluster_rank>  (696) 
353

>  <N_interactions>  (696) 
3

>  <∆∆G>  (696) 
-6.407439

>  <comRMSD>  (696) 
0.699183

>  <ROCS_TanimotoCombo>  (696) 
0.337

>  <ROCS_ShapeTanimoto>  (696) 
0.196

>  <ROCS_ColorTanimoto>  (696) 
0.141

$$$$
EN300_801151
     RDKit          3D

 17 18  0  0  0  0  0  0  0  0999 V2000
   34.9059   11.6825    2.3079 C   0  0  0  0  0  0  0  0  0  0  0  0
   34.2243   11.1139    3.5258 C   0  0  0  0  0  0  0  0  0  0  0  0
   34.4688    9.8139    3.9404 C   0  0  0  0  0  0  0  0  0  0  0  0
   33.8390    9.2875    5.0560 C   0  0  0  0  0  0  0  0  0  0  0  0
   32.9355   10.0304    5.7978 C   0  0  0  0  0  0  0  0  0  0  0  0
   32.3342    9.4877    6.8564 N   0  0  0  0  0  0  0  0  0  0  0  0
   31.4708   10.2597    7.5566 C   0  0  0  0  0  0  0  0  0  0  0  0
   30.8685    9.6679    8.7543 C   0  0  0  0  0  0  0  0  0  0  0  0
   29.8142    8.7151    8.9672 C   0  0  0  0  0  0  0  0  0  0  0  0
   28.9181    8.7519    7.9889 C   0  0  0  0  0  0  0  0  0  0  0  0
   29.0844    8.6953   10.1355 C   0  0  0  0  0  0  0  0  0  0  0  0
   30.4341    7.4709    8.8645 C   0  0  0  0  0  0  0  0  0  0  0  0
   31.1679   11.5563    7.2490 C   0  0  0  0  0  0  0  0  0  0  0  0
   30.2866   12.2809    8.0209 O   0  0  0  0  0  0  0  0  0  0  0  0
   31.7818   12.1143    6.1507 C   0  0  0  0  0  0  0  0  0  0  0  0
   32.6856   11.3504    5.4008 C   0  0  0  0  0  0  0  0  0  0  0  0
   33.3287   11.8834    4.2695 C   0  0  0  0  0  0  0  0  0  0  0  0
  1  2  1  0
  2  3  2  0
  3  4  1  0
  4  5  2  0
  5  6  1  0
  6  7  2  0
  7  8  1  0
  8  9  1  0
  9 10  1  0
  9 11  1  0
  9 12  1  0
  7 13  1  0
 13 14  1  0
 13 15  2  0
 15 16  1  0
 16 17  2  0
 17  2  1  0
 16  5  1  0
A    1
 C1 
A    2
 C2 
A    3
 C3 
A    4
 C4 
A    5
 C5 
A    6
 N1 
A    7
 C6 
A    8
 C7 
A    9
 C8 
A   10
 C9 
A   11
 C10
A   12
 C11
A   13
 C12
A   14
 O1 
A   15
 C13
A   16
 C14
A   17
 C15
M  END
>  <ref_pdb>  (697) 
Ax0310a

>  <ref_mols>  (697) 
Ax0446a,Ax1080a,Ax0812a,Ax0719a,Ax1140a,Ax0528a,Ax0310a

>  <original SMILES>  (697) 
Cc1ccc2nc(CC(C)(C)C)c(O)cc2c1

>  <rationale>  (697) 
info info set:bb_densepocket2;hbond:S125; hydroph_interaction:P107+D109; 

>  <experiment>  (697) 
bb_densepocket2

>  <cluster_label>  (697) 
3

>  <cluster_rank>  (697) 
354

>  <N_interactions>  (697) 
3

>  <∆∆G>  (697) 
-0.292565

>  <comRMSD>  (697) 
0.782005

>  <ROCS_TanimotoCombo>  (697) 
0.646

>  <ROCS_ShapeTanimoto>  (697) 
0.24

>  <ROCS_ColorTanimoto>  (697) 
0.406

$$$$
EN300_3000494
     RDKit          3D

 12 12  0  0  0  0  0  0  0  0999 V2000
   30.0560    8.7567    8.4411 C   0  0  0  0  0  0  0  0  0  0  0  0
   31.3254    8.3869    8.0562 N   0  0  0  0  0  0  0  0  0  0  0  0
   31.9903    9.2886    7.1183 C   0  0  0  0  0  0  0  0  0  0  0  0
   32.9540    8.7995    6.3558 N   0  0  0  0  0  0  0  0  0  0  0  0
   33.5852    9.5758    5.5152 C   0  0  0  0  0  0  0  0  0  0  0  0
   33.2657   11.0624    5.3609 C   0  0  0  0  0  0  0  0  0  0  0  0
   32.2578   11.5494    6.1617 C   0  0  0  0  0  0  0  0  0  0  0  0
   31.5354   10.7740    7.0831 C   0  0  0  0  0  0  0  0  0  0  0  0
   30.4248   11.4135    7.9299 C   0  0  0  0  0  0  0  0  0  0  0  0
   30.0684   10.8581    8.8970 O   0  0  0  0  0  0  0  0  0  0  0  0
   29.9707   12.5855    7.4172 O   0  0  0  0  0  0  0  0  0  0  0  0
   28.7075   13.0247    7.9535 C   0  0  0  0  0  0  0  0  0  0  0  0
  1  2  1  0
  2  3  1  0
  3  4  2  0
  4  5  1  0
  5  6  2  0
  6  7  1  0
  7  8  2  0
  8  9  1  0
  9 10  2  0
  9 11  1  0
 11 12  1  0
  8  3  1  0
A    1
 C1 
A    2
 N1 
A    3
 C2 
A    4
 N2 
A    5
 C3 
A    6
 C4 
A    7
 C5 
A    8
 C6 
A    9
 C7 
A   10
 O1 
A   11
 O2 
A   12
 C8 
M  END
>  <ref_pdb>  (698) 
Ax0310a

>  <ref_mols>  (698) 
Ax0446a,Ax1080a,Ax0812a,Ax0719a,Ax1140a,Ax0528a,Ax0310a

>  <original SMILES>  (698) 
CNc1ncccc1C(=O)OC

>  <rationale>  (698) 
info info set:bb_densepocket2;hbond:S105; hydroph_interaction:P107; 

>  <experiment>  (698) 
bb_densepocket2

>  <cluster_label>  (698) 
3

>  <cluster_rank>  (698) 
355

>  <N_interactions>  (698) 
2

>  <∆∆G>  (698) 
-4.113298

>  <comRMSD>  (698) 
0.605795

>  <ROCS_TanimotoCombo>  (698) 
0.646

>  <ROCS_ShapeTanimoto>  (698) 
0.23

>  <ROCS_ColorTanimoto>  (698) 
0.416

$$$$
Z3825743276
     RDKit          3D

 15 16  0  0  0  0  0  0  0  0999 V2000
   32.1695   13.3509    8.3954 C   0  0  0  0  0  0  0  0  0  0  0  0
   30.7138   13.0129    8.6422 C   0  0  2  0  0  0  0  0  0  0  0  0
   30.4541   11.5900    8.4067 N   0  0  0  0  0  0  0  0  0  0  0  0
   31.3658   10.8990    7.5160 C   0  0  0  0  0  0  0  0  0  0  0  0
   32.1703   11.6459    6.5528 N   0  0  0  0  0  0  0  0  0  0  0  0
   33.0165   10.9186    5.7603 C   0  0  0  0  0  0  0  0  0  0  0  0
   33.0554    9.3677    5.9450 C   0  0  0  0  0  0  0  0  0  0  0  0
   32.2798    8.7249    6.8569 N   0  0  0  0  0  0  0  0  0  0  0  0
   31.4577    9.4807    7.6172 C   0  0  0  0  0  0  0  0  0  0  0  0
   30.6843    8.8147    8.5357 N   0  0  0  0  0  0  0  0  0  0  0  0
   29.6010   13.7724    7.9122 C   0  0  0  0  0  0  0  0  0  0  0  0
   29.0882   13.3147    6.5860 C   0  0  0  0  0  0  0  0  0  0  0  0
   28.0523   14.2586    6.2107 C   0  0  0  0  0  0  0  0  0  0  0  0
   27.9555   15.2220    7.2528 O   0  0  0  0  0  0  0  0  0  0  0  0
   28.8725   14.9044    8.2281 C   0  0  0  0  0  0  0  0  0  0  0  0
  2  1  1  6
  2  3  1  0
  3  4  1  0
  4  5  2  0
  5  6  1  0
  6  7  2  0
  7  8  1  0
  8  9  2  0
  9 10  1  0
  2 11  1  0
 11 12  1  0
 12 13  2  0
 13 14  1  0
 14 15  1  0
  9  4  1  0
 15 11  2  0
A    1
 C1 
A    2
 C2 
A    3
 N1 
A    4
 C3 
A    5
 N2 
A    6
 C4 
A    7
 C5 
A    8
 N3 
A    9
 C6 
A   10
 N4 
A   11
 C7 
A   12
 C8 
A   13
 C9 
A   14
 O1 
A   15
 C10
M  END
>  <ref_pdb>  (699) 
Ax0310a

>  <ref_mols>  (699) 
Ax0446a,Ax1080a,Ax0812a,Ax0719a,Ax1140a,Ax0528a,Ax0310a

>  <original SMILES>  (699) 
C[C@H](Nc1nccnc1N)c1ccoc1

>  <rationale>  (699) 
info info set:screening_pocket;hbond:S105+S125+G127; hydroph_interaction:P107; pistack:H21; 

>  <experiment>  (699) 
screening_pocket

>  <cluster_label>  (699) 
3

>  <cluster_rank>  (699) 
356

>  <N_interactions>  (699) 
5

>  <∆∆G>  (699) 
-5.322192

>  <comRMSD>  (699) 
0.452466

>  <ROCS_TanimotoCombo>  (699) 
0.637

>  <ROCS_ShapeTanimoto>  (699) 
0.228

>  <ROCS_ColorTanimoto>  (699) 
0.408

$$$$
Z1517553983
     RDKit          3D

 22 24  0  0  0  0  0  0  0  0999 V2000
   29.7088    8.4363    8.6505 C   0  0  0  0  0  0  0  0  0  0  0  0
   31.1058    8.1389    8.2997 C   0  0  0  0  0  0  0  0  0  0  0  0
   31.7216    9.1818    7.4271 C   0  0  0  0  0  0  0  0  0  0  0  0
   32.6892    8.5711    6.5763 O   0  0  0  0  0  0  0  0  0  0  0  0
   33.2017    9.6677    5.7813 C   0  0  0  0  0  0  0  0  0  0  0  0
   34.3015    9.4901    4.6735 C   0  0  0  0  0  0  0  0  0  0  0  0
   34.4862   10.9776    4.1303 C   0  0  0  0  0  0  0  0  0  0  0  0
   33.7507   12.2047    4.6120 C   0  0  0  0  0  0  0  0  0  0  0  0
   32.8028   12.1744    5.6091 C   0  0  0  0  0  0  0  0  0  0  0  0
   32.5005   10.9815    6.2019 C   0  0  0  0  0  0  0  0  0  0  0  0
   31.5751   10.4986    7.2717 C   0  0  0  0  0  0  0  0  0  0  0  0
   30.7062   11.1743    8.0102 C   0  0  0  0  0  0  0  0  0  0  0  0
   30.2666   10.6134    8.9646 O   0  0  0  0  0  0  0  0  0  0  0  0
   30.3108   12.5104    7.6372 N   0  0  0  0  0  0  0  0  0  0  0  0
   29.4176   13.0530    8.5805 C   0  0  0  0  0  0  0  0  0  0  0  0
   28.5439   13.9060    8.0276 C   0  0  0  0  0  0  0  0  0  0  0  0
   28.6331   15.1960    8.0954 N   0  0  0  0  0  0  0  0  0  0  0  0
   27.6619   15.6435    7.5056 N   0  0  0  0  0  0  0  0  0  0  0  0
   26.8891   14.6880    7.0267 C   0  0  0  0  0  0  0  0  0  0  0  0
   25.4025   14.7546    6.1422 S   0  0  0  0  0  0  0  0  0  0  0  0
   27.4261   13.5557    7.3212 N   0  0  0  0  0  0  0  0  0  0  0  0
   26.9001   12.2889    6.9543 C   0  0  0  0  0  0  0  0  0  0  0  0
  1  2  1  0
  2  3  1  0
  3  4  1  0
  4  5  1  0
  5  6  2  0
  6  7  1  0
  7  8  2  0
  8  9  1  0
  9 10  2  0
 10 11  1  0
 11 12  1  0
 12 13  2  0
 12 14  1  0
 14 15  1  0
 15 16  1  0
 16 17  2  0
 17 18  1  0
 18 19  2  0
 19 20  1  0
 19 21  1  0
 21 22  1  0
 11  3  2  0
 21 16  1  0
 10  5  1  0
A    1
 C1 
A    2
 C2 
A    3
 C3 
A    4
 O1 
A    5
 C4 
A    6
 C5 
A    7
 C6 
A    8
 C7 
A    9
 C8 
A   10
 C9 
A   11
 C10
A   12
 C11
A   13
 O2 
A   14
 N1 
A   15
 C12
A   16
 C13
A   17
 N2 
A   18
 N3 
A   19
 C14
A   20
 S1 
A   21
 N4 
A   22
 C15
M  END
>  <ref_pdb>  (700) 
Ax0310a

>  <ref_mols>  (700) 
Ax0446a,Ax1080a,Ax0812a,Ax0719a,Ax1140a,Ax0528a,Ax0310a

>  <original SMILES>  (700) 
CCc1oc2ccccc2c1C(=O)NCc1nnc(S)n1C

>  <rationale>  (700) 
info info set:screening_pocket;hydroph_interaction:P107+V124; pistack:H21; 

>  <experiment>  (700) 
screening_pocket

>  <cluster_label>  (700) 
3

>  <cluster_rank>  (700) 
357

>  <N_interactions>  (700) 
3

>  <∆∆G>  (700) 
-8.630171

>  <comRMSD>  (700) 
0.745627

>  <ROCS_TanimotoCombo>  (700) 
0.651

>  <ROCS_ShapeTanimoto>  (700) 
0.276

>  <ROCS_ColorTanimoto>  (700) 
0.375

$$$$
Z1705875725
     RDKit          3D

 17 18  0  0  0  0  0  0  0  0999 V2000
   36.1140    7.1058    4.6772 C   0  0  0  0  0  0  0  0  0  0  0  0
   35.0532    8.0088    4.0379 C   0  0  0  0  0  0  0  0  0  0  0  0
   34.7840    9.2278    4.8134 N   0  0  0  0  0  0  0  0  0  0  0  0
   33.7070    9.6837    5.5882 C   0  0  0  0  0  0  0  0  0  0  0  0
   32.9903    8.8087    6.4089 N   0  0  0  0  0  0  0  0  0  0  0  0
   31.9982    9.3441    7.1736 C   0  0  0  0  0  0  0  0  0  0  0  0
   31.6841   10.8505    7.1367 C   0  0  0  0  0  0  0  0  0  0  0  0
   30.5791   11.3188    8.0782 C   0  0  0  0  0  0  0  0  0  0  0  0
   30.0805   10.4619    8.7721 O   0  0  0  0  0  0  0  0  0  0  0  0
   30.3174   12.6942    8.0485 N   0  0  0  0  0  0  0  0  0  0  0  0
   29.1002   13.4267    8.3842 C   0  0  0  0  0  0  0  0  0  0  0  0
   28.0055   12.9920    7.6576 C   0  0  0  0  0  0  0  0  0  0  0  0
   29.1187   14.9261    8.5702 C   0  0  0  0  0  0  0  0  0  0  0  0
   28.8497   14.0576    9.7452 C   0  0  0  0  0  0  0  0  0  0  0  0
   32.3987   11.6633    6.2946 C   0  0  0  0  0  0  0  0  0  0  0  0
   33.4150   11.0504    5.5194 C   0  0  0  0  0  0  0  0  0  0  0  0
   34.3272   12.0585    4.4626 Cl  0  0  0  0  0  0  0  0  0  0  0  0
  1  2  1  0
  2  3  1  0
  3  4  1  0
  4  5  2  0
  5  6  1  0
  6  7  2  0
  7  8  1  0
  8  9  2  0
  8 10  1  0
 10 11  1  0
 11 12  1  0
 11 13  1  0
 13 14  1  0
  7 15  1  0
 15 16  2  0
 16 17  1  0
 16  4  1  0
 14 11  1  0
A    1
 C1 
A    2
 C2 
A    3
 N1 
A    4
 C3 
A    5
 N2 
A    6
 C4 
A    7
 C5 
A    8
 C6 
A    9
 O1 
A   10
 N3 
A   11
 C7 
A   12
 C8 
A   13
 C9 
A   14
 C10
A   15
 C11
A   16
 C12
A   17
CL1 
M  END
>  <ref_pdb>  (701) 
Ax0310a

>  <ref_mols>  (701) 
Ax0446a,Ax1080a,Ax0812a,Ax0719a,Ax1140a,Ax0528a,Ax0310a

>  <original SMILES>  (701) 
CCNc1ncc(C(=O)NC2(C)CC2)cc1Cl

>  <rationale>  (701) 
info info set:screening_pocket;hbond:S87+G127; hydroph_interaction:P107+Y90; 

>  <experiment>  (701) 
screening_pocket

>  <cluster_label>  (701) 
3

>  <cluster_rank>  (701) 
358

>  <N_interactions>  (701) 
5

>  <∆∆G>  (701) 
-4.133525

>  <comRMSD>  (701) 
0.939873

>  <ROCS_TanimotoCombo>  (701) 
0.646

>  <ROCS_ShapeTanimoto>  (701) 
0.235

>  <ROCS_ColorTanimoto>  (701) 
0.411

$$$$
EN300_93661
     RDKit          3D

 11 11  0  0  0  0  0  0  0  0999 V2000
   30.7783    7.9983    9.2860 C   0  0  0  0  0  0  0  0  0  0  0  0
   30.2345    8.8707    8.2812 C   0  0  0  0  0  0  0  0  0  0  0  0
   28.7966    8.9658    8.4835 C   0  0  0  0  0  0  0  0  0  0  0  0
   30.7414   10.1466    8.4222 N   0  0  0  0  0  0  0  0  0  0  0  0
   31.5682   10.3719    7.4454 C   0  0  0  0  0  0  0  0  0  0  0  0
   32.2560    9.2881    6.8848 N   0  0  0  0  0  0  0  0  0  0  0  0
   33.1067    9.5387    5.8805 C   0  0  0  0  0  0  0  0  0  0  0  0
   33.3117   10.9498    5.3726 C   0  0  0  0  0  0  0  0  0  0  0  0
   32.5057   12.0377    6.0614 C   0  0  0  0  0  0  0  0  0  0  0  0
   31.6521   11.7088    7.0872 C   0  0  0  0  0  0  0  0  0  0  0  0
   30.8701   12.6591    7.7806 N   0  0  0  0  0  0  0  0  0  0  0  0
  1  2  1  0
  2  3  1  0
  2  4  1  0
  4  5  1  0
  5  6  2  0
  6  7  1  0
  7  8  2  0
  8  9  1  0
  9 10  2  0
 10 11  1  0
 10  5  1  0
A    1
 C1 
A    2
 C2 
A    3
 C3 
A    4
 N1 
A    5
 C4 
A    6
 N2 
A    7
 C5 
A    8
 C6 
A    9
 C7 
A   10
 C8 
A   11
 N3 
M  END
>  <ref_pdb>  (702) 
Ax0310a

>  <ref_mols>  (702) 
Ax0446a,Ax1080a,Ax0812a,Ax0719a,Ax1140a,Ax0528a,Ax0310a

>  <original SMILES>  (702) 
CC(C)Nc1ncccc1N

>  <rationale>  (702) 
info info set:bb_densepocket2;hbond:S125; hydroph_interaction:P107; 

>  <experiment>  (702) 
bb_densepocket2

>  <cluster_label>  (702) 
3

>  <cluster_rank>  (702) 
359

>  <N_interactions>  (702) 
3

>  <∆∆G>  (702) 
-3.981717

>  <comRMSD>  (702) 
0.969935

>  <ROCS_TanimotoCombo>  (702) 
0.644

>  <ROCS_ShapeTanimoto>  (702) 
0.199

>  <ROCS_ColorTanimoto>  (702) 
0.445

$$$$
EN300_679546
     RDKit          3D

 13 14  0  0  0  0  0  0  0  0999 V2000
   29.0022   13.0259    8.6459 N   0  0  0  0  0  0  0  0  0  0  0  0
   30.3879   13.3850    7.7787 S   0  0  0  0  0  6  0  0  0  0  0  0
   31.0234   14.4108    8.5685 O   0  0  0  0  0  0  0  0  0  0  0  0
   29.9950   13.5035    6.3967 O   0  0  0  0  0  0  0  0  0  0  0  0
   31.4220   12.0167    7.9817 C   0  0  1  0  0  0  0  0  0  0  0  0
   30.6691   10.6566    8.2071 C   0  0  0  0  0  0  0  0  0  0  0  0
   31.5212    9.5958    7.4832 C   0  0  0  0  0  0  0  0  0  0  0  0
   32.5766   10.4033    6.7189 C   0  0  0  0  0  0  0  0  0  0  0  0
   33.4375    9.5514    5.8560 C   0  0  0  0  0  0  0  0  0  0  0  0
   34.4542   10.6267    5.2013 C   0  0  0  0  0  0  0  0  0  0  0  0
   34.3497   11.9986    5.5251 C   0  0  0  0  0  0  0  0  0  0  0  0
   33.4244   12.5616    6.3850 C   0  0  0  0  0  0  0  0  0  0  0  0
   32.5368   11.7343    6.9760 C   0  0  0  0  0  0  0  0  0  0  0  0
  1  2  1  0
  2  3  2  0
  2  4  2  0
  5  2  1  6
  5  6  1  0
  6  7  1  0
  7  8  1  0
  8  9  2  0
  9 10  1  0
 10 11  2  0
 11 12  1  0
 12 13  2  0
 13  5  1  0
 13  8  1  0
A    1
 N1 
A    2
 S1 
A    3
 O1 
A    4
 O2 
A    5
 C1 
A    6
 C2 
A    7
 C3 
A    8
 C4 
A    9
 C5 
A   10
 C6 
A   11
 C7 
A   12
 C8 
A   13
 C9 
M  END
>  <ref_pdb>  (703) 
Ax0310a

>  <ref_mols>  (703) 
Ax0446a,Ax1080a,Ax0812a,Ax0719a,Ax1140a,Ax0528a,Ax0310a

>  <original SMILES>  (703) 
NS(=O)(=O)[C@H]1CCc2ccccc21

>  <rationale>  (703) 
info info set:sulfonimide_whole;hbond:S87+S125; 

>  <experiment>  (703) 
sulfonimide_whole

>  <cluster_label>  (703) 
3

>  <cluster_rank>  (703) 
360

>  <N_interactions>  (703) 
2

>  <∆∆G>  (703) 
-3.827673

>  <comRMSD>  (703) 
0.738128

>  <ROCS_TanimotoCombo>  (703) 
0.351

>  <ROCS_ShapeTanimoto>  (703) 
0.187

>  <ROCS_ColorTanimoto>  (703) 
0.164

$$$$
Z217938976
     RDKit          3D

 28 32  0  0  0  0  0  0  0  0999 V2000
   32.3008    8.0245    7.2402 O   0  0  0  0  0  0  0  0  0  0  0  0
   32.2050    9.4051    6.9466 C   0  0  0  0  0  0  0  0  0  0  0  0
   33.1813   10.0602    6.0048 C   0  0  0  0  0  0  0  0  0  0  0  0
   34.4262    9.5260    5.3966 C   0  0  0  0  0  0  0  0  0  0  0  0
   35.1380   10.5672    4.5177 C   0  0  0  0  0  0  0  0  0  0  0  0
   34.7095   12.0986    4.1879 C   0  0  0  0  0  0  0  0  0  0  0  0
   33.3637   12.3424    4.9547 C   0  0  0  0  0  0  0  0  0  0  0  0
   32.7269   11.2723    5.7991 C   0  0  0  0  0  0  0  0  0  0  0  0
   31.4252   11.5418    6.5076 C   0  0  0  0  0  0  0  0  0  0  0  0
   30.6766   12.4728    6.2965 O   0  0  0  0  0  0  0  0  0  0  0  0
   31.3654   10.3503    7.4119 N   0  0  0  0  0  0  0  0  0  0  0  0
   30.2643   10.0290    8.2285 C   0  0  0  0  0  0  0  0  0  0  0  0
   29.2535   11.3961    7.8789 S   0  0  0  0  0  0  0  0  0  0  0  0
   30.1949   12.7284    8.3654 C   0  0  0  0  0  0  0  0  0  0  0  0
   31.5096   12.6217    8.4860 N   0  0  0  0  0  0  0  0  0  0  0  0
   32.1148   13.6700    8.8976 C   0  0  0  0  0  0  0  0  0  0  0  0
   33.6177   13.7678    9.1228 C   0  0  0  0  0  0  0  0  0  0  0  0
   34.3050   15.0626    9.0044 C   0  0  0  0  0  0  0  0  0  0  0  0
   35.6814   14.4583    9.3286 C   0  0  0  0  0  0  0  0  0  0  0  0
   35.5350   13.1545    9.5684 C   0  0  0  0  0  0  0  0  0  0  0  0
   34.3110   12.7244    9.4266 O   0  0  0  0  0  0  0  0  0  0  0  0
   31.4980   14.7916    9.1711 N   0  0  0  0  0  0  0  0  0  0  0  0
   30.1778   14.8232    8.9736 C   0  0  0  0  0  0  0  0  0  0  0  0
   29.5045   16.0671    9.1948 C   0  0  0  0  0  0  0  0  0  0  0  0
   28.1178   16.1437    9.0061 C   0  0  0  0  0  0  0  0  0  0  0  0
   27.4462   15.0298    8.6068 C   0  0  0  0  0  0  0  0  0  0  0  0
   28.0860   13.8579    8.3878 C   0  0  0  0  0  0  0  0  0  0  0  0
   29.4591   13.7904    8.5728 C   0  0  0  0  0  0  0  0  0  0  0  0
  1  2  2  0
  2  3  1  0
  3  4  2  0
  4  5  1  0
  5  6  2  0
  6  7  1  0
  7  8  2  0
  8  9  1  0
  9 10  2  0
  9 11  1  0
 11 12  1  0
 12 13  1  0
 13 14  1  0
 14 15  2  0
 15 16  1  0
 16 17  1  0
 17 18  2  0
 18 19  1  0
 19 20  2  0
 20 21  1  0
 16 22  2  0
 22 23  1  0
 23 24  2  0
 24 25  1  0
 25 26  2  0
 26 27  1  0
 27 28  2  0
 11  2  1  0
 28 14  1  0
  8  3  1  0
 21 17  1  0
 28 23  1  0
A    1
 O1 
A    2
 C1 
A    3
 C2 
A    4
 C3 
A    5
 C4 
A    6
 C5 
A    7
 C6 
A    8
 C7 
A    9
 C8 
A   10
 O2 
A   11
 N1 
A   12
 C9 
A   13
 S1 
A   14
 C10
A   15
 N2 
A   16
 C11
A   17
 C12
A   18
 C13
A   19
 C14
A   20
 C15
A   21
 O3 
A   22
 N3 
A   23
 C16
A   24
 C17
A   25
 C18
A   26
 C19
A   27
 C20
A   28
 C21
M  END
>  <ref_pdb>  (704) 
Ax0310a

>  <ref_mols>  (704) 
Ax0446a,Ax1080a,Ax0812a,Ax0719a,Ax1140a,Ax0528a,Ax0310a

>  <original SMILES>  (704) 
O=C1c2ccccc2C(=O)N1CSc1nc(-c2ccco2)nc2ccccc12

>  <rationale>  (704) 
info info set:screening_whole;hbond:S87+G127; hydroph_interaction:P107+Y89+Y90+V84; pistack:H21; 

>  <experiment>  (704) 
screening_whole

>  <cluster_label>  (704) 
3

>  <cluster_rank>  (704) 
361

>  <N_interactions>  (704) 
7

>  <∆∆G>  (704) 
-0.100581

>  <comRMSD>  (704) 
0.861694

>  <ROCS_TanimotoCombo>  (704) 
0.46

>  <ROCS_ShapeTanimoto>  (704) 
0.287

>  <ROCS_ColorTanimoto>  (704) 
0.173

$$$$
Z851811182
     RDKit          3D

 15 16  0  0  0  0  0  0  0  0999 V2000
   35.7424   14.3738    7.5277 N   0  0  0  0  0  0  0  0  0  0  0  0
   34.4760   14.2674    7.9084 C   0  0  0  0  0  0  0  0  0  0  0  0
   34.0541   14.7716    9.1168 C   0  0  0  0  0  0  0  0  0  0  0  0
   32.7215   14.6368    9.4963 C   0  0  0  0  0  0  0  0  0  0  0  0
   31.8010   14.0339    8.7093 N   0  0  0  0  0  0  0  0  0  0  0  0
   32.2713   13.5680    7.5175 C   0  0  0  0  0  0  0  0  0  0  0  0
   31.4780   12.9585    6.5752 O   0  0  0  0  0  0  0  0  0  0  0  0
   31.5968   11.6547    6.7659 C   0  0  0  0  0  0  0  0  0  0  0  0
   32.5175   10.8015    6.0008 C   0  0  0  0  0  0  0  0  0  0  0  0
   32.5318    9.3869    6.3656 C   0  0  0  0  0  0  0  0  0  0  0  0
   31.6939    8.9397    7.3943 C   0  0  0  0  0  0  0  0  0  0  0  0
   30.8417    9.7989    8.0784 C   0  0  0  0  0  0  0  0  0  0  0  0
   30.8239   11.1461    7.7278 C   0  0  0  0  0  0  0  0  0  0  0  0
   29.8469   12.3496    8.4233 Cl  0  0  0  0  0  0  0  0  0  0  0  0
   33.5702   13.6557    7.0945 C   0  0  0  0  0  0  0  0  0  0  0  0
  1  2  1  0
  2  3  2  0
  3  4  1  0
  4  5  2  0
  5  6  1  0
  6  7  1  0
  7  8  1  0
  8  9  2  0
  9 10  1  0
 10 11  2  0
 11 12  1  0
 12 13  2  0
 13 14  1  0
  6 15  2  0
 15  2  1  0
 13  8  1  0
A    1
 N1 
A    2
 C1 
A    3
 C2 
A    4
 C3 
A    5
 N2 
A    6
 C4 
A    7
 O1 
A    8
 C5 
A    9
 C6 
A   10
 C7 
A   11
 C8 
A   12
 C9 
A   13
 C10
A   14
CL1 
A   15
 C11
M  END
>  <ref_pdb>  (705) 
Ax0310a

>  <ref_mols>  (705) 
Ax0446a,Ax1080a,Ax0812a,Ax0719a,Ax1140a,Ax0528a,Ax0310a

>  <original SMILES>  (705) 
Nc1ccnc(Oc2ccccc2Cl)c1

>  <rationale>  (705) 
info info set:3d;hbond:S87+E85; hydroph_interaction:P107+V84; 

>  <experiment>  (705) 
3d

>  <cluster_label>  (705) 
3

>  <cluster_rank>  (705) 
362

>  <N_interactions>  (705) 
4

>  <∆∆G>  (705) 
-4.160778

>  <comRMSD>  (705) 
0.90218

>  <ROCS_TanimotoCombo>  (705) 
0.314

>  <ROCS_ShapeTanimoto>  (705) 
0.173

>  <ROCS_ColorTanimoto>  (705) 
0.141

$$$$
Z89270869
     RDKit          3D

 15 16  0  0  0  0  0  0  0  0999 V2000
   30.1307   13.6327    7.7302 O   0  0  0  0  0  0  0  0  0  0  0  0
   31.1389   13.8265    8.3884 C   0  0  0  0  0  0  0  0  0  0  0  0
   31.1808   14.8268    9.2962 O   0  0  0  0  0  0  0  0  0  0  0  0
   32.4021   13.0197    8.2118 C   0  0  0  0  0  0  0  0  0  0  0  0
   32.2353   11.7728    7.7170 N   0  0  0  0  0  0  0  0  0  0  0  0
   31.1067   11.0721    8.0570 C   0  0  0  0  0  0  0  0  0  0  0  0
   29.9432   11.7151    8.4039 O   0  0  0  0  0  0  0  0  0  0  0  0
   31.0725    9.5403    8.1077 C   0  0  0  0  0  0  0  0  0  0  0  0
   32.1183    8.8258    6.8684 S   0  0  0  0  0  0  0  0  0  0  0  0
   33.0817   10.1165    6.2256 C   0  0  0  0  0  0  0  0  0  0  0  0
   33.9898    9.7843    5.1155 C   0  0  0  0  0  0  0  0  0  0  0  0
   34.8387   10.8149    4.5397 C   0  0  0  0  0  0  0  0  0  0  0  0
   34.7941   12.1100    5.0332 C   0  0  0  0  0  0  0  0  0  0  0  0
   33.9107   12.4037    6.0978 C   0  0  0  0  0  0  0  0  0  0  0  0
   33.0733   11.4147    6.6745 C   0  0  0  0  0  0  0  0  0  0  0  0
  1  2  2  0
  2  3  1  0
  2  4  1  0
  4  5  1  0
  5  6  1  0
  6  7  2  0
  6  8  1  0
  8  9  1  0
  9 10  1  0
 10 11  2  0
 11 12  1  0
 12 13  2  0
 13 14  1  0
 14 15  2  0
 15  5  1  0
 15 10  1  0
A    1
 O1 
A    2
 C1 
A    3
 O2 
A    4
 C2 
A    5
 N1 
A    6
 C3 
A    7
 O3 
A    8
 C4 
A    9
 S1 
A   10
 C5 
A   11
 C6 
A   12
 C7 
A   13
 C8 
A   14
 C9 
A   15
 C10
M  END
>  <ref_pdb>  (706) 
Ax0310a

>  <ref_mols>  (706) 
Ax0446a,Ax1080a,Ax0812a,Ax0719a,Ax1140a,Ax0528a,Ax0310a

>  <original SMILES>  (706) 
O=C(O)CN1C(=O)CSc2ccccc21

>  <rationale>  (706) 
info info set:3d;hbond:S87; 

>  <experiment>  (706) 
3d

>  <cluster_label>  (706) 
3

>  <cluster_rank>  (706) 
363

>  <N_interactions>  (706) 
1

>  <∆∆G>  (706) 
-2.761254

>  <comRMSD>  (706) 
0.783256

>  <ROCS_TanimotoCombo>  (706) 
0.356

>  <ROCS_ShapeTanimoto>  (706) 
0.184

>  <ROCS_ColorTanimoto>  (706) 
0.172

$$$$
Z4107122336
     RDKit          3D

 24 26  0  0  0  0  0  0  0  0999 V2000
   28.2332   14.9111    8.2890 C   0  0  0  0  0  0  0  0  0  0  0  0
   28.5876   13.5207    7.7984 C   0  0  0  0  0  0  0  0  0  0  0  0
   30.0265   13.3528    7.7919 N   0  0  0  0  0  0  0  0  0  0  0  0
   30.5330   13.3226    9.0113 C   0  0  0  0  0  0  0  0  0  0  0  0
   31.7312   14.1553    9.2300 C   0  0  0  0  0  0  0  0  0  0  0  0
   31.5397   15.2637    9.7843 O   0  0  0  0  0  0  0  0  0  0  0  0
   32.7345   15.8851    9.9132 C   0  0  0  0  0  0  0  0  0  0  0  0
   33.8467   15.0574    9.3490 C   0  0  0  0  0  0  0  0  0  0  0  0
   33.0874   13.9801    8.9378 C   0  0  0  0  0  0  0  0  0  0  0  0
   33.8904   13.0366    8.3501 C   0  0  0  0  0  0  0  0  0  0  0  0
   30.5951   12.5749    6.7895 C   0  0  0  0  0  0  0  0  0  0  0  0
   30.5591   13.0340    5.6598 O   0  0  0  0  0  0  0  0  0  0  0  0
   31.2028   11.1740    6.9969 C   0  0  0  0  0  0  0  0  0  0  0  0
   32.2674   11.6123    6.0219 C   0  0  0  0  0  0  0  0  0  0  0  0
   32.7978   10.2045    6.1903 C   0  0  0  0  0  0  0  0  0  0  0  0
   32.2304    9.2824    7.0430 N   0  0  0  0  0  0  0  0  0  0  0  0
   31.2063    9.9438    7.5558 N   0  0  0  0  0  0  0  0  0  0  0  0
   30.3483    9.2939    8.5093 C   0  0  0  0  0  0  0  0  0  0  0  0
   33.9635   10.0093    5.3058 C   0  0  2  0  0  0  0  0  0  0  0  0
   34.6626    8.7154    5.2654 C   0  0  0  0  0  0  0  0  0  0  0  0
   34.8500   11.1217    5.3181 O   0  0  0  0  0  0  0  0  0  0  0  0
   34.2676   12.2500    4.6423 C   0  0  2  0  0  0  0  0  0  0  0  0
   35.2596   13.3956    4.5834 C   0  0  0  0  0  0  0  0  0  0  0  0
   32.8386   12.6689    5.1488 C   0  0  0  0  0  0  0  0  0  0  0  0
  1  2  1  0
  2  3  1  0
  3  4  1  0
  4  5  1  0
  5  6  1  0
  6  7  1  0
  7  8  2  0
  8  9  1  0
  9 10  1  0
  3 11  1  0
 11 12  2  0
 11 13  1  0
 13 14  2  0
 14 15  1  0
 15 16  2  0
 16 17  1  0
 17 18  1  0
 15 19  1  0
 19 20  1  1
 19 21  1  0
 21 22  1  0
 22 23  1  1
 22 24  1  0
  9  5  2  0
 17 13  1  0
 24 14  1  0
A    1
 C1 
A    2
 C2 
A    3
 N1 
A    4
 C3 
A    5
 C4 
A    6
 O1 
A    7
 C5 
A    8
 C6 
A    9
 C7 
A   10
 C8 
A   11
 C9 
A   12
 O2 
A   13
 C10
A   14
 C11
A   15
 C12
A   16
 N2 
A   17
 N3 
A   18
 C13
A   19
 C14
A   20
 C15
A   21
 O3 
A   22
 C16
A   23
 C17
A   24
 C18
M  END
>  <ref_pdb>  (707) 
Ax0310a

>  <ref_mols>  (707) 
Ax0446a,Ax1080a,Ax0812a,Ax0719a,Ax1140a,Ax0528a,Ax0310a

>  <original SMILES>  (707) 
CCN(Cc1occc1C)C(=O)c1c2c(nn1C)[C@H](C)O[C@H](C)C2

>  <rationale>  (707) 
info info set:screening_whole;hydroph_interaction:P107+Y89+Y90+V84; 

>  <experiment>  (707) 
screening_whole

>  <cluster_label>  (707) 
3

>  <cluster_rank>  (707) 
364

>  <N_interactions>  (707) 
4

>  <∆∆G>  (707) 
-10.573899

>  <comRMSD>  (707) 
0.94743

>  <ROCS_TanimotoCombo>  (707) 
0.464

>  <ROCS_ShapeTanimoto>  (707) 
0.273

>  <ROCS_ColorTanimoto>  (707) 
0.192

$$$$
Z437578282
     RDKit          3D

 18 19  0  0  0  0  0  0  0  0999 V2000
   35.4348   10.5676    4.7251 C   0  0  0  0  0  0  0  0  0  0  0  0
   34.3341   11.4627    5.2453 C   0  0  0  0  0  0  0  0  0  0  0  0
   33.2438   10.6540    5.4790 C   0  0  0  0  0  0  0  0  0  0  0  0
   32.5475   10.7827    6.5996 N   0  0  0  0  0  0  0  0  0  0  0  0
   32.5132   12.0880    7.1053 N   0  0  0  0  0  0  0  0  0  0  0  0
   31.4710   12.2652    7.9530 C   0  0  0  0  0  0  0  0  0  0  0  0
   31.1989   13.4510    8.6159 C   0  0  0  0  0  0  0  0  0  0  0  0
   32.1187   14.1219    9.0492 O   0  0  0  0  0  0  0  0  0  0  0  0
   29.8745   13.8364    8.7951 N   0  0  0  0  0  0  0  0  0  0  0  0
   29.3469   14.8743    9.4680 C   0  0  0  0  0  0  0  0  0  0  0  0
   28.3633   15.6832    8.5981 C   0  0  0  0  0  0  0  0  0  0  0  0
   27.4436   14.7645    7.3055 S   0  0  0  0  0  0  0  0  0  0  0  0
   28.3715   13.2767    6.9853 C   0  0  0  0  0  0  0  0  0  0  0  0
   28.9288   12.8578    8.3226 C   0  0  0  0  0  0  0  0  0  0  0  0
   30.4323   11.2020    8.3333 C   0  0  0  0  0  0  0  0  0  0  0  0
   30.6671    9.8892    7.9921 C   0  0  0  0  0  0  0  0  0  0  0  0
   31.9445    9.6617    7.2021 C   0  0  0  0  0  0  0  0  0  0  0  0
   32.3325    8.5096    7.1201 O   0  0  0  0  0  0  0  0  0  0  0  0
  1  2  1  0
  2  3  1  0
  3  4  1  0
  4  5  1  0
  5  6  2  0
  6  7  1  0
  7  8  2  0
  7  9  1  0
  9 10  1  0
 10 11  1  0
 11 12  1  0
 12 13  1  0
 13 14  1  0
  6 15  1  0
 15 16  2  0
 16 17  1  0
 17 18  2  0
 17  4  1  0
 14  9  1  0
A    1
 C1 
A    2
 C2 
A    3
 C3 
A    4
 N1 
A    5
 N2 
A    6
 C4 
A    7
 C5 
A    8
 O1 
A    9
 N3 
A   10
 C6 
A   11
 C7 
A   12
 S1 
A   13
 C8 
A   14
 C9 
A   15
 C10
A   16
 C11
A   17
 C12
A   18
 O2 
M  END
>  <ref_pdb>  (708) 
Ax0310a

>  <ref_mols>  (708) 
Ax0446a,Ax1080a,Ax0812a,Ax0719a,Ax1140a,Ax0528a,Ax0310a

>  <original SMILES>  (708) 
CCCn1nc(C(=O)N2CCSCC2)ccc1=O

>  <rationale>  (708) 
info info set:3d;hbond:S87+G127; 

>  <experiment>  (708) 
3d

>  <cluster_label>  (708) 
3

>  <cluster_rank>  (708) 
365

>  <N_interactions>  (708) 
3

>  <∆∆G>  (708) 
-3.124365

>  <comRMSD>  (708) 
0.762396

>  <ROCS_TanimotoCombo>  (708) 
0.338

>  <ROCS_ShapeTanimoto>  (708) 
0.22

>  <ROCS_ColorTanimoto>  (708) 
0.118

$$$$
EN300_8100685
     RDKit          3D

 13 13  0  0  0  0  0  0  0  0999 V2000
   29.5968    8.2958    8.5849 C   0  0  0  0  0  0  0  0  0  0  0  0
   31.3327    8.2305    8.5170 S   0  0  0  0  0  0  0  0  0  0  0  0
   31.8967    9.3694    7.2986 C   0  0  0  0  0  0  0  0  0  0  0  0
   32.8562    8.9251    6.4784 N   0  0  0  0  0  0  0  0  0  0  0  0
   33.3402    9.7774    5.5460 C   0  0  0  0  0  0  0  0  0  0  0  0
   32.8509   11.2686    5.3631 C   0  0  0  0  0  0  0  0  0  0  0  0
   31.8502   11.6564    6.2466 C   0  0  0  0  0  0  0  0  0  0  0  0
   31.3510   10.7991    7.1871 C   0  0  0  0  0  0  0  0  0  0  0  0
   30.2667   11.3133    8.0910 C   0  0  0  0  0  0  0  0  0  0  0  0
   30.1226   10.5341    8.9911 O   0  0  0  0  0  0  0  0  0  0  0  0
   29.5217   12.4817    7.8689 N   0  0  0  0  0  0  0  0  0  0  0  0
   28.9653   13.3514    8.8939 C   0  0  0  0  0  0  0  0  0  0  0  0
   28.7361   12.5712    6.6759 C   0  0  0  0  0  0  0  0  0  0  0  0
  1  2  1  0
  2  3  1  0
  3  4  2  0
  4  5  1  0
  5  6  2  0
  6  7  1  0
  7  8  2  0
  8  9  1  0
  9 10  2  0
  9 11  1  0
 11 12  1  0
 11 13  1  0
  8  3  1  0
A    1
 C1 
A    2
 S1 
A    3
 C2 
A    4
 N1 
A    5
 C3 
A    6
 C4 
A    7
 C5 
A    8
 C6 
A    9
 C7 
A   10
 O1 
A   11
 N2 
A   12
 C8 
A   13
 C9 
M  END
>  <ref_pdb>  (709) 
Ax0310a

>  <ref_mols>  (709) 
Ax0446a,Ax1080a,Ax0812a,Ax0719a,Ax1140a,Ax0528a,Ax0310a

>  <original SMILES>  (709) 
CSc1ncccc1C(=O)N(C)C

>  <rationale>  (709) 
info info set:bb_densepocket2;hydroph_interaction:P107; 

>  <experiment>  (709) 
bb_densepocket2

>  <cluster_label>  (709) 
3

>  <cluster_rank>  (709) 
366

>  <N_interactions>  (709) 
1

>  <∆∆G>  (709) 
-6.505061

>  <comRMSD>  (709) 
0.754076

>  <ROCS_TanimotoCombo>  (709) 
0.656

>  <ROCS_ShapeTanimoto>  (709) 
0.215

>  <ROCS_ColorTanimoto>  (709) 
0.441

$$$$
EN300_1242799
     RDKit          3D

 12 13  0  0  0  0  0  0  0  0999 V2000
   30.1142    8.9130    9.0644 C   0  0  0  0  0  0  0  0  0  0  0  0
   30.9524    8.4492    8.0396 N   0  0  0  0  0  0  0  0  0  0  0  0
   31.6285    9.3677    7.2819 C   0  0  0  0  0  0  0  0  0  0  0  0
   31.2202   10.6460    7.2709 N   0  0  0  0  0  0  0  0  0  0  0  0
   31.9316   11.4865    6.5018 C   0  0  0  0  0  0  0  0  0  0  0  0
   33.1503   11.0974    5.6572 C   0  0  0  0  0  0  0  0  0  0  0  0
   33.4133    9.6012    5.8402 C   0  0  0  0  0  0  0  0  0  0  0  0
   34.4862    8.9553    5.1926 N   0  0  0  0  0  0  0  0  0  0  0  0
   35.1976    9.5789    4.0830 C   0  0  0  0  0  0  0  0  0  0  0  0
   34.7669    9.3740    2.7352 C   0  0  0  0  0  0  0  0  0  0  0  0
   36.0879    8.7701    3.2889 C   0  0  0  0  0  0  0  0  0  0  0  0
   32.6508    8.8712    6.6173 N   0  0  0  0  0  0  0  0  0  0  0  0
  1  2  1  0
  2  3  1  0
  3  4  2  0
  4  5  1  0
  5  6  2  0
  6  7  1  0
  7  8  1  0
  8  9  1  0
  9 10  1  0
 10 11  1  0
  7 12  2  0
 12  3  1  0
 11  9  1  0
A    1
 C1 
A    2
 N1 
A    3
 C2 
A    4
 N2 
A    5
 C3 
A    6
 C4 
A    7
 C5 
A    8
 N3 
A    9
 C6 
A   10
 C7 
A   11
 C8 
A   12
 N4 
M  END
>  <ref_pdb>  (710) 
Ax0310a

>  <ref_mols>  (710) 
Ax0446a,Ax1080a,Ax0812a,Ax0719a,Ax1140a,Ax0528a,Ax0310a

>  <original SMILES>  (710) 
CNc1nccc(NC2CC2)n1

>  <rationale>  (710) 
info info set:bb_densepocket2;hbond:S105; hydroph_interaction:P107; 

>  <experiment>  (710) 
bb_densepocket2

>  <cluster_label>  (710) 
3

>  <cluster_rank>  (710) 
367

>  <N_interactions>  (710) 
3

>  <∆∆G>  (710) 
-4.256264

>  <comRMSD>  (710) 
0.41628

>  <ROCS_TanimotoCombo>  (710) 
0.63

>  <ROCS_ShapeTanimoto>  (710) 
0.208

>  <ROCS_ColorTanimoto>  (710) 
0.422

$$$$
Z2394926725
     RDKit          3D

 14 15  0  0  0  0  0  0  0  0999 V2000
   35.0837    8.9706    4.0391 C   0  0  0  0  0  0  0  0  0  0  0  0
   34.4960    8.6796    5.3222 N   0  0  0  0  0  0  0  0  0  0  0  0
   33.5445    9.6267    5.7347 C   0  0  0  0  0  0  0  0  0  0  0  0
   33.6881   11.0791    5.1201 C   0  0  0  0  0  0  0  0  0  0  0  0
   32.5063   11.8148    5.8097 C   0  0  0  0  0  0  0  0  0  0  0  0
   31.5021   11.3044    6.7823 C   0  0  0  0  0  0  0  0  0  0  0  0
   30.5533   12.1350    7.2513 N   0  0  0  0  0  0  0  0  0  0  0  0
   29.8761   11.8423    8.2763 C   0  0  0  0  0  0  0  0  0  0  0  0
   30.0425   10.5846    8.9275 O   0  0  0  0  0  0  0  0  0  0  0  0
   28.8432   12.9236    8.7239 C   0  0  0  0  0  0  0  0  0  0  0  0
   29.3343   14.1302    8.5147 C   0  0  0  0  0  0  0  0  0  0  0  0
   28.9907   14.0919    9.8937 C   0  0  0  0  0  0  0  0  0  0  0  0
   31.6747    9.9737    7.1003 C   0  0  0  0  0  0  0  0  0  0  0  0
   32.6272    9.1615    6.6215 N   0  0  0  0  0  0  0  0  0  0  0  0
  1  2  1  0
  2  3  1  0
  3  4  2  0
  4  5  1  0
  5  6  2  0
  6  7  1  0
  7  8  1  0
  8  9  2  0
  8 10  1  0
 10 11  1  0
 11 12  1  0
  6 13  1  0
 13 14  2  0
 14  3  1  0
 12 10  1  0
A    1
 C1 
A    2
 N1 
A    3
 C2 
A    4
 C3 
A    5
 C4 
A    6
 C5 
A    7
 N2 
A    8
 C6 
A    9
 O1 
A   10
 C7 
A   11
 C8 
A   12
 C9 
A   13
 C10
A   14
 N3 
M  END
>  <ref_pdb>  (711) 
Ax0310a

>  <ref_mols>  (711) 
Ax0446a,Ax1080a,Ax0812a,Ax0719a,Ax1140a,Ax0528a,Ax0310a

>  <original SMILES>  (711) 
CNc1ccc(NC(=O)C2CC2)cn1

>  <rationale>  (711) 
info info set:screening_pocket;hbond:S105; hydroph_interaction:P107; 

>  <experiment>  (711) 
screening_pocket

>  <cluster_label>  (711) 
3

>  <cluster_rank>  (711) 
368

>  <N_interactions>  (711) 
2

>  <∆∆G>  (711) 
-2.851961

>  <comRMSD>  (711) 
0.828691

>  <ROCS_TanimotoCombo>  (711) 
0.688

>  <ROCS_ShapeTanimoto>  (711) 
0.216

>  <ROCS_ColorTanimoto>  (711) 
0.472

$$$$
Z57981044
     RDKit          3D

 14 14  0  0  0  0  0  0  0  0999 V2000
   28.2388   12.4970    7.2636 C   0  0  0  0  0  0  0  0  0  0  0  0
   29.5889   12.4080    7.9574 C   0  0  0  0  0  0  0  0  0  0  0  0
   30.2493   11.2830    8.2550 N   0  0  0  0  0  0  0  0  0  0  0  0
   31.1569   10.7074    7.4986 C   0  0  0  0  0  0  0  0  0  0  0  0
   31.9411   11.5553    6.4852 C   0  0  0  0  0  0  0  0  0  0  0  0
   32.9790   10.7866    5.6631 C   0  0  0  0  0  0  0  0  0  0  0  0
   33.0458    9.2991    6.0043 C   0  0  0  0  0  0  0  0  0  0  0  0
   32.3212    8.6551    6.9040 N   0  0  0  0  0  0  0  0  0  0  0  0
   31.4212    9.3553    7.6054 C   0  0  0  0  0  0  0  0  0  0  0  0
   30.0995   13.6334    8.2928 C   0  0  0  0  0  0  0  0  0  0  0  0
   31.3205   13.8730    8.9012 C   0  0  0  0  0  0  0  0  0  0  0  0
   32.3548   14.1121    9.3588 N   0  0  0  0  0  0  0  0  0  0  0  0
   29.3254   14.7409    8.0043 C   0  0  0  0  0  0  0  0  0  0  0  0
   28.6296   15.9677    7.7357 N   0  0  0  0  0  0  0  0  0  0  0  0
  1  2  1  0
  2  3  1  0
  3  4  1  0
  4  5  2  0
  5  6  1  0
  6  7  2  0
  7  8  1  0
  8  9  2  0
  2 10  2  3
 10 11  1  0
 11 12  3  0
 10 13  1  0
 13 14  3  0
  9  4  1  0
A    1
 C1 
A    2
 C2 
A    3
 N1 
A    4
 C3 
A    5
 C4 
A    6
 C5 
A    7
 C6 
A    8
 N2 
A    9
 C7 
A   10
 C8 
A   11
 C9 
A   12
 N3 
A   13
 C10
A   14
 N4 
M  END
>  <ref_pdb>  (712) 
Ax0310a

>  <ref_mols>  (712) 
Ax0446a,Ax1080a,Ax0812a,Ax0719a,Ax1140a,Ax0528a,Ax0310a

>  <original SMILES>  (712) 
CC(Nc1cccnc1)=C(C#N)C#N

>  <rationale>  (712) 
info info set:screening_pocket;hbond:S87+S125+Y90; hydroph_interaction:P107; 

>  <experiment>  (712) 
screening_pocket

>  <cluster_label>  (712) 
3

>  <cluster_rank>  (712) 
369

>  <N_interactions>  (712) 
6

>  <∆∆G>  (712) 
-4.136965

>  <comRMSD>  (712) 
0.371144

>  <ROCS_TanimotoCombo>  (712) 
0.628

>  <ROCS_ShapeTanimoto>  (712) 
0.205

>  <ROCS_ColorTanimoto>  (712) 
0.424

$$$$
EN300_9493480
     RDKit          3D

 15 15  0  0  0  0  0  0  0  0999 V2000
   28.9658   14.2138    9.5447 C   0  0  0  0  0  0  0  0  0  0  0  0
   30.2527   13.7280    8.4080 S   0  0  0  0  0  6  0  0  0  0  0  0
   29.7329   13.9086    7.0745 O   0  0  0  0  0  0  0  0  0  0  0  0
   31.5006   14.2872    8.8678 O   0  0  0  0  0  0  0  0  0  0  0  0
   30.2935   12.0890    8.5702 N   0  0  0  0  0  0  0  0  0  0  0  0
   31.1729   11.2572    7.8337 C   0  0  0  0  0  0  0  0  0  0  0  0
   30.8887    9.8701    7.9255 C   0  0  0  0  0  0  0  0  0  0  0  0
   31.6965    9.0015    7.2323 C   0  0  0  0  0  0  0  0  0  0  0  0
   32.8565    9.5673    6.3989 C   0  0  0  0  0  0  0  0  0  0  0  0
   33.0554   10.9247    6.3837 C   0  0  0  0  0  0  0  0  0  0  0  0
   34.2680   11.3135    5.5216 C   0  0  0  0  0  0  0  0  0  0  0  0
   34.9904   10.4692    4.9820 O   0  0  0  0  0  0  0  0  0  0  0  0
   34.4809   12.6913    5.4310 C   0  0  0  0  0  0  0  0  0  0  0  0
   33.2027   13.4093    4.1646 Br  0  0  0  0  0  0  0  0  0  0  0  0
   32.2271   11.7819    7.0884 C   0  0  0  0  0  0  0  0  0  0  0  0
  1  2  1  0
  2  3  2  0
  2  4  2  0
  2  5  1  0
  5  6  1  0
  6  7  2  0
  7  8  1  0
  8  9  2  0
  9 10  1  0
 10 11  1  0
 11 12  2  0
 11 13  1  0
 13 14  1  0
 10 15  2  0
 15  6  1  0
A    1
 C1 
A    2
 S1 
A    3
 O1 
A    4
 O2 
A    5
 N1 
A    6
 C2 
A    7
 C3 
A    8
 C4 
A    9
 C5 
A   10
 C6 
A   11
 C7 
A   12
 O3 
A   13
 C8 
A   14
BR1 
A   15
 C9 
M  END
>  <ref_pdb>  (713) 
Ax0310a

>  <ref_mols>  (713) 
Ax0446a,Ax1080a,Ax0812a,Ax0719a,Ax1140a,Ax0528a,Ax0310a

>  <original SMILES>  (713) 
CS(=O)(=O)Nc1cccc(C(=O)CBr)c1

>  <rationale>  (713) 
info info set:sulfonimide_whole;hbond:S87+S125; 

>  <experiment>  (713) 
sulfonimide_whole

>  <cluster_label>  (713) 
3

>  <cluster_rank>  (713) 
370

>  <N_interactions>  (713) 
2

>  <∆∆G>  (713) 
-6.934666

>  <comRMSD>  (713) 
0.379254

>  <ROCS_TanimotoCombo>  (713) 
0.355

>  <ROCS_ShapeTanimoto>  (713) 
0.199

>  <ROCS_ColorTanimoto>  (713) 
0.156

$$$$
EN300_104577
     RDKit          3D

 11 12  0  0  0  0  0  0  0  0999 V2000
   34.2718   11.6881    4.9435 C   0  0  0  0  0  0  0  0  0  0  0  0
   33.2319   11.0392    5.8222 C   0  0  0  0  0  0  0  0  0  0  0  0
   33.1604    9.4850    6.0732 C   0  0  0  0  0  0  0  0  0  0  0  0
   32.2831    8.7874    6.8384 N   0  0  0  0  0  0  0  0  0  0  0  0
   31.3213    9.4346    7.4873 C   0  0  0  0  0  0  0  0  0  0  0  0
   31.1188   10.9252    7.4529 C   0  0  0  0  0  0  0  0  0  0  0  0
   32.0783   11.7623    6.6140 C   0  0  0  0  0  0  0  0  0  0  0  0
   30.0844   11.4503    8.1679 N   0  0  0  0  0  0  0  0  0  0  0  0
   28.9968   10.5027    8.5308 C   0  0  0  0  0  0  0  0  0  0  0  0
   29.3910    9.2192    8.9475 C   0  0  0  0  0  0  0  0  0  0  0  0
   30.4848    8.6195    8.2122 N   0  0  0  0  0  0  0  0  0  0  0  0
  1  2  1  0
  2  3  2  0
  3  4  1  0
  4  5  2  0
  5  6  1  0
  6  7  2  0
  6  8  1  0
  8  9  1  0
  9 10  1  0
 10 11  1  0
  7  2  1  0
 11  5  1  0
A    1
 C1 
A    2
 C2 
A    3
 C3 
A    4
 N1 
A    5
 C4 
A    6
 C5 
A    7
 C6 
A    8
 N2 
A    9
 C7 
A   10
 C8 
A   11
 N3 
M  END
>  <ref_pdb>  (714) 
Ax0310a

>  <ref_mols>  (714) 
Ax0446a,Ax1080a,Ax0812a,Ax0719a,Ax1140a,Ax0528a,Ax0310a

>  <original SMILES>  (714) 
Cc1cnc2c(c1)NCCN2

>  <rationale>  (714) 
info info set:bb_densepocket2;hbond:S105; 

>  <experiment>  (714) 
bb_densepocket2

>  <cluster_label>  (714) 
3

>  <cluster_rank>  (714) 
371

>  <N_interactions>  (714) 
1

>  <∆∆G>  (714) 
-3.71056

>  <comRMSD>  (714) 
0.306227

>  <ROCS_TanimotoCombo>  (714) 
0.63

>  <ROCS_ShapeTanimoto>  (714) 
0.223

>  <ROCS_ColorTanimoto>  (714) 
0.407

$$$$
Z372854014
     RDKit          3D

 17 19  0  0  0  0  0  0  0  0999 V2000
   35.2189   14.6143    7.4768 N   0  0  0  0  0  0  0  0  0  0  0  0
   35.1918   14.6056    6.0029 C   0  0  0  0  0  0  0  0  0  0  0  0
   35.4989   13.3693    5.4058 C   0  0  0  0  0  0  0  0  0  0  0  0
   34.6461   12.2950    5.7385 C   0  0  0  0  0  0  0  0  0  0  0  0
   34.8541   11.0043    5.1883 C   0  0  0  0  0  0  0  0  0  0  0  0
   33.9045    9.8879    5.5847 C   0  0  0  0  0  0  0  0  0  0  0  0
   32.7684   10.1054    6.5310 C   0  0  0  0  0  0  0  0  0  0  0  0
   32.5925   11.4815    7.0856 C   0  0  0  0  0  0  0  0  0  0  0  0
   33.5734   12.5466    6.6420 C   0  0  0  0  0  0  0  0  0  0  0  0
   31.6271   11.8189    7.9575 O   0  0  0  0  0  0  0  0  0  0  0  0
   30.5374   10.9225    7.8496 C   0  0  0  0  0  0  0  0  0  0  0  0
   30.9692    9.4364    7.8871 C   0  0  0  0  0  0  0  0  0  0  0  0
   31.9361    9.0732    6.8685 O   0  0  0  0  0  0  0  0  0  0  0  0
   36.9974   13.1287    5.7710 C   0  0  0  0  0  0  0  0  0  0  0  0
   37.6656   12.5433    4.5478 C   0  0  0  0  0  0  0  0  0  0  0  0
   37.0571   13.3640    3.4394 C   0  0  0  0  0  0  0  0  0  0  0  0
   35.5987   13.5432    3.8576 C   0  0  0  0  0  0  0  0  0  0  0  0
  1  2  1  0
  2  3  1  0
  3  4  1  0
  4  5  2  0
  5  6  1  0
  6  7  2  0
  7  8  1  0
  8  9  2  0
  8 10  1  0
 10 11  1  0
 11 12  1  0
 12 13  1  0
  3 14  1  0
 14 15  1  0
 15 16  1  0
 16 17  1  0
 17  3  1  0
  9  4  1  0
 13  7  1  0
A    1
 N1 
A    2
 C1 
A    3
 C2 
A    4
 C3 
A    5
 C4 
A    6
 C5 
A    7
 C6 
A    8
 C7 
A    9
 C8 
A   10
 O1 
A   11
 C9 
A   12
 C10
A   13
 O2 
A   14
 C11
A   15
 C12
A   16
 C13
A   17
 C14
M  END
>  <ref_pdb>  (715) 
Ax0310a

>  <ref_mols>  (715) 
Ax0446a,Ax1080a,Ax0812a,Ax0719a,Ax1140a,Ax0528a,Ax0310a

>  <original SMILES>  (715) 
NCC1(c2ccc3c(c2)OCCO3)CCCC1

>  <rationale>  (715) 
info info set:3d;hbond:G127+E85; 

>  <experiment>  (715) 
3d

>  <cluster_label>  (715) 
3

>  <cluster_rank>  (715) 
372

>  <N_interactions>  (715) 
2

>  <∆∆G>  (715) 
-5.21294

>  <comRMSD>  (715) 
0.619457

>  <ROCS_TanimotoCombo>  (715) 
0.326

>  <ROCS_ShapeTanimoto>  (715) 
0.178

>  <ROCS_ColorTanimoto>  (715) 
0.149

$$$$
EN300_190379
     RDKit          3D

 22 25  0  0  0  0  0  0  0  0999 V2000
   35.1922    8.1193    4.5057 C   0  0  0  0  0  0  0  0  0  0  0  0
   34.5987    9.3756    5.0533 C   0  0  0  0  0  0  0  0  0  0  0  0
   35.3773   10.6304    4.5826 C   0  0  0  0  0  0  0  0  0  0  0  0
   35.0135   12.0868    4.9766 C   0  0  0  0  0  0  0  0  0  0  0  0
   35.7320   13.1166    4.5331 F   0  0  0  0  0  0  0  0  0  0  0  0
   33.7971   12.2079    5.8851 C   0  0  0  0  0  0  0  0  0  0  0  0
   33.1780   10.9034    6.2364 C   0  0  0  0  0  0  0  0  0  0  0  0
   31.9865   10.8827    7.1126 C   0  0  0  0  0  0  0  0  0  0  0  0
   31.3877   12.1560    7.6365 C   0  0  0  0  0  0  0  0  0  0  0  0
   32.0845   13.0500    8.4571 C   0  0  0  0  0  0  0  0  0  0  0  0
   31.4835   14.1477    8.9177 N   0  0  0  0  0  0  0  0  0  0  0  0
   30.2146   14.3158    8.5168 C   0  0  0  0  0  0  0  0  0  0  0  0
   29.5745   15.4397    8.9582 C   0  0  0  0  0  0  0  0  0  0  0  0
   28.2746   15.6902    8.5707 C   0  0  0  0  0  0  0  0  0  0  0  0
   27.5768   14.7065    7.6567 C   0  0  0  0  0  0  0  0  0  0  0  0
   26.3634   14.8581    7.2291 F   0  0  0  0  0  0  0  0  0  0  0  0
   28.2657   13.6075    7.2631 C   0  0  0  0  0  0  0  0  0  0  0  0
   29.5494   13.4082    7.6742 C   0  0  0  0  0  0  0  0  0  0  0  0
   30.1349   12.3255    7.2403 N   0  0  0  0  0  0  0  0  0  0  0  0
   31.6900    9.5718    7.2373 N   0  0  0  0  0  0  0  0  0  0  0  0
   32.5597    8.7796    6.5339 N   0  0  0  0  0  0  0  0  0  0  0  0
   33.4815    9.5811    5.9060 C   0  0  0  0  0  0  0  0  0  0  0  0
  1  2  1  0
  2  3  2  0
  3  4  1  0
  4  5  1  0
  4  6  2  0
  6  7  1  0
  7  8  2  0
  8  9  1  0
  9 10  2  0
 10 11  1  0
 11 12  2  0
 12 13  1  0
 13 14  2  0
 14 15  1  0
 15 16  1  0
 15 17  2  0
 17 18  1  0
 18 19  2  0
  8 20  1  0
 20 21  1  0
 21 22  2  0
 22  2  1  0
 22  7  1  0
 19  9  1  0
 18 12  1  0
A    1
 C1 
A    2
 C2 
A    3
 C3 
A    4
 C4 
A    5
 F1 
A    6
 C5 
A    7
 C6 
A    8
 C7 
A    9
 C8 
A   10
 C9 
A   11
 N1 
A   12
 C10
A   13
 C11
A   14
 C12
A   15
 C13
A   16
 F2 
A   17
 C14
A   18
 C15
A   19
 N2 
A   20
 N3 
A   21
 N4 
A   22
 C16
M  END
>  <ref_pdb>  (716) 
Ax0310a

>  <ref_mols>  (716) 
Ax0446a,Ax1080a,Ax0812a,Ax0719a,Ax1140a,Ax0528a,Ax0310a

>  <original SMILES>  (716) 
Cc1cc(F)cc2c(-c3cnc4ccc(F)cc4n3)[nH]nc12

>  <rationale>  (716) 
info info set:bb_whole;hbond:S87; hydroph_interaction:Y89+Y90; 

>  <experiment>  (716) 
bb_whole

>  <cluster_label>  (716) 
3

>  <cluster_rank>  (716) 
373

>  <N_interactions>  (716) 
3

>  <∆∆G>  (716) 
-2.685201

>  <comRMSD>  (716) 
0.720992

>  <ROCS_TanimotoCombo>  (716) 
0.421

>  <ROCS_ShapeTanimoto>  (716) 
0.237

>  <ROCS_ColorTanimoto>  (716) 
0.184

$$$$
Z4126131924
     RDKit          3D

 19 21  0  0  0  0  0  0  0  0999 V2000
   28.6749   12.6290    6.7667 C   0  0  0  0  0  0  0  0  0  0  0  0
   29.6880   12.4829    7.7965 N   0  0  0  0  0  0  0  0  0  0  0  0
   29.5422   13.3960    8.9160 C   0  0  0  0  0  0  0  0  0  0  0  0
   29.6315   14.8823    8.5304 C   0  0  0  0  0  0  0  0  0  0  0  0
   28.2236   14.8365    8.6747 C   0  0  0  0  0  0  0  0  0  0  0  0
   28.7171   15.4830    7.3618 C   0  0  0  0  0  0  0  0  0  0  0  0
   30.3302   11.2162    8.1119 C   0  0  0  0  0  0  0  0  0  0  0  0
   30.0933   10.4417    9.0033 O   0  0  0  0  0  0  0  0  0  0  0  0
   31.4396   10.7328    7.2242 C   0  0  0  0  0  0  0  0  0  0  0  0
   32.2369   11.6788    6.3901 C   0  0  0  0  0  0  0  0  0  0  0  0
   33.3154   11.0634    5.5357 C   0  0  0  0  0  0  0  0  0  0  0  0
   34.0539   12.1560    4.7261 C   0  0  0  0  0  0  0  0  0  0  0  0
   35.0939   11.2808    3.9332 C   0  0  0  0  0  0  0  0  0  0  0  0
   35.3029    9.9129    3.9444 C   0  0  0  0  0  0  0  0  0  0  0  0
   34.4902    9.0147    4.7956 C   0  0  0  0  0  0  0  0  0  0  0  0
   33.4423    9.6725    5.6273 C   0  0  0  0  0  0  0  0  0  0  0  0
   32.6691    8.8939    6.4253 N   0  0  0  0  0  0  0  0  0  0  0  0
   31.6958    9.3967    7.2035 C   0  0  0  0  0  0  0  0  0  0  0  0
   30.9208    8.5415    8.0053 N   0  0  0  0  0  0  0  0  0  0  0  0
  1  2  1  0
  2  3  1  0
  3  4  1  0
  4  5  1  0
  5  6  1  0
  2  7  1  0
  7  8  2  0
  7  9  1  0
  9 10  2  0
 10 11  1  0
 11 12  2  0
 12 13  1  0
 13 14  2  0
 14 15  1  0
 15 16  2  0
 16 17  1  0
 17 18  2  0
 18 19  1  0
  6  4  1  0
 18  9  1  0
 16 11  1  0
A    1
 C1 
A    2
 N1 
A    3
 C2 
A    4
 C3 
A    5
 C4 
A    6
 C5 
A    7
 C6 
A    8
 O1 
A    9
 C7 
A   10
 C8 
A   11
 C9 
A   12
 C10
A   13
 C11
A   14
 C12
A   15
 C13
A   16
 C14
A   17
 N2 
A   18
 C15
A   19
 N3 
M  END
>  <ref_pdb>  (717) 
Ax0310a

>  <ref_mols>  (717) 
Ax0446a,Ax1080a,Ax0812a,Ax0719a,Ax1140a,Ax0528a,Ax0310a

>  <original SMILES>  (717) 
CN(CC1CC1)C(=O)c1cc2ccccc2nc1N

>  <rationale>  (717) 
info info set:screening_pocket;hbond:S105; hydroph_interaction:P107+Y89+Y90; 

>  <experiment>  (717) 
screening_pocket

>  <cluster_label>  (717) 
3

>  <cluster_rank>  (717) 
374

>  <N_interactions>  (717) 
4

>  <∆∆G>  (717) 
-4.833759

>  <comRMSD>  (717) 
0.627823

>  <ROCS_TanimotoCombo>  (717) 
0.644

>  <ROCS_ShapeTanimoto>  (717) 
0.295

>  <ROCS_ColorTanimoto>  (717) 
0.349

$$$$
EN300_1622071
     RDKit          3D

 11 11  0  0  0  0  0  0  0  0999 V2000
   29.2245    8.0626    8.4298 C   0  0  0  0  0  0  0  0  0  0  0  0
   30.5777    7.8478    8.4227 C   0  0  0  0  0  0  0  0  0  0  0  0
   31.2737    9.0424    8.5839 C   0  0  0  0  0  0  0  0  0  0  0  0
   31.7962    9.7522    7.3858 C   0  0  0  0  0  0  0  0  0  0  0  0
   32.6109    8.9851    6.6390 N   0  0  0  0  0  0  0  0  0  0  0  0
   33.1585    9.5670    5.5781 C   0  0  0  0  0  0  0  0  0  0  0  0
   32.8774   11.0238    5.2225 C   0  0  0  0  0  0  0  0  0  0  0  0
   33.4463   11.6365    4.1096 C   0  0  0  0  0  0  0  0  0  0  0  0
   32.0117   11.7128    6.0706 C   0  0  0  0  0  0  0  0  0  0  0  0
   31.4565   11.0886    7.1643 C   0  0  0  0  0  0  0  0  0  0  0  0
   30.5970   11.8100    8.0070 N   0  0  0  0  0  0  0  0  0  0  0  0
  1  2  1  0
  2  3  1  0
  3  4  1  0
  4  5  2  0
  5  6  1  0
  6  7  2  0
  7  8  1  0
  7  9  1  0
  9 10  2  0
 10 11  1  0
 10  4  1  0
A    1
 C1 
A    2
 C2 
A    3
 C3 
A    4
 C4 
A    5
 N1 
A    6
 C5 
A    7
 C6 
A    8
 C7 
A    9
 C8 
A   10
 C9 
A   11
 N2 
M  END
>  <ref_pdb>  (718) 
Ax0310a

>  <ref_mols>  (718) 
Ax0446a,Ax1080a,Ax0812a,Ax0719a,Ax1140a,Ax0528a,Ax0310a

>  <original SMILES>  (718) 
CCCc1ncc(C)cc1N

>  <rationale>  (718) 
info info set:bb_densepocket2;hbond:S125+G127; hydroph_interaction:P107+V124+D109; 

>  <experiment>  (718) 
bb_densepocket2

>  <cluster_label>  (718) 
3

>  <cluster_rank>  (718) 
375

>  <N_interactions>  (718) 
5

>  <∆∆G>  (718) 
-0.070604

>  <comRMSD>  (718) 
0.773672

>  <ROCS_TanimotoCombo>  (718) 
0.638

>  <ROCS_ShapeTanimoto>  (718) 
0.183

>  <ROCS_ColorTanimoto>  (718) 
0.455

$$$$
Z960207234
     RDKit          3D

 17 18  0  0  0  0  0  0  0  0999 V2000
   35.3703    9.6254    4.0924 C   0  0  0  0  0  0  0  0  0  0  0  0
   34.5475    8.6878    4.8189 N   0  0  0  0  0  0  0  0  0  0  0  0
   33.5769    9.3217    5.5958 C   0  0  0  0  0  0  0  0  0  0  0  0
   33.3837   10.8416    5.4322 C   0  0  0  0  0  0  0  0  0  0  0  0
   32.3364   11.5426    6.2605 C   0  0  0  0  0  0  0  0  0  0  0  0
   31.6089   10.5680    7.1641 C   0  0  0  0  0  0  0  0  0  0  0  0
   30.5682   11.1222    8.0100 C   0  0  0  0  0  0  0  0  0  0  0  0
   30.1645   10.4413    8.9215 O   0  0  0  0  0  0  0  0  0  0  0  0
   30.1172   12.3891    7.6691 N   0  0  0  0  0  0  0  0  0  0  0  0
   28.9997   13.0218    8.3502 C   0  0  0  0  0  0  0  0  0  0  0  0
   27.8396   13.2329    7.4000 C   0  0  0  0  0  0  0  0  0  0  0  0
   28.2748   14.1942    6.3497 C   0  0  0  0  0  0  0  0  0  0  0  0
   28.6831   15.4286    6.9345 O   0  0  0  0  0  0  0  0  0  0  0  0
   28.7512   15.4916    8.3496 C   0  0  0  0  0  0  0  0  0  0  0  0
   29.4452   14.3225    9.0145 C   0  0  0  0  0  0  0  0  0  0  0  0
   31.8407    9.2554    7.2479 N   0  0  0  0  0  0  0  0  0  0  0  0
   32.8068    8.6626    6.4722 N   0  0  0  0  0  0  0  0  0  0  0  0
  1  2  1  0
  2  3  1  0
  3  4  2  0
  4  5  1  0
  5  6  2  0
  6  7  1  0
  7  8  2  0
  7  9  1  0
  9 10  1  0
 10 11  1  0
 11 12  1  0
 12 13  1  0
 13 14  1  0
 14 15  1  0
  6 16  1  0
 16 17  2  0
 17  3  1  0
 15 10  1  0
A    1
 C1 
A    2
 N1 
A    3
 C2 
A    4
 C3 
A    5
 C4 
A    6
 C5 
A    7
 C6 
A    8
 O1 
A    9
 N2 
A   10
 C7 
A   11
 C8 
A   12
 C9 
A   13
 O2 
A   14
 C10
A   15
 C11
A   16
 N3 
A   17
 N4 
M  END
>  <ref_pdb>  (719) 
Ax0310a

>  <ref_mols>  (719) 
Ax0446a,Ax1080a,Ax0812a,Ax0719a,Ax1140a,Ax0528a,Ax0310a

>  <original SMILES>  (719) 
CNc1ccc(C(=O)NC2CCOCC2)nn1

>  <rationale>  (719) 
info info set:screening_pocket;hbond:S105; hydroph_interaction:P107; 

>  <experiment>  (719) 
screening_pocket

>  <cluster_label>  (719) 
3

>  <cluster_rank>  (719) 
376

>  <N_interactions>  (719) 
2

>  <∆∆G>  (719) 
-2.796264

>  <comRMSD>  (719) 
0.515297

>  <ROCS_TanimotoCombo>  (719) 
0.685

>  <ROCS_ShapeTanimoto>  (719) 
0.241

>  <ROCS_ColorTanimoto>  (719) 
0.444

$$$$
EN300_1120848
     RDKit          3D

 13 13  0  0  0  0  0  0  0  0999 V2000
   35.5850   14.6113    9.2643 N   0  0  0  0  0  0  0  0  0  0  0  0
   34.0753   14.2236    8.7201 S   0  0  0  0  0  6  0  0  0  0  0  0
   33.2004   15.2252    9.2998 O   0  0  0  0  0  0  0  0  0  0  0  0
   33.8131   12.8470    8.9941 O   0  0  0  0  0  0  0  0  0  0  0  0
   34.4681   14.3820    6.9819 C   0  0  0  0  0  0  0  0  0  0  0  0
   33.5382   13.4908    6.2149 C   0  0  0  0  0  0  0  0  0  0  0  0
   32.9638   12.5922    7.0355 O   0  0  0  0  0  0  0  0  0  0  0  0
   32.0955   11.7238    6.3697 C   0  0  0  0  0  0  0  0  0  0  0  0
   30.8613   11.5197    7.2964 C   0  0  0  0  0  0  0  0  0  0  0  0
   30.6142   10.2345    8.0784 C   0  0  0  0  0  0  0  0  0  0  0  0
   31.5154    9.0032    7.7149 C   0  0  0  0  0  0  0  0  0  0  0  0
   32.5104    9.2482    6.5480 C   0  0  0  0  0  0  0  0  0  0  0  0
   32.8902   10.6258    6.0784 C   0  0  0  0  0  0  0  0  0  0  0  0
  1  2  1  0
  2  3  2  0
  2  4  2  0
  2  5  1  0
  5  6  1  0
  6  7  1  0
  7  8  1  0
  8  9  1  0
  9 10  1  0
 10 11  1  0
 11 12  1  0
 12 13  1  0
 13  8  1  0
A    1
 N1 
A    2
 S1 
A    3
 O1 
A    4
 O2 
A    5
 C1 
A    6
 C2 
A    7
 O3 
A    8
 C3 
A    9
 C4 
A   10
 C5 
A   11
 C6 
A   12
 C7 
A   13
 C8 
M  END
>  <ref_pdb>  (720) 
Ax0310a

>  <ref_mols>  (720) 
Ax0446a,Ax1080a,Ax0812a,Ax0719a,Ax1140a,Ax0528a,Ax0310a

>  <original SMILES>  (720) 
NS(=O)(=O)CCOC1CCCCC1

>  <rationale>  (720) 
info info set:sulfonimide_joint;hbond:S87+G127+E85; 

>  <experiment>  (720) 
sulfonimide_joint

>  <cluster_label>  (720) 
3

>  <cluster_rank>  (720) 
377

>  <N_interactions>  (720) 
3

>  <∆∆G>  (720) 
-2.614985

>  <comRMSD>  (720) 
0.82466

>  <ROCS_TanimotoCombo>  (720) 
0.369

>  <ROCS_ShapeTanimoto>  (720) 
0.175

>  <ROCS_ColorTanimoto>  (720) 
0.194

$$$$
EN300_271059
     RDKit          3D

 13 14  0  0  0  0  0  0  0  0999 V2000
   29.3545   12.2338    8.3914 N   0  0  0  0  0  0  0  0  0  0  0  0
   30.7504   12.7751    7.6849 S   0  0  0  0  0  6  0  0  0  0  0  0
   30.2797   13.4116    6.4796 O   0  0  0  0  0  0  0  0  0  0  0  0
   31.4875   13.4957    8.6994 O   0  0  0  0  0  0  0  0  0  0  0  0
   31.6240   11.2979    7.2069 C   0  0  0  0  0  0  0  0  0  0  0  0
   31.3410    9.8839    7.6750 C   0  0  0  0  0  0  0  0  0  0  0  0
   30.2506    9.1515    8.7314 Cl  0  0  0  0  0  0  0  0  0  0  0  0
   32.2864    9.1385    6.9803 N   0  0  0  0  0  0  0  0  0  0  0  0
   33.0779    9.8688    6.1999 C   0  0  0  0  0  0  0  0  0  0  0  0
   34.4022    9.6184    5.1054 S   0  0  0  0  0  0  0  0  0  0  0  0
   34.4588   11.3726    4.8466 C   0  0  0  0  0  0  0  0  0  0  0  0
   33.4825   12.0395    5.5620 C   0  0  0  0  0  0  0  0  0  0  0  0
   32.7028   11.2176    6.3247 N   0  0  0  0  0  0  0  0  0  0  0  0
  1  2  1  0
  2  3  2  0
  2  4  2  0
  2  5  1  0
  5  6  2  0
  6  7  1  0
  6  8  1  0
  8  9  2  0
  9 10  1  0
 10 11  1  0
 11 12  2  0
 12 13  1  0
 13  5  1  0
 13  9  1  0
A    1
 N1 
A    2
 S1 
A    3
 O1 
A    4
 O2 
A    5
 C1 
A    6
 C2 
A    7
CL1 
A    8
 N2 
A    9
 C3 
A   10
 S2 
A   11
 C4 
A   12
 C5 
A   13
 N3 
M  END
>  <ref_pdb>  (721) 
Ax0310a

>  <ref_mols>  (721) 
Ax0446a,Ax1080a,Ax0812a,Ax0719a,Ax1140a,Ax0528a,Ax0310a

>  <original SMILES>  (721) 
NS(=O)(=O)c1c(Cl)nc2sccn12

>  <rationale>  (721) 
info info set:sulfonimide_whole;hbond:S87+S125; 

>  <experiment>  (721) 
sulfonimide_whole

>  <cluster_label>  (721) 
3

>  <cluster_rank>  (721) 
378

>  <N_interactions>  (721) 
2

>  <∆∆G>  (721) 
-4.07864

>  <comRMSD>  (721) 
0.478715

>  <ROCS_TanimotoCombo>  (721) 
0.348

>  <ROCS_ShapeTanimoto>  (721) 
0.201

>  <ROCS_ColorTanimoto>  (721) 
0.147

$$$$
Z353866024
     RDKit          3D

 27 30  0  0  0  0  0  0  0  0999 V2000
   27.5435   16.0940   10.8542 C   0  0  0  0  0  0  0  0  0  0  0  0
   28.8201   16.6724   10.4071 C   0  0  0  0  0  0  0  0  0  0  0  0
   29.6838   15.7723    9.7300 N   0  0  0  0  0  0  0  0  0  0  0  0
   31.0563   15.7815   10.0507 C   0  0  0  0  0  0  0  0  0  0  0  0
   31.6399   16.7690   11.0614 C   0  0  0  0  0  0  0  0  0  0  0  0
   31.8338   14.9947    9.5240 O   0  0  0  0  0  0  0  0  0  0  0  0
   29.0752   14.9611    8.8591 C   0  0  0  0  0  0  0  0  0  0  0  0
   28.7802   13.7485    9.0012 N   0  0  0  0  0  0  0  0  0  0  0  0
   28.1237   13.2617    7.9097 C   0  0  0  0  0  0  0  0  0  0  0  0
   27.8280   11.8707    8.1613 C   0  0  0  0  0  0  0  0  0  0  0  0
   29.0917   11.0609    8.1820 C   0  0  0  0  0  0  0  0  0  0  0  0
   29.0874    9.6278    8.5272 C   0  0  0  0  0  0  0  0  0  0  0  0
   30.2420    8.7801    8.4285 C   0  0  0  0  0  0  0  0  0  0  0  0
   31.2183    9.3642    7.6596 C   0  0  0  0  0  0  0  0  0  0  0  0
   32.2378    8.7372    7.0361 N   0  0  0  0  0  0  0  0  0  0  0  0
   33.0079    9.6309    6.3928 C   0  0  0  0  0  0  0  0  0  0  0  0
   34.2600    9.3938    5.5701 C   0  0  0  0  0  0  0  0  0  0  0  0
   34.9831   10.5996    4.9646 C   0  0  0  0  0  0  0  0  0  0  0  0
   34.3750   12.0171    5.2247 C   0  0  0  0  0  0  0  0  0  0  0  0
   34.9744   13.0982    4.7248 F   0  0  0  0  0  0  0  0  0  0  0  0
   33.0851   12.1215    6.0604 C   0  0  0  0  0  0  0  0  0  0  0  0
   32.4441   10.8593    6.6278 C   0  0  0  0  0  0  0  0  0  0  0  0
   31.3178   10.6965    7.3950 C   0  0  0  0  0  0  0  0  0  0  0  0
   30.4317   11.6850    7.8337 C   0  0  0  0  0  0  0  0  0  0  0  0
   30.7064   12.8709    7.8681 O   0  0  0  0  0  0  0  0  0  0  0  0
   27.9012   14.1061    6.8896 C   0  0  0  0  0  0  0  0  0  0  0  0
   28.5842   15.5742    7.3812 S   0  0  0  0  0  0  0  0  0  0  0  0
  1  2  1  0
  2  3  1  0
  3  4  1  0
  4  5  1  0
  4  6  2  0
  3  7  1  0
  7  8  2  0
  8  9  1  0
  9 10  1  0
 10 11  2  3
 11 12  1  0
 12 13  1  0
 13 14  1  0
 14 15  1  0
 15 16  1  0
 16 17  2  0
 17 18  1  0
 18 19  2  0
 19 20  1  0
 19 21  1  0
 21 22  2  0
 22 23  1  0
 23 24  1  0
 24 25  2  0
  9 26  2  0
 26 27  1  0
 27  7  1  0
 24 11  1  0
 23 14  2  0
 22 16  1  0
A    1
 C1 
A    2
 C2 
A    3
 N1 
A    4
 C3 
A    5
 C4 
A    6
 O1 
A    7
 C5 
A    8
 N2 
A    9
 C6 
A   10
 C7 
A   11
 C8 
A   12
 C9 
A   13
 C10
A   14
 C11
A   15
 N3 
A   16
 C12
A   17
 C13
A   18
 C14
A   19
 C15
A   20
 F1 
A   21
 C16
A   22
 C17
A   23
 C18
A   24
 C19
A   25
 O2 
A   26
 C20
A   27
 S1 
M  END
>  <ref_pdb>  (722) 
Ax0310a

>  <ref_mols>  (722) 
Ax0446a,Ax1080a,Ax0812a,Ax0719a,Ax1140a,Ax0528a,Ax0310a

>  <original SMILES>  (722) 
CCN(C(C)=O)c1nc(C=C2CCc3[nH]c4ccc(F)cc4c3C2=O)cs1

>  <rationale>  (722) 
info info set:screening_whole;hbond:S87; hydroph_interaction:Y90+V124+V84; 

>  <experiment>  (722) 
screening_whole

>  <cluster_label>  (722) 
3

>  <cluster_rank>  (722) 
379

>  <N_interactions>  (722) 
5

>  <∆∆G>  (722) 
-4.874097

>  <comRMSD>  (722) 
0.953066

>  <ROCS_TanimotoCombo>  (722) 
0.461

>  <ROCS_ShapeTanimoto>  (722) 
0.264

>  <ROCS_ColorTanimoto>  (722) 
0.197

$$$$
EN300_172932
     RDKit          3D

 12 12  0  0  0  0  0  0  0  0999 V2000
   33.4044   13.0950    5.0969 C   0  0  0  0  0  0  0  0  0  0  0  0
   33.6104   12.4481    6.4227 C   0  0  2  0  0  0  0  0  0  0  0  0
   32.7139   11.4472    6.8247 C   0  0  0  0  0  0  0  0  0  0  0  0
   32.9661   10.0967    6.6010 C   0  0  0  0  0  0  0  0  0  0  0  0
   32.0408    9.1602    7.0659 C   0  0  0  0  0  0  0  0  0  0  0  0
   30.9142    9.5923    7.7161 C   0  0  0  0  0  0  0  0  0  0  0  0
   30.7221   10.9416    7.8827 C   0  0  0  0  0  0  0  0  0  0  0  0
   31.6050   11.8703    7.4481 N   0  0  0  0  0  0  0  0  0  0  0  0
   33.6808   13.4908    7.7950 S   0  0  0  0  0  6  0  0  0  0  0  0
   34.8007   14.6960    7.3741 N   0  0  0  0  0  0  0  0  0  0  0  0
   34.1549   12.8636    8.9913 O   0  0  0  0  0  0  0  0  0  0  0  0
   32.3678   14.0190    7.8472 O   0  0  0  0  0  0  0  0  0  0  0  0
  2  1  1  6
  2  3  1  0
  3  4  2  0
  4  5  1  0
  5  6  2  0
  6  7  1  0
  7  8  2  0
  2  9  1  0
  9 10  1  0
  9 11  2  0
  9 12  2  0
  8  3  1  0
A    1
 C1 
A    2
 C2 
A    3
 C3 
A    4
 C4 
A    5
 C5 
A    6
 C6 
A    7
 C7 
A    8
 N1 
A    9
 S1 
A   10
 N2 
A   11
 O1 
A   12
 O2 
M  END
>  <ref_pdb>  (723) 
Ax0310a

>  <ref_mols>  (723) 
Ax0446a,Ax1080a,Ax0812a,Ax0719a,Ax1140a,Ax0528a,Ax0310a

>  <original SMILES>  (723) 
C[C@H](c1ccccn1)S(N)(=O)=O

>  <rationale>  (723) 
info info set:sulfonimide_joint;hbond:S87+G127+E85; 

>  <experiment>  (723) 
sulfonimide_joint

>  <cluster_label>  (723) 
3

>  <cluster_rank>  (723) 
380

>  <N_interactions>  (723) 
3

>  <∆∆G>  (723) 
-6.250647

>  <comRMSD>  (723) 
0.642477

>  <ROCS_TanimotoCombo>  (723) 
0.318

>  <ROCS_ShapeTanimoto>  (723) 
0.166

>  <ROCS_ColorTanimoto>  (723) 
0.153

$$$$
EN300_286733
     RDKit          3D

 13 13  0  0  0  0  0  0  0  0999 V2000
   34.6472   15.1243    9.1118 N   0  0  0  0  0  0  0  0  0  0  0  0
   33.6822   13.8858    8.6151 S   0  0  0  0  0  6  0  0  0  0  0  0
   32.3223   14.2916    8.8711 O   0  0  0  0  0  0  0  0  0  0  0  0
   34.2668   12.7939    9.2847 O   0  0  0  0  0  0  0  0  0  0  0  0
   34.0562   13.7733    6.8702 C   0  0  0  0  0  0  0  0  0  0  0  0
   32.9480   13.0964    6.0762 C   0  0  0  0  0  0  0  0  0  0  0  0
   32.4685   11.8548    6.8089 C   0  0  0  0  0  0  0  0  0  0  0  0
   31.1290   11.6372    6.6890 C   0  0  0  0  0  0  0  0  0  0  0  0
   30.3467   11.2699    7.8852 C   0  0  0  0  0  0  0  0  0  0  0  0
   30.4476    9.7563    8.2293 C   0  0  0  0  0  0  0  0  0  0  0  0
   31.6233    8.9410    7.6726 C   0  0  0  0  0  0  0  0  0  0  0  0
   32.5733    9.3253    6.5111 C   0  0  0  0  0  0  0  0  0  0  0  0
   33.1575   10.6903    6.1500 C   0  0  0  0  0  0  0  0  0  0  0  0
  1  2  1  0
  2  3  2  0
  2  4  2  0
  2  5  1  0
  5  6  1  0
  6  7  1  0
  7  8  1  0
  8  9  1  0
  9 10  1  0
 10 11  1  0
 11 12  1  0
 12 13  1  0
 13  7  1  0
A    1
 N1 
A    2
 S1 
A    3
 O1 
A    4
 O2 
A    5
 C1 
A    6
 C2 
A    7
 C3 
A    8
 C4 
A    9
 C5 
A   10
 C6 
A   11
 C7 
A   12
 C8 
A   13
 C9 
M  END
>  <ref_pdb>  (724) 
Ax0310a

>  <ref_mols>  (724) 
Ax0446a,Ax1080a,Ax0812a,Ax0719a,Ax1140a,Ax0528a,Ax0310a

>  <original SMILES>  (724) 
NS(=O)(=O)CCC1CCCCCC1

>  <rationale>  (724) 
info info set:sulfonimide_joint;hbond:S87+G127+E85; hydroph_interaction:P107; 

>  <experiment>  (724) 
sulfonimide_joint

>  <cluster_label>  (724) 
3

>  <cluster_rank>  (724) 
381

>  <N_interactions>  (724) 
4

>  <∆∆G>  (724) 
-1.925536

>  <comRMSD>  (724) 
0.515699

>  <ROCS_TanimotoCombo>  (724) 
0.331

>  <ROCS_ShapeTanimoto>  (724) 
0.167

>  <ROCS_ColorTanimoto>  (724) 
0.164

$$$$
Z3074667795
     RDKit          3D

 22 24  0  0  0  0  0  0  0  0999 V2000
   36.3596    7.8568    3.5488 C   0  0  0  0  0  0  0  0  0  0  0  0
   35.2230    8.1144    4.5279 C   0  0  0  0  0  0  0  0  0  0  0  0
   34.8240    9.5008    4.7412 N   0  0  0  0  0  0  0  0  0  0  0  0
   33.6377    9.7896    5.5952 C   0  0  0  0  0  0  0  0  0  0  0  0
   32.9510    8.8498    6.3052 N   0  0  0  0  0  0  0  0  0  0  0  0
   31.8854    9.2617    7.0396 C   0  0  0  0  0  0  0  0  0  0  0  0
   31.4167   10.7012    7.1164 C   0  0  0  0  0  0  0  0  0  0  0  0
   30.0605   11.2530    8.0519 S   0  0  0  0  0  6  0  0  0  0  0  0
   30.6290   12.2019    8.9102 O   0  0  0  0  0  0  0  0  0  0  0  0
   29.1723   10.1756    8.4506 O   0  0  0  0  0  0  0  0  0  0  0  0
   29.2682   12.4019    7.1785 N   0  0  0  0  0  0  0  0  0  0  0  0
   29.4869   13.6875    7.8897 C   0  0  0  0  0  0  0  0  0  0  0  0
   28.3263   14.4920    7.3273 C   0  0  0  0  0  0  0  0  0  0  0  0
   28.4407   15.9040    7.5117 O   0  0  0  0  0  0  0  0  0  0  0  0
   27.4169   13.6278    6.7690 N   0  0  0  0  0  0  0  0  0  0  0  0
   26.5806   13.8979    5.6609 C   0  0  0  0  0  0  0  0  0  0  0  0
   25.3029   14.5255    5.8463 C   0  0  0  0  0  0  0  0  0  0  0  0
   25.1030   13.1471    5.5060 C   0  0  0  0  0  0  0  0  0  0  0  0
   27.8060   12.3076    7.1389 C   0  0  0  0  0  0  0  0  0  0  0  0
   32.1752   11.5757    6.3730 C   0  0  0  0  0  0  0  0  0  0  0  0
   33.2626   11.1321    5.6264 C   0  0  0  0  0  0  0  0  0  0  0  0
   34.1637   12.2859    4.7224 Cl  0  0  0  0  0  0  0  0  0  0  0  0
  1  2  1  0
  2  3  1  0
  3  4  1  0
  4  5  2  0
  5  6  1  0
  6  7  2  0
  7  8  1  0
  8  9  2  0
  8 10  2  0
  8 11  1  0
 11 12  1  0
 12 13  1  0
 13 14  2  0
 13 15  1  0
 15 16  1  0
 16 17  1  0
 17 18  1  0
 15 19  1  0
  7 20  1  0
 20 21  2  0
 21 22  1  0
 21  4  1  0
 19 11  1  0
 18 16  1  0
A    1
 C1 
A    2
 C2 
A    3
 N1 
A    4
 C3 
A    5
 N2 
A    6
 C4 
A    7
 C5 
A    8
 S1 
A    9
 O1 
A   10
 O2 
A   11
 N3 
A   12
 C6 
A   13
 C7 
A   14
 O3 
A   15
 N4 
A   16
 C8 
A   17
 C9 
A   18
 C10
A   19
 C11
A   20
 C12
A   21
 C13
A   22
CL1 
M  END
>  <ref_pdb>  (725) 
Ax0310a

>  <ref_mols>  (725) 
Ax0446a,Ax1080a,Ax0812a,Ax0719a,Ax1140a,Ax0528a,Ax0310a

>  <original SMILES>  (725) 
CCNc1ncc(S(=O)(=O)N2CC(=O)N(C3CC3)C2)cc1Cl

>  <rationale>  (725) 
info info set:screening_pocket;hbond:S87+G127+Y90; hydroph_interaction:P107+Y89; 

>  <experiment>  (725) 
screening_pocket

>  <cluster_label>  (725) 
3

>  <cluster_rank>  (725) 
382

>  <N_interactions>  (725) 
5

>  <∆∆G>  (725) 
-3.501916

>  <comRMSD>  (725) 
0.6943

>  <ROCS_TanimotoCombo>  (725) 
0.646

>  <ROCS_ShapeTanimoto>  (725) 
0.248

>  <ROCS_ColorTanimoto>  (725) 
0.398

$$$$
EN300_234192
     RDKit          3D

 14 14  0  0  0  0  0  0  0  0999 V2000
   34.4683   13.7301    8.0733 N   0  0  0  0  0  0  0  0  0  0  0  0
   33.3133   13.5143    7.3753 C   0  0  0  0  0  0  0  0  0  0  0  0
   33.2719   13.8915    6.0100 O   0  0  0  0  0  0  0  0  0  0  0  0
   32.2487   12.8899    8.0424 C   0  0  2  0  0  0  0  0  0  0  0  0
   32.0863   11.5787    7.6825 C   0  0  0  0  0  0  0  0  0  0  0  0
   31.1281   10.7885    8.2574 C   0  0  0  0  0  0  0  0  0  0  0  0
   31.1312    9.4021    7.8309 C   0  0  0  0  0  0  0  0  0  0  0  0
   31.9718    8.8184    6.9123 C   0  0  0  0  0  0  0  0  0  0  0  0
   32.9904    9.7501    6.2543 C   0  0  0  0  0  0  0  0  0  0  0  0
   32.9511   11.0512    6.7119 C   0  0  0  0  0  0  0  0  0  0  0  0
   30.6287   13.6037    7.8874 S   0  0  0  0  0  6  0  0  0  0  0  0
   29.4908   12.5816    8.5465 N   0  0  0  0  0  0  0  0  0  0  0  0
   30.2222   13.5680    6.5072 O   0  0  0  0  0  0  0  0  0  0  0  0
   30.5698   14.7499    8.7670 O   0  0  0  0  0  0  0  0  0  0  0  0
  1  2  1  0
  2  3  2  0
  4  2  1  6
  4  5  1  0
  5  6  2  0
  6  7  1  0
  7  8  2  0
  8  9  1  0
  9 10  2  0
  4 11  1  0
 11 12  1  0
 11 13  2  0
 11 14  2  0
 10  5  1  0
A    1
 N1 
A    2
 C1 
A    3
 O1 
A    4
 C2 
A    5
 C3 
A    6
 C4 
A    7
 C5 
A    8
 C6 
A    9
 C7 
A   10
 C8 
A   11
 S1 
A   12
 N2 
A   13
 O2 
A   14
 O3 
M  END
>  <ref_pdb>  (726) 
Ax0310a

>  <ref_mols>  (726) 
Ax0446a,Ax1080a,Ax0812a,Ax0719a,Ax1140a,Ax0528a,Ax0310a

>  <original SMILES>  (726) 
NC(=O)[C@H](c1ccccc1)S(N)(=O)=O

>  <rationale>  (726) 
info info set:sulfonimide_whole;hbond:S87+S125+G127+E85; 

>  <experiment>  (726) 
sulfonimide_whole

>  <cluster_label>  (726) 
3

>  <cluster_rank>  (726) 
383

>  <N_interactions>  (726) 
4

>  <∆∆G>  (726) 
-3.151434

>  <comRMSD>  (726) 
0.718877

>  <ROCS_TanimotoCombo>  (726) 
0.347

>  <ROCS_ShapeTanimoto>  (726) 
0.187

>  <ROCS_ColorTanimoto>  (726) 
0.16

$$$$
Z600617644
     RDKit          3D

 17 18  0  0  0  0  0  0  0  0999 V2000
   34.2393   14.3515    9.4829 C   0  0  0  0  0  0  0  0  0  0  0  0
   34.2580   14.0634    8.1371 C   0  0  0  0  0  0  0  0  0  0  0  0
   35.2748   14.0671    7.2356 N   0  0  0  0  0  0  0  0  0  0  0  0
   34.8522   13.7323    5.9959 N   0  0  0  0  0  0  0  0  0  0  0  0
   33.5180   13.5066    6.1100 C   0  0  0  0  0  0  0  0  0  0  0  0
   32.9848   13.6734    7.4077 C   0  0  0  0  0  0  0  0  0  0  0  0
   31.3176   13.5081    7.9436 S   0  0  0  0  0  6  0  0  0  0  0  0
   30.5601   13.6007    6.7203 O   0  0  0  0  0  0  0  0  0  0  0  0
   31.1842   14.4318    9.0518 O   0  0  0  0  0  0  0  0  0  0  0  0
   30.8028   12.0505    8.4275 N   0  0  0  0  0  0  0  0  0  0  0  0
   31.4130   11.0285    7.7522 C   0  0  0  0  0  0  0  0  0  0  0  0
   32.3644   11.4069    6.7732 C   0  0  0  0  0  0  0  0  0  0  0  0
   32.9518   10.3935    6.1167 C   0  0  0  0  0  0  0  0  0  0  0  0
   32.5984    8.9862    6.4248 C   0  0  0  0  0  0  0  0  0  0  0  0
   31.6529    8.7453    7.3991 C   0  0  0  0  0  0  0  0  0  0  0  0
   31.0594    9.7562    8.0674 C   0  0  0  0  0  0  0  0  0  0  0  0
   30.1538    9.5091    9.0122 F   0  0  0  0  0  0  0  0  0  0  0  0
  1  2  1  0
  2  3  1  0
  3  4  1  0
  4  5  2  0
  5  6  1  0
  6  7  1  0
  7  8  2  0
  7  9  2  0
  7 10  1  0
 10 11  1  0
 11 12  2  0
 12 13  1  0
 13 14  2  0
 14 15  1  0
 15 16  2  0
 16 17  1  0
  6  2  2  0
 16 11  1  0
A    1
 C1 
A    2
 C2 
A    3
 N1 
A    4
 N2 
A    5
 C3 
A    6
 C4 
A    7
 S1 
A    8
 O1 
A    9
 O2 
A   10
 N3 
A   11
 C5 
A   12
 C6 
A   13
 C7 
A   14
 C8 
A   15
 C9 
A   16
 C10
A   17
 F1 
M  END
>  <ref_pdb>  (727) 
Ax0310a

>  <ref_mols>  (727) 
Ax0446a,Ax1080a,Ax0812a,Ax0719a,Ax1140a,Ax0528a,Ax0310a

>  <original SMILES>  (727) 
Cc1[nH]ncc1S(=O)(=O)Nc1ccccc1F

>  <rationale>  (727) 
info info set:3d;hbond:S87+S125+G127; hydroph_interaction:V84; 

>  <experiment>  (727) 
3d

>  <cluster_label>  (727) 
3

>  <cluster_rank>  (727) 
384

>  <N_interactions>  (727) 
4

>  <∆∆G>  (727) 
-3.054225

>  <comRMSD>  (727) 
0.669296

>  <ROCS_TanimotoCombo>  (727) 
0.324

>  <ROCS_ShapeTanimoto>  (727) 
0.193

>  <ROCS_ColorTanimoto>  (727) 
0.13

$$$$
EN300_195638
     RDKit          3D

 20 21  0  0  0  0  0  0  0  0999 V2000
   31.9018   15.5046   10.1215 C   0  0  0  0  0  0  0  0  0  0  0  0
   30.6569   15.8887    9.5943 O   0  0  0  0  0  0  0  0  0  0  0  0
   29.9540   14.9155    8.9606 C   0  0  0  0  0  0  0  0  0  0  0  0
   28.6207   15.3690    8.3815 C   0  0  0  0  0  0  0  0  0  0  0  0
   27.8179   14.2878    7.6574 C   0  0  0  0  0  0  0  0  0  0  0  0
   28.4703   12.8930    7.6188 C   0  0  0  0  0  0  0  0  0  0  0  0
   29.7224   12.6881    8.2238 C   0  0  0  0  0  0  0  0  0  0  0  0
   30.1448   11.3169    8.0868 N   0  0  0  0  0  0  0  0  0  0  0  0
   31.1559   10.7328    7.4304 C   0  0  0  0  0  0  0  0  0  0  0  0
   31.3250    9.3748    7.5520 N   0  0  0  0  0  0  0  0  0  0  0  0
   32.3479    8.8384    6.8658 N   0  0  0  0  0  0  0  0  0  0  0  0
   32.9027    9.8708    6.2503 C   0  0  0  0  0  0  0  0  0  0  0  0
   34.1006    9.7062    5.3556 C   0  0  0  0  0  0  0  0  0  0  0  0
   32.1523   11.2022    6.5852 C   0  0  0  0  0  0  0  0  0  0  0  0
   32.4025   12.5121    6.1571 C   0  0  0  0  0  0  0  0  0  0  0  0
   33.4681   13.0564    6.4352 O   0  0  0  0  0  0  0  0  0  0  0  0
   31.4451   13.1961    5.3984 N   0  0  0  0  0  0  0  0  0  0  0  0
   31.8626   13.8786    4.1919 C   0  0  0  0  0  0  0  0  0  0  0  0
   30.0202   13.1841    5.6594 C   0  0  0  0  0  0  0  0  0  0  0  0
   30.4463   13.6568    8.8695 C   0  0  0  0  0  0  0  0  0  0  0  0
  1  2  1  0
  2  3  1  0
  3  4  2  0
  4  5  1  0
  5  6  2  0
  6  7  1  0
  7  8  1  0
  8  9  1  0
  9 10  1  0
 10 11  1  0
 11 12  2  0
 12 13  1  0
 12 14  1  0
 14 15  1  0
 15 16  2  0
 15 17  1  0
 17 18  1  0
 17 19  1  0
  7 20  2  0
 20  3  1  0
 14  9  2  0
A    1
 C1 
A    2
 O1 
A    3
 C2 
A    4
 C3 
A    5
 C4 
A    6
 C5 
A    7
 C6 
A    8
 N1 
A    9
 C7 
A   10
 N2 
A   11
 N3 
A   12
 C8 
A   13
 C9 
A   14
 C10
A   15
 C11
A   16
 O2 
A   17
 N4 
A   18
 C12
A   19
 C13
A   20
 C14
M  END
>  <ref_pdb>  (728) 
Ax0310a

>  <ref_mols>  (728) 
Ax0446a,Ax1080a,Ax0812a,Ax0719a,Ax1140a,Ax0528a,Ax0310a

>  <original SMILES>  (728) 
COc1cccc(Nc2[nH]nc(C)c2C(=O)N(C)C)c1

>  <rationale>  (728) 
info info set:bb_whole;hbond:S87+S125; hydroph_interaction:P107+Y89+Y90; 

>  <experiment>  (728) 
bb_whole

>  <cluster_label>  (728) 
3

>  <cluster_rank>  (728) 
385

>  <N_interactions>  (728) 
5

>  <∆∆G>  (728) 
-9.978975

>  <comRMSD>  (728) 
0.651673

>  <ROCS_TanimotoCombo>  (728) 
0.417

>  <ROCS_ShapeTanimoto>  (728) 
0.242

>  <ROCS_ColorTanimoto>  (728) 
0.175

$$$$
EN300_801671
     RDKit          3D

 17 18  0  0  0  0  0  0  0  0999 V2000
   34.9148    8.2344    4.6505 C   0  0  0  0  0  0  0  0  0  0  0  0
   34.3026    9.5186    5.0776 C   0  0  0  0  0  0  0  0  0  0  0  0
   35.1970   10.3879    4.3539 C   0  0  0  0  0  0  0  0  0  0  0  0
   35.0462   11.8487    4.4209 C   0  0  0  0  0  0  0  0  0  0  0  0
   33.9228   12.5493    5.2649 C   0  0  0  0  0  0  0  0  0  0  0  0
   33.0659   11.3871    5.9686 C   0  0  0  0  0  0  0  0  0  0  0  0
   31.9625   11.9207    6.7964 C   0  0  0  0  0  0  0  0  0  0  0  0
   31.1072   11.1328    7.4743 C   0  0  0  0  0  0  0  0  0  0  0  0
   30.0827   11.7689    8.2265 N   0  0  0  0  0  0  0  0  0  0  0  0
   29.7943   13.1103    7.9416 N   0  0  0  0  0  0  0  0  0  0  0  0
   31.2784    9.7681    7.3913 C   0  0  0  0  0  0  0  0  0  0  0  0
   30.2969    8.8988    8.1613 C   0  0  0  0  0  0  0  0  0  0  0  0
   30.5968    7.5714    8.4311 C   0  0  0  0  0  0  0  0  0  0  0  0
   28.8272    9.1102    8.2899 C   0  0  0  0  0  0  0  0  0  0  0  0
   30.2918    9.2877    9.5137 C   0  0  0  0  0  0  0  0  0  0  0  0
   32.3165    9.1754    6.6346 N   0  0  0  0  0  0  0  0  0  0  0  0
   33.2130    9.9644    5.9073 C   0  0  0  0  0  0  0  0  0  0  0  0
  1  2  1  0
  2  3  2  0
  3  4  1  0
  4  5  2  0
  5  6  1  0
  6  7  2  0
  7  8  1  0
  8  9  1  0
  9 10  1  0
  8 11  2  0
 11 12  1  0
 12 13  1  0
 12 14  1  0
 12 15  1  0
 11 16  1  0
 16 17  2  0
 17  2  1  0
 17  6  1  0
A    1
 C1 
A    2
 C2 
A    3
 C3 
A    4
 C4 
A    5
 C5 
A    6
 C6 
A    7
 C7 
A    8
 C8 
A    9
 N1 
A   10
 N2 
A   11
 C9 
A   12
 C10
A   13
 C11
A   14
 C12
A   15
 C13
A   16
 N3 
A   17
 C14
M  END
>  <ref_pdb>  (729) 
Ax0310a

>  <ref_mols>  (729) 
Ax0446a,Ax1080a,Ax0812a,Ax0719a,Ax1140a,Ax0528a,Ax0310a

>  <original SMILES>  (729) 
Cc1cccc2cc(NN)c(C(C)(C)C)nc12

>  <rationale>  (729) 
info info set:bb_densepocket2;hbond:S125; hydroph_interaction:D109; 

>  <experiment>  (729) 
bb_densepocket2

>  <cluster_label>  (729) 
3

>  <cluster_rank>  (729) 
386

>  <N_interactions>  (729) 
3

>  <∆∆G>  (729) 
-4.947866

>  <comRMSD>  (729) 
0.873683

>  <ROCS_TanimotoCombo>  (729) 
0.62

>  <ROCS_ShapeTanimoto>  (729) 
0.284

>  <ROCS_ColorTanimoto>  (729) 
0.336

$$$$
Z1134135023
     RDKit          3D

 23 25  0  0  0  0  0  0  0  0999 V2000
   31.8885   14.2008    8.9879 O   0  0  0  0  0  0  0  0  0  0  0  0
   30.8000   14.6753    9.3472 N   0  0  0  0  0  4  0  0  0  0  0  0
   30.7342   15.7496    9.9638 O   0  0  0  0  0  1  0  0  0  0  0  0
   29.8899   14.4232    8.6552 C   0  0  0  0  0  0  0  0  0  0  0  0
   28.6592   14.9168    8.9666 N   0  0  0  0  0  0  0  0  0  0  0  0
   27.6821   14.6031    8.1250 C   0  0  0  0  0  0  0  0  0  0  0  0
   27.8622   13.7464    6.9045 C   0  0  0  0  0  0  0  0  0  0  0  0
   29.1229   13.2825    6.6513 C   0  0  0  0  0  0  0  0  0  0  0  0
   30.1529   13.6233    7.5210 C   0  0  0  0  0  0  0  0  0  0  0  0
   31.4043   13.1756    7.2188 O   0  0  0  0  0  0  0  0  0  0  0  0
   31.6282   11.8270    7.1446 C   0  0  0  0  0  0  0  0  0  0  0  0
   30.7874   11.0234    7.7715 N   0  0  0  0  0  0  0  0  0  0  0  0
   31.0623    9.7300    7.6710 C   0  0  0  0  0  0  0  0  0  0  0  0
   30.1203    8.7902    8.4057 C   0  0  0  0  0  0  0  0  0  0  0  0
   30.6533    7.6284    8.6795 F   0  0  0  0  0  0  0  0  0  0  0  0
   29.8094    9.2087    9.6294 F   0  0  0  0  0  0  0  0  0  0  0  0
   32.0965    9.2282    6.9809 N   0  0  0  0  0  0  0  0  0  0  0  0
   32.9226   10.0682    6.3551 C   0  0  0  0  0  0  0  0  0  0  0  0
   34.0910    9.4535    5.5776 C   0  0  0  0  0  0  0  0  0  0  0  0
   35.0011   10.4845    4.9066 C   0  0  0  0  0  0  0  0  0  0  0  0
   34.7556   11.9849    5.0071 C   0  0  0  0  0  0  0  0  0  0  0  0
   33.6779   12.4737    5.7162 C   0  0  0  0  0  0  0  0  0  0  0  0
   32.7338   11.4456    6.4112 C   0  0  0  0  0  0  0  0  0  0  0  0
  1  2  2  0
  2  3  1  0
  2  4  1  0
  4  5  2  0
  5  6  1  0
  6  7  2  0
  7  8  1  0
  8  9  2  0
  9 10  1  0
 10 11  1  0
 11 12  2  0
 12 13  1  0
 13 14  1  0
 14 15  1  0
 14 16  1  0
 13 17  2  0
 17 18  1  0
 18 19  2  0
 19 20  1  0
 20 21  2  0
 21 22  1  0
 22 23  2  0
  9  4  1  0
 23 11  1  0
 23 18  1  0
M  CHG  2   2   1   3  -1
A    1
 O1 
A    2
 N1 
A    3
 O2 
A    4
 C1 
A    5
 N2 
A    6
 C2 
A    7
 C3 
A    8
 C4 
A    9
 C5 
A   10
 O3 
A   11
 C6 
A   12
 N3 
A   13
 C7 
A   14
 C8 
A   15
 F1 
A   16
 F2 
A   17
 N4 
A   18
 C9 
A   19
 C10
A   20
 C11
A   21
 C12
A   22
 C13
A   23
 C14
M  END
>  <ref_pdb>  (730) 
Ax0310a

>  <ref_mols>  (730) 
Ax0446a,Ax1080a,Ax0812a,Ax0719a,Ax1140a,Ax0528a,Ax0310a

>  <original SMILES>  (730) 
O=[N+]([O-])c1ncccc1Oc1nc(C(F)F)nc2ccccc12

>  <rationale>  (730) 
info info set:screening_whole;hbond:S87; hydroph_interaction:P107; 

>  <experiment>  (730) 
screening_whole

>  <cluster_label>  (730) 
3

>  <cluster_rank>  (730) 
387

>  <N_interactions>  (730) 
2

>  <∆∆G>  (730) 
-2.938622

>  <comRMSD>  (730) 
0.515004

>  <ROCS_TanimotoCombo>  (730) 
0.477

>  <ROCS_ShapeTanimoto>  (730) 
0.277

>  <ROCS_ColorTanimoto>  (730) 
0.2

$$$$
Z1192043634
     RDKit          3D

 17 18  0  0  0  0  0  0  0  0999 V2000
   31.4503   14.4544    9.4436 N   0  0  0  0  0  0  0  0  0  0  0  0
   30.3913   14.4181    8.9758 C   0  0  0  0  0  0  0  0  0  0  0  0
   29.6926   15.5232    8.9687 N   0  0  0  0  0  0  0  0  0  0  0  0
   28.4809   15.5485    8.4488 C   0  0  0  0  0  0  0  0  0  0  0  0
   27.8102   14.3043    7.8172 C   0  0  0  0  0  0  0  0  0  0  0  0
   28.5802   13.1805    7.8511 C   0  0  0  0  0  0  0  0  0  0  0  0
   29.8130   13.3285    8.4316 C   0  0  0  0  0  0  0  0  0  0  0  0
   30.2528   11.8822    8.2482 C   0  0  0  0  0  0  0  0  0  0  0  0
   29.7439   10.9850    8.8339 O   0  0  0  0  0  0  0  0  0  0  0  0
   31.3027   11.3920    7.4081 C   0  0  0  0  0  0  0  0  0  0  0  0
   31.3331    9.9353    7.5569 C   0  0  0  0  0  0  0  0  0  0  0  0
   32.2267    9.2252    6.8759 C   0  0  0  0  0  0  0  0  0  0  0  0
   32.1263    7.9793    7.1286 F   0  0  0  0  0  0  0  0  0  0  0  0
   33.2965    9.7507    5.8888 C   0  0  0  0  0  0  0  0  0  0  0  0
   33.1986   11.2830    5.7958 C   0  0  0  0  0  0  0  0  0  0  0  0
   34.0675   11.8807    4.9830 F   0  0  0  0  0  0  0  0  0  0  0  0
   32.2168   12.1848    6.5322 C   0  0  0  0  0  0  0  0  0  0  0  0
  1  2  1  0
  2  3  2  0
  3  4  1  0
  4  5  2  0
  5  6  1  0
  6  7  2  0
  7  8  1  0
  8  9  2  0
  8 10  1  0
 10 11  2  0
 11 12  1  0
 12 13  1  0
 12 14  2  0
 14 15  1  0
 15 16  1  0
 15 17  2  0
  7  2  1  0
 17 10  1  0
A    1
 N1 
A    2
 C1 
A    3
 N2 
A    4
 C2 
A    5
 C3 
A    6
 C4 
A    7
 C5 
A    8
 C6 
A    9
 O1 
A   10
 C7 
A   11
 C8 
A   12
 C9 
A   13
 F1 
A   14
 C10
A   15
 C11
A   16
 F2 
A   17
 C12
M  END
>  <ref_pdb>  (731) 
Ax0310a

>  <ref_mols>  (731) 
Ax0446a,Ax1080a,Ax0812a,Ax0719a,Ax1140a,Ax0528a,Ax0310a

>  <original SMILES>  (731) 
Nc1ncccc1C(=O)c1cc(F)cc(F)c1

>  <rationale>  (731) 
info info set:3d;halogenbond:S105; hbond:S87; 

>  <experiment>  (731) 
3d

>  <cluster_label>  (731) 
3

>  <cluster_rank>  (731) 
388

>  <N_interactions>  (731) 
2

>  <∆∆G>  (731) 
-2.017963

>  <comRMSD>  (731) 
0.756546

>  <ROCS_TanimotoCombo>  (731) 
0.347

>  <ROCS_ShapeTanimoto>  (731) 
0.217

>  <ROCS_ColorTanimoto>  (731) 
0.13

$$$$
EN300_291858
     RDKit          3D

 16 17  0  0  0  0  0  0  0  0999 V2000
   33.6614    8.8032    6.0184 C   0  0  0  0  0  0  0  0  0  0  0  0
   32.5632    8.3640    6.8011 O   0  0  0  0  0  0  0  0  0  0  0  0
   31.9697    9.4719    7.1955 C   0  0  0  0  0  0  0  0  0  0  0  0
   30.8705    9.5938    8.0106 C   0  0  0  0  0  0  0  0  0  0  0  0
   30.4256   10.8721    8.2830 C   0  0  0  0  0  0  0  0  0  0  0  0
   31.0744   11.9640    7.7584 C   0  0  0  0  0  0  0  0  0  0  0  0
   30.4825   13.5586    8.1028 S   0  0  0  0  0  6  0  0  0  0  0  0
   29.1319   13.4597    9.0604 N   0  0  0  0  0  0  0  0  0  0  0  0
   31.4660   14.2998    8.8736 O   0  0  0  0  0  0  0  0  0  0  0  0
   29.8388   13.9770    6.8873 O   0  0  0  0  0  0  0  0  0  0  0  0
   32.1917   11.8467    6.9444 C   0  0  0  0  0  0  0  0  0  0  0  0
   32.7813   12.9651    6.4769 N   0  0  0  0  0  0  0  0  0  0  0  0
   33.8739   12.8295    5.6789 C   0  0  0  0  0  0  0  0  0  0  0  0
   34.4003   11.6118    5.3207 C   0  0  0  0  0  0  0  0  0  0  0  0
   33.7711   10.4798    5.8155 C   0  0  0  0  0  0  0  0  0  0  0  0
   32.6392   10.5824    6.6558 C   0  0  0  0  0  0  0  0  0  0  0  0
  1  2  1  0
  2  3  1  0
  3  4  2  0
  4  5  1  0
  5  6  2  0
  6  7  1  0
  7  8  1  0
  7  9  2  0
  7 10  2  0
  6 11  1  0
 11 12  2  0
 12 13  1  0
 13 14  2  0
 14 15  1  0
 15 16  2  0
 16  3  1  0
 16 11  1  0
A    1
 C1 
A    2
 O1 
A    3
 C2 
A    4
 C3 
A    5
 C4 
A    6
 C5 
A    7
 S1 
A    8
 N1 
A    9
 O2 
A   10
 O3 
A   11
 C6 
A   12
 N2 
A   13
 C7 
A   14
 C8 
A   15
 C9 
A   16
 C10
M  END
>  <ref_pdb>  (732) 
Ax0310a

>  <ref_mols>  (732) 
Ax0446a,Ax1080a,Ax0812a,Ax0719a,Ax1140a,Ax0528a,Ax0310a

>  <original SMILES>  (732) 
COc1ccc(S(N)(=O)=O)c2ncccc12

>  <rationale>  (732) 
info info set:sulfonimide_whole;hbond:S87+S125; 

>  <experiment>  (732) 
sulfonimide_whole

>  <cluster_label>  (732) 
3

>  <cluster_rank>  (732) 
389

>  <N_interactions>  (732) 
2

>  <∆∆G>  (732) 
-3.57713

>  <comRMSD>  (732) 
0.874578

>  <ROCS_TanimotoCombo>  (732) 
0.364

>  <ROCS_ShapeTanimoto>  (732) 
0.213

>  <ROCS_ColorTanimoto>  (732) 
0.151

$$$$
Z31721208
     RDKit          3D

 18 19  0  0  0  0  0  0  0  0999 V2000
   29.8873   10.6943    8.9790 O   0  0  0  0  0  0  0  0  0  0  0  0
   30.3388   11.7661    8.1820 C   0  0  0  0  0  0  0  0  0  0  0  0
   31.3645   11.1576    7.3530 C   0  0  0  0  0  0  0  0  0  0  0  0
   31.3272    9.6915    7.6120 C   0  0  0  0  0  0  0  0  0  0  0  0
   32.3130    8.8962    6.8373 C   0  0  0  0  0  0  0  0  0  0  0  0
   33.3908    9.3889    5.7781 C   0  0  0  0  0  0  0  0  0  0  0  0
   33.2083   10.9324    5.7108 C   0  0  0  0  0  0  0  0  0  0  0  0
   34.1221   11.6879    4.7597 C   0  0  0  0  0  0  0  0  0  0  0  0
   34.8967   10.8381    4.0416 F   0  0  0  0  0  0  0  0  0  0  0  0
   34.9294   12.5567    5.4105 F   0  0  0  0  0  0  0  0  0  0  0  0
   33.4131   12.4244    3.8631 F   0  0  0  0  0  0  0  0  0  0  0  0
   32.1896   11.7896    6.5092 C   0  0  0  0  0  0  0  0  0  0  0  0
   30.0341   13.0747    7.9709 N   0  0  0  0  0  0  0  0  0  0  0  0
   29.3453   13.3519    6.7446 C   0  0  0  0  0  0  0  0  0  0  0  0
   28.5425   14.6510    6.7559 C   0  0  0  0  0  0  0  0  0  0  0  0
   28.6022   15.4260    7.7038 O   0  0  0  0  0  0  0  0  0  0  0  0
   28.5238   14.7846    8.7415 C   0  0  0  0  0  0  0  0  0  0  0  0
   29.8683   14.1214    8.9776 C   0  0  0  0  0  0  0  0  0  0  0  0
  1  2  2  0
  2  3  1  0
  3  4  2  0
  4  5  1  0
  5  6  2  0
  6  7  1  0
  7  8  1  0
  8  9  1  0
  8 10  1  0
  8 11  1  0
  7 12  2  0
  2 13  1  0
 13 14  1  0
 14 15  1  0
 15 16  1  0
 16 17  1  0
 17 18  1  0
 12  3  1  0
 18 13  1  0
A    1
 O1 
A    2
 C1 
A    3
 C2 
A    4
 C3 
A    5
 C4 
A    6
 C5 
A    7
 C6 
A    8
 C7 
A    9
 F1 
A   10
 F2 
A   11
 F3 
A   12
 C8 
A   13
 N1 
A   14
 C9 
A   15
 C10
A   16
 O2 
A   17
 C11
A   18
 C12
M  END
>  <ref_pdb>  (733) 
Ax0310a

>  <ref_mols>  (733) 
Ax0446a,Ax1080a,Ax0812a,Ax0719a,Ax1140a,Ax0528a,Ax0310a

>  <original SMILES>  (733) 
O=C(c1cccc(C(F)(F)F)c1)N1CCOCC1

>  <rationale>  (733) 
info info set:3d;hbond:S87; 

>  <experiment>  (733) 
3d

>  <cluster_label>  (733) 
3

>  <cluster_rank>  (733) 
390

>  <N_interactions>  (733) 
1

>  <∆∆G>  (733) 
-5.012368

>  <comRMSD>  (733) 
0.598443

>  <ROCS_TanimotoCombo>  (733) 
0.323

>  <ROCS_ShapeTanimoto>  (733) 
0.22

>  <ROCS_ColorTanimoto>  (733) 
0.103

$$$$
Z4007275868
     RDKit          3D

 23 25  0  0  0  0  0  0  0  0999 V2000
   26.4094   14.2867    6.1173 C   0  0  0  0  0  0  0  0  0  0  0  0
   27.2161   14.1155    7.3130 N   0  0  0  0  0  0  0  0  0  0  0  0
   27.3198   12.7582    7.5917 C   0  0  0  0  0  0  0  0  0  0  0  0
   28.2313   12.2058    6.8297 C   0  0  0  0  0  0  0  0  0  0  0  0
   29.2162   13.0619    6.1490 C   0  0  0  0  0  0  0  0  0  0  0  0
   30.2090   13.2673    7.1219 N   0  0  0  0  0  0  0  0  0  0  0  0
   30.7782   12.1542    7.6806 C   0  0  0  0  0  0  0  0  0  0  0  0
   30.4955   11.9042    8.7931 O   0  0  0  0  0  0  0  0  0  0  0  0
   31.6812   11.1493    6.9964 C   0  0  0  0  0  0  0  0  0  0  0  0
   32.7160   11.2821    5.9400 C   0  0  0  0  0  0  0  0  0  0  0  0
   33.2194    9.9656    5.7542 C   0  0  0  0  0  0  0  0  0  0  0  0
   34.3244    9.5509    4.8000 C   0  0  0  0  0  0  0  0  0  0  0  0
   35.1679   10.5953    4.5731 F   0  0  0  0  0  0  0  0  0  0  0  0
   33.9370    9.1361    3.5800 F   0  0  0  0  0  0  0  0  0  0  0  0
   35.0940    8.5543    5.2675 F   0  0  0  0  0  0  0  0  0  0  0  0
   32.5583    9.1074    6.5927 N   0  0  0  0  0  0  0  0  0  0  0  0
   31.6756    9.8726    7.3016 N   0  0  0  0  0  0  0  0  0  0  0  0
   30.7826    9.3955    8.3598 C   0  0  0  0  0  0  0  0  0  0  0  0
   29.5713    8.5222    8.3989 C   0  0  0  0  0  0  0  0  0  0  0  0
   30.8966    7.9541    8.4981 C   0  0  0  0  0  0  0  0  0  0  0  0
   29.5786   14.0833    8.1610 C   0  0  0  0  0  0  0  0  0  0  0  0
   28.3521   14.8661    7.6368 C   0  0  0  0  0  0  0  0  0  0  0  0
   28.4188   16.0759    7.5524 O   0  0  0  0  0  0  0  0  0  0  0  0
  1  2  1  0
  2  3  1  0
  3  4  1  0
  4  5  1  0
  5  6  1  0
  6  7  1  0
  7  8  2  0
  7  9  1  0
  9 10  2  0
 10 11  1  0
 11 12  1  0
 12 13  1  0
 12 14  1  0
 12 15  1  0
 11 16  2  0
 16 17  1  0
 17 18  1  0
 18 19  1  0
 19 20  1  0
  6 21  1  0
 21 22  1  0
 22 23  2  0
 22  2  1  0
 17  9  1  0
 20 18  1  0
A    1
 C1 
A    2
 N1 
A    3
 C2 
A    4
 C3 
A    5
 C4 
A    6
 N2 
A    7
 C5 
A    8
 O1 
A    9
 C6 
A   10
 C7 
A   11
 C8 
A   12
 C9 
A   13
 F1 
A   14
 F2 
A   15
 F3 
A   16
 N3 
A   17
 N4 
A   18
 C10
A   19
 C11
A   20
 C12
A   21
 C13
A   22
 C14
A   23
 O2 
M  END
>  <ref_pdb>  (734) 
Ax0310a

>  <ref_mols>  (734) 
Ax0446a,Ax1080a,Ax0812a,Ax0719a,Ax1140a,Ax0528a,Ax0310a

>  <original SMILES>  (734) 
CN1CCCN(C(=O)c2cc(C(F)(F)F)nn2C2CC2)CC1=O

>  <rationale>  (734) 
info info set:screening_pocket;hbond:G127+Y90; hydroph_interaction:P107+V124; 

>  <experiment>  (734) 
screening_pocket

>  <cluster_label>  (734) 
3

>  <cluster_rank>  (734) 
391

>  <N_interactions>  (734) 
5

>  <∆∆G>  (734) 
-0.021059

>  <comRMSD>  (734) 
0.762472

>  <ROCS_TanimotoCombo>  (734) 
0.643

>  <ROCS_ShapeTanimoto>  (734) 
0.288

>  <ROCS_ColorTanimoto>  (734) 
0.354

$$$$
Z991899372
     RDKit          3D

 25 27  0  0  0  0  0  0  0  0999 V2000
   31.0574   15.9648   10.7281 C   0  0  0  0  0  0  0  0  0  0  0  0
   31.0389   15.6143    9.3642 O   0  0  0  0  0  0  0  0  0  0  0  0
   29.9538   14.9596    8.8582 C   0  0  0  0  0  0  0  0  0  0  0  0
   28.6193   15.6777    8.6072 C   0  0  0  0  0  0  0  0  0  0  0  0
   27.4467   14.9265    8.0818 C   0  0  0  0  0  0  0  0  0  0  0  0
   27.6580   13.5208    7.7621 C   0  0  0  0  0  0  0  0  0  0  0  0
   29.0132   12.9876    8.0184 C   0  0  0  0  0  0  0  0  0  0  0  0
   28.9412   11.6517    7.5498 C   0  0  0  0  0  0  0  0  0  0  0  0
   29.9279   10.8238    8.1115 N   0  0  0  0  0  0  0  0  0  0  0  0
   29.7141    9.4873    8.3958 C   0  0  0  0  0  0  0  0  0  0  0  0
   31.0755   10.8308    7.3748 C   0  0  0  0  0  0  0  0  0  0  0  0
   31.4733   11.6202    6.4074 N   0  0  0  0  0  0  0  0  0  0  0  0
   32.6320   11.1408    5.8805 C   0  0  0  0  0  0  0  0  0  0  0  0
   33.1631    9.7893    6.1744 C   0  0  0  0  0  0  0  0  0  0  0  0
   34.3988    9.7087    5.3822 C   0  0  0  0  0  0  0  0  0  0  0  0
   34.6382   10.8150    4.6946 N   0  0  0  0  0  0  0  0  0  0  0  0
   33.5701   11.6562    4.9939 N   0  0  0  0  0  0  0  0  0  0  0  0
   33.5360   12.9521    4.3590 C   0  0  0  0  0  0  0  0  0  0  0  0
   34.9745   13.4182    3.9984 C   0  0  0  0  0  0  0  0  0  0  0  0
   32.8940   13.9411    5.2958 C   0  0  0  0  0  0  0  0  0  0  0  0
   32.6895   12.9294    3.0671 C   0  0  0  0  0  0  0  0  0  0  0  0
   32.4086    9.0344    7.0491 C   0  0  0  0  0  0  0  0  0  0  0  0
   32.3593    7.8958    7.1877 O   0  0  0  0  0  0  0  0  0  0  0  0
   31.7258    9.7976    7.8155 N   0  0  0  0  0  0  0  0  0  0  0  0
   30.0962   13.6429    8.5529 C   0  0  0  0  0  0  0  0  0  0  0  0
  1  2  1  0
  2  3  1  0
  3  4  2  0
  4  5  1  0
  5  6  2  0
  6  7  1  0
  7  8  1  0
  8  9  1  0
  9 10  1  0
  9 11  1  0
 11 12  2  0
 12 13  1  0
 13 14  2  0
 14 15  1  0
 15 16  2  0
 16 17  1  0
 17 18  1  0
 18 19  1  0
 18 20  1  0
 18 21  1  0
 14 22  1  0
 22 23  2  0
 22 24  1  0
  7 25  2  0
 25  3  1  0
 24 11  1  0
 17 13  1  0
A    1
 C1 
A    2
 O1 
A    3
 C2 
A    4
 C3 
A    5
 C4 
A    6
 C5 
A    7
 C6 
A    8
 C7 
A    9
 N1 
A   10
 C8 
A   11
 C9 
A   12
 N2 
A   13
 C10
A   14
 C11
A   15
 C12
A   16
 N3 
A   17
 N4 
A   18
 C13
A   19
 C14
A   20
 C15
A   21
 C16
A   22
 C17
A   23
 O2 
A   24
 N5 
A   25
 C18
M  END
>  <ref_pdb>  (735) 
Ax0310a

>  <ref_mols>  (735) 
Ax0446a,Ax1080a,Ax0812a,Ax0719a,Ax1140a,Ax0528a,Ax0310a

>  <original SMILES>  (735) 
COc1cccc(CN(C)c2nc3c(cnn3C(C)(C)C)c(=O)[nH]2)c1

>  <rationale>  (735) 
info info set:screening_whole;hbond:S87+T126; hydroph_interaction:P107+Y89+Y90; 

>  <experiment>  (735) 
screening_whole

>  <cluster_label>  (735) 
3

>  <cluster_rank>  (735) 
392

>  <N_interactions>  (735) 
5

>  <∆∆G>  (735) 
-2.463549

>  <comRMSD>  (735) 
0.988538

>  <ROCS_TanimotoCombo>  (735) 
0.464

>  <ROCS_ShapeTanimoto>  (735) 
0.251

>  <ROCS_ColorTanimoto>  (735) 
0.212

$$$$
Z102264744
     RDKit          3D

 17 18  0  0  0  0  0  0  0  0999 V2000
   29.6757    8.1473    8.4874 C   0  0  0  0  0  0  0  0  0  0  0  0
   31.0573    8.5927    8.6275 C   0  0  0  0  0  0  0  0  0  0  0  0
   31.7097    9.2723    7.4909 C   0  0  0  0  0  0  0  0  0  0  0  0
   32.6037    8.6274    6.7583 N   0  0  0  0  0  0  0  0  0  0  0  0
   33.0671    9.5193    5.8264 O   0  0  0  0  0  0  0  0  0  0  0  0
   32.4427   10.6980    6.0052 C   0  0  0  0  0  0  0  0  0  0  0  0
   32.8324   11.7972    5.1124 C   0  0  0  0  0  0  0  0  0  0  0  0
   31.5564   10.5764    7.0312 C   0  0  0  0  0  0  0  0  0  0  0  0
   30.6545   11.4930    7.6043 C   0  0  0  0  0  0  0  0  0  0  0  0
   30.4846   11.4315    8.7679 O   0  0  0  0  0  0  0  0  0  0  0  0
   30.0104   12.3687    6.7840 N   0  0  0  0  0  0  0  0  0  0  0  0
   29.2596   13.3722    7.3810 C   0  0  0  0  0  0  0  0  0  0  0  0
   28.7298   13.1031    8.6249 C   0  0  0  0  0  0  0  0  0  0  0  0
   27.9924   14.0393    9.3228 C   0  0  0  0  0  0  0  0  0  0  0  0
   27.8178   15.2422    8.7181 C   0  0  0  0  0  0  0  0  0  0  0  0
   28.3247   15.5172    7.5099 N   0  0  0  0  0  0  0  0  0  0  0  0
   29.0113   14.5897    6.8625 C   0  0  0  0  0  0  0  0  0  0  0  0
  1  2  1  0
  2  3  1  0
  3  4  2  0
  4  5  1  0
  5  6  1  0
  6  7  1  0
  6  8  2  0
  8  9  1  0
  9 10  2  0
  9 11  1  0
 11 12  1  0
 12 13  2  0
 13 14  1  0
 14 15  2  0
 15 16  1  0
 16 17  2  0
  8  3  1  0
 17 12  1  0
A    1
 C1 
A    2
 C2 
A    3
 C3 
A    4
 N1 
A    5
 O1 
A    6
 C4 
A    7
 C5 
A    8
 C6 
A    9
 C7 
A   10
 O2 
A   11
 N2 
A   12
 C8 
A   13
 C9 
A   14
 C10
A   15
 C11
A   16
 N3 
A   17
 C12
M  END
>  <ref_pdb>  (736) 
Ax0310a

>  <ref_mols>  (736) 
Ax0446a,Ax1080a,Ax0812a,Ax0719a,Ax1140a,Ax0528a,Ax0310a

>  <original SMILES>  (736) 
CCc1noc(C)c1C(=O)Nc1cccnc1

>  <rationale>  (736) 
info info set:screening_pocket;hbond:S87; hydroph_interaction:P107+V124; 

>  <experiment>  (736) 
screening_pocket

>  <cluster_label>  (736) 
3

>  <cluster_rank>  (736) 
393

>  <N_interactions>  (736) 
3

>  <∆∆G>  (736) 
-3.849964

>  <comRMSD>  (736) 
0.467707

>  <ROCS_TanimotoCombo>  (736) 
0.662

>  <ROCS_ShapeTanimoto>  (736) 
0.236

>  <ROCS_ColorTanimoto>  (736) 
0.426

$$$$
Z1098326229
     RDKit          3D

 17 18  0  0  0  0  0  0  0  0999 V2000
   33.9792    8.8712    5.0343 C   0  0  0  0  0  0  0  0  0  0  0  0
   32.9776    8.5457    6.0551 N   0  0  0  0  0  0  0  0  0  0  0  0
   32.4664    9.6171    6.6733 C   0  0  0  0  0  0  0  0  0  0  0  0
   33.0303   10.8073    6.2907 C   0  0  0  0  0  0  0  0  0  0  0  0
   32.7120   12.0048    6.8129 C   0  0  0  0  0  0  0  0  0  0  0  0
   31.7789   12.1627    7.7841 C   0  0  0  0  0  0  0  0  0  0  0  0
   31.4480   13.3232    8.3911 C   0  0  0  0  0  0  0  0  0  0  0  0
   32.3219   13.8221    9.0970 O   0  0  0  0  0  0  0  0  0  0  0  0
   30.2179   13.8617    8.2259 N   0  0  0  0  0  0  0  0  0  0  0  0
   29.7436   14.9450    9.0771 C   0  0  0  0  0  0  0  0  0  0  0  0
   28.7241   15.7380    8.3217 C   0  0  0  0  0  0  0  0  0  0  0  0
   28.3171   15.1400    7.1153 O   0  0  0  0  0  0  0  0  0  0  0  0
   27.9629   13.7918    7.3557 C   0  0  0  0  0  0  0  0  0  0  0  0
   29.1684   12.9738    7.7544 C   0  0  0  0  0  0  0  0  0  0  0  0
   31.0630   10.8976    8.2403 C   0  0  0  0  0  0  0  0  0  0  0  0
   31.4607    9.5935    7.6470 C   0  0  0  0  0  0  0  0  0  0  0  0
   30.7478    8.3884    8.1851 C   0  0  0  0  0  0  0  0  0  0  0  0
  1  2  1  0
  2  3  1  0
  3  4  2  0
  4  5  1  0
  5  6  2  0
  6  7  1  0
  7  8  2  0
  7  9  1  0
  9 10  1  0
 10 11  1  0
 11 12  1  0
 12 13  1  0
 13 14  1  0
  6 15  1  0
 15 16  2  0
 16 17  1  0
 16  3  1  0
 14  9  1  0
A    1
 C1 
A    2
 N1 
A    3
 C2 
A    4
 C3 
A    5
 C4 
A    6
 C5 
A    7
 C6 
A    8
 O1 
A    9
 N2 
A   10
 C7 
A   11
 C8 
A   12
 O2 
A   13
 C9 
A   14
 C10
A   15
 C11
A   16
 C12
A   17
 C13
M  END
>  <ref_pdb>  (737) 
Ax0310a

>  <ref_mols>  (737) 
Ax0446a,Ax1080a,Ax0812a,Ax0719a,Ax1140a,Ax0528a,Ax0310a

>  <original SMILES>  (737) 
CNc1ccc(C(=O)N2CCOCC2)cc1C

>  <rationale>  (737) 
info info set:3d;hbond:S87+S105+G127; hydroph_interaction:V124; 

>  <experiment>  (737) 
3d

>  <cluster_label>  (737) 
3

>  <cluster_rank>  (737) 
394

>  <N_interactions>  (737) 
4

>  <∆∆G>  (737) 
-7.424521

>  <comRMSD>  (737) 
0.957875

>  <ROCS_TanimotoCombo>  (737) 
0.306

>  <ROCS_ShapeTanimoto>  (737) 
0.203

>  <ROCS_ColorTanimoto>  (737) 
0.103

$$$$
Z45692835
     RDKit          3D

 17 18  0  0  0  0  0  0  0  0999 V2000
   34.8208   14.7038    7.4897 C   0  0  0  0  0  0  0  0  0  0  0  0
   33.4230   13.7709    8.1029 S   0  0  0  0  0  6  0  0  0  0  0  0
   32.4995   14.5475    8.9035 O   0  0  0  0  0  0  0  0  0  0  0  0
   34.0339   12.6826    8.7594 O   0  0  0  0  0  0  0  0  0  0  0  0
   32.7697   13.2084    6.6329 N   0  0  0  0  0  0  0  0  0  0  0  0
   32.2959   11.8994    6.8275 C   0  0  0  0  0  0  0  0  0  0  0  0
   33.0947   10.6621    6.4973 C   0  0  0  0  0  0  0  0  0  0  0  0
   32.5759    9.4129    6.7751 C   0  0  0  0  0  0  0  0  0  0  0  0
   31.3397    9.2716    7.3776 C   0  0  0  0  0  0  0  0  0  0  0  0
   30.5534   10.5494    7.6773 C   0  0  0  0  0  0  0  0  0  0  0  0
   31.0347   11.8102    7.3689 C   0  0  0  0  0  0  0  0  0  0  0  0
   30.2591   13.0188    7.5833 N   0  0  0  0  0  0  0  0  0  0  0  0
   29.2832   13.2319    6.6727 C   0  0  0  0  0  0  0  0  0  0  0  0
   27.9886   13.4137    7.2323 C   0  0  0  0  0  0  0  0  0  0  0  0
   27.9657   14.5638    8.2057 C   0  0  0  0  0  0  0  0  0  0  0  0
   29.0109   14.3363    9.2636 C   0  0  0  0  0  0  0  0  0  0  0  0
   29.7998   13.1002    8.9169 C   0  0  0  0  0  0  0  0  0  0  0  0
  1  2  1  0
  2  3  2  0
  2  4  2  0
  2  5  1  0
  5  6  1  0
  6  7  2  0
  7  8  1  0
  8  9  2  0
  9 10  1  0
 10 11  2  0
 11 12  1  0
 12 13  1  0
 13 14  1  0
 14 15  1  0
 15 16  1  0
 16 17  1  0
 11  6  1  0
 17 12  1  0
A    1
 C1 
A    2
 S1 
A    3
 O1 
A    4
 O2 
A    5
 N1 
A    6
 C2 
A    7
 C3 
A    8
 C4 
A    9
 C5 
A   10
 C6 
A   11
 C7 
A   12
 N2 
A   13
 C8 
A   14
 C9 
A   15
 C10
A   16
 C11
A   17
 C12
M  END
>  <ref_pdb>  (738) 
Ax0310a

>  <ref_mols>  (738) 
Ax0446a,Ax1080a,Ax0812a,Ax0719a,Ax1140a,Ax0528a,Ax0310a

>  <original SMILES>  (738) 
CS(=O)(=O)Nc1ccccc1N1CCCCC1

>  <rationale>  (738) 
info info set:3d;hbond:S87+G127; 

>  <experiment>  (738) 
3d

>  <cluster_label>  (738) 
3

>  <cluster_rank>  (738) 
395

>  <N_interactions>  (738) 
2

>  <∆∆G>  (738) 
-4.92179

>  <comRMSD>  (738) 
0.80373

>  <ROCS_TanimotoCombo>  (738) 
0.334

>  <ROCS_ShapeTanimoto>  (738) 
0.217

>  <ROCS_ColorTanimoto>  (738) 
0.118

$$$$
Z45931442
     RDKit          3D

 29 32  0  0  0  0  0  0  0  0999 V2000
   31.5499   15.3052    9.9035 C   0  0  0  0  0  0  0  0  0  0  0  0
   30.3866   15.8648    9.2834 O   0  0  0  0  0  0  0  0  0  0  0  0
   29.5446   15.0815    8.5161 C   0  0  0  0  0  0  0  0  0  0  0  0
   28.8174   15.4815    7.2332 C   0  0  0  0  0  0  0  0  0  0  0  0
   27.9292   14.4456    6.5159 C   0  0  0  0  0  0  0  0  0  0  0  0
   27.8423   13.1557    7.2053 C   0  0  0  0  0  0  0  0  0  0  0  0
   28.5750   12.9054    8.4577 C   0  0  0  0  0  0  0  0  0  0  0  0
   28.1630   11.5481    8.8846 C   0  0  0  0  0  0  0  0  0  0  0  0
   29.1800   10.6982    8.4955 C   0  0  0  0  0  0  0  0  0  0  0  0
   29.0887    9.3741    8.7982 C   0  0  0  0  0  0  0  0  0  0  0  0
   30.2555    8.7482    8.5957 C   0  0  0  0  0  0  0  0  0  0  0  0
   30.9523    9.6497    7.7138 N   0  0  0  0  0  0  0  0  0  0  0  0
   30.5127   10.9539    7.7457 C   0  0  0  0  0  0  0  0  0  0  0  0
   31.1600   11.9482    7.2331 N   0  0  0  0  0  0  0  0  0  0  0  0
   32.3213   11.6456    6.6052 C   0  0  0  0  0  0  0  0  0  0  0  0
   33.1945   12.7677    6.0164 C   0  0  0  0  0  0  0  0  0  0  0  0
   34.3885   12.3174    5.3694 C   0  0  0  0  0  0  0  0  0  0  0  0
   35.2447   13.4695    4.8217 C   0  0  0  0  0  0  0  0  0  0  0  0
   34.6731   14.0952    3.7607 F   0  0  0  0  0  0  0  0  0  0  0  0
   36.4754   13.0508    4.4038 F   0  0  0  0  0  0  0  0  0  0  0  0
   35.4979   14.4209    5.7585 F   0  0  0  0  0  0  0  0  0  0  0  0
   34.7540   10.9812    5.2443 C   0  0  0  0  0  0  0  0  0  0  0  0
   33.9481   10.0009    5.7885 C   0  0  0  0  0  0  0  0  0  0  0  0
   32.7876   10.3285    6.4554 C   0  0  0  0  0  0  0  0  0  0  0  0
   32.0186    9.2635    7.0477 C   0  0  0  0  0  0  0  0  0  0  0  0
   32.3640    8.1264    7.0078 O   0  0  0  0  0  0  0  0  0  0  0  0
   29.4150   13.8745    9.0488 C   0  0  0  0  0  0  0  0  0  0  0  0
   30.1396   13.7535   10.1738 O   0  0  0  0  0  0  0  0  0  0  0  0
   29.5210   14.4533   11.2571 C   0  0  0  0  0  0  0  0  0  0  0  0
  1  2  1  0
  2  3  1  0
  3  4  2  0
  4  5  1  0
  5  6  2  0
  6  7  1  0
  7  8  1  0
  8  9  2  3
  9 10  1  0
 10 11  1  0
 11 12  1  0
 12 13  1  0
 13 14  2  0
 14 15  1  0
 15 16  2  0
 16 17  1  0
 17 18  1  0
 18 19  1  0
 18 20  1  0
 18 21  1  0
 17 22  2  0
 22 23  1  0
 23 24  2  0
 24 25  1  0
 25 26  2  0
  7 27  2  0
 27 28  1  0
 28 29  1  0
 27  3  1  0
 13  9  1  0
 24 15  1  0
 25 12  1  0
A    1
 C1 
A    2
 O1 
A    3
 C2 
A    4
 C3 
A    5
 C4 
A    6
 C5 
A    7
 C6 
A    8
 C7 
A    9
 C8 
A   10
 C9 
A   11
 C10
A   12
 N1 
A   13
 C11
A   14
 N2 
A   15
 C12
A   16
 C13
A   17
 C14
A   18
 C15
A   19
 F1 
A   20
 F2 
A   21
 F3 
A   22
 C16
A   23
 C17
A   24
 C18
A   25
 C19
A   26
 O2 
A   27
 C20
A   28
 O3 
A   29
 C21
M  END
>  <ref_pdb>  (739) 
Ax0310a

>  <ref_mols>  (739) 
Ax0446a,Ax1080a,Ax0812a,Ax0719a,Ax1140a,Ax0528a,Ax0310a

>  <original SMILES>  (739) 
COc1cccc(C=C2CCn3c2nc2cc(C(F)(F)F)ccc2c3=O)c1OC

>  <rationale>  (739) 
info info set:screening_whole;hbond:S87+G127; hydroph_interaction:Y89+V124; 

>  <experiment>  (739) 
screening_whole

>  <cluster_label>  (739) 
3

>  <cluster_rank>  (739) 
396

>  <N_interactions>  (739) 
5

>  <∆∆G>  (739) 
-3.542239

>  <comRMSD>  (739) 
0.802213

>  <ROCS_TanimotoCombo>  (739) 
0.462

>  <ROCS_ShapeTanimoto>  (739) 
0.289

>  <ROCS_ColorTanimoto>  (739) 
0.173

$$$$
EN300_15844
     RDKit          3D

 15 16  0  0  0  0  0  0  0  0999 V2000
   36.2553   13.8596    7.9943 C   0  0  0  0  0  0  0  0  0  0  0  0
   36.1488   14.0088    6.5519 N   0  0  0  0  0  0  0  0  0  0  0  0
   34.6657   14.5054    6.0598 S   0  0  0  0  0  6  0  0  0  0  0  0
   34.6934   14.9098    4.6745 O   0  0  0  0  0  0  0  0  0  0  0  0
   34.4197   15.3606    7.2136 O   0  0  0  0  0  0  0  0  0  0  0  0
   33.8724   12.9616    6.2409 C   0  0  0  0  0  0  0  0  0  0  0  0
   34.4950   11.8315    5.4125 C   0  0  0  0  0  0  0  0  0  0  0  0
   33.8906   10.4464    5.5646 C   0  0  0  0  0  0  0  0  0  0  0  0
   32.7366   10.4467    6.5547 C   0  0  0  0  0  0  0  0  0  0  0  0
   32.1415    9.1045    6.7757 C   0  0  0  0  0  0  0  0  0  0  0  0
   30.9939    8.9171    7.7303 C   0  0  0  0  0  0  0  0  0  0  0  0
   30.5822   10.0812    8.3248 C   0  0  0  0  0  0  0  0  0  0  0  0
   31.1427   11.3262    8.1057 C   0  0  0  0  0  0  0  0  0  0  0  0
   32.2252   11.5447    7.2452 C   0  0  0  0  0  0  0  0  0  0  0  0
   32.7806   12.7886    7.0926 C   0  0  0  0  0  0  0  0  0  0  0  0
  1  2  1  0
  2  3  1  0
  3  4  2  0
  3  5  2  0
  3  6  1  0
  6  7  2  0
  7  8  1  0
  8  9  2  0
  9 10  1  0
 10 11  2  0
 11 12  1  0
 12 13  2  0
 13 14  1  0
 14 15  2  0
 15  6  1  0
 14  9  1  0
A    1
 C1 
A    2
 N1 
A    3
 S1 
A    4
 O1 
A    5
 O2 
A    6
 C2 
A    7
 C3 
A    8
 C4 
A    9
 C5 
A   10
 C6 
A   11
 C7 
A   12
 C8 
A   13
 C9 
A   14
 C10
A   15
 C11
M  END
>  <ref_pdb>  (740) 
Ax0310a

>  <ref_mols>  (740) 
Ax0446a,Ax1080a,Ax0812a,Ax0719a,Ax1140a,Ax0528a,Ax0310a

>  <original SMILES>  (740) 
CNS(=O)(=O)c1ccc2ccccc2c1

>  <rationale>  (740) 
info info set:sulfonimide_joint;hbond:G127+E85; 

>  <experiment>  (740) 
sulfonimide_joint

>  <cluster_label>  (740) 
3

>  <cluster_rank>  (740) 
397

>  <N_interactions>  (740) 
2

>  <∆∆G>  (740) 
-5.854359

>  <comRMSD>  (740) 
0.745602

>  <ROCS_TanimotoCombo>  (740) 
0.323

>  <ROCS_ShapeTanimoto>  (740) 
0.196

>  <ROCS_ColorTanimoto>  (740) 
0.127

$$$$
EN300_27782616
     RDKit          3D

 16 17  0  0  0  0  0  0  0  0999 V2000
   29.9242    8.1367   10.4268 C   0  0  0  0  0  0  0  0  0  0  0  0
   30.2852    8.4078    9.0682 C   0  0  0  0  0  0  0  0  0  0  0  0
   29.6498    9.4149    8.2647 C   0  0  0  0  0  0  0  0  0  0  0  0
   29.7619    7.1832    8.6308 C   0  0  0  0  0  0  0  0  0  0  0  0
   31.5622    8.7258    8.7385 O   0  0  0  0  0  0  0  0  0  0  0  0
   31.4336    9.9550    8.1467 C   0  0  0  0  0  0  0  0  0  0  0  0
   30.6728   10.8334    8.5361 O   0  0  0  0  0  0  0  0  0  0  0  0
   32.2729   10.2442    7.0513 C   0  0  0  0  0  0  0  0  0  0  0  0
   32.4812   11.6796    6.7863 C   0  0  0  0  0  0  0  0  0  0  0  0
   33.3743   11.9869    5.6636 C   0  0  0  0  0  0  0  0  0  0  0  0
   33.9319   10.8625    4.9607 C   0  0  0  0  0  0  0  0  0  0  0  0
   33.6008    9.5838    5.3668 C   0  0  0  0  0  0  0  0  0  0  0  0
   32.8080    9.2757    6.3699 N   0  0  0  0  0  0  0  0  0  0  0  0
   34.2099    8.6075    4.5663 N   0  0  0  0  0  0  0  0  0  0  0  0
   35.1499    9.2876    3.7033 C   0  0  0  0  0  0  0  0  0  0  0  0
   34.8588   10.8006    3.8025 C   0  0  0  0  0  0  0  0  0  0  0  0
  1  2  1  0
  2  3  1  0
  2  4  1  0
  2  5  1  0
  5  6  1  0
  6  7  2  0
  6  8  1  0
  8  9  2  0
  9 10  1  0
 10 11  2  0
 11 12  1  0
 12 13  2  0
 12 14  1  0
 14 15  1  0
 15 16  1  0
 13  8  1  0
 16 11  1  0
A    1
 C1 
A    2
 C2 
A    3
 C3 
A    4
 C4 
A    5
 O1 
A    6
 C5 
A    7
 O2 
A    8
 C6 
A    9
 C7 
A   10
 C8 
A   11
 C9 
A   12
 C10
A   13
 N1 
A   14
 N2 
A   15
 C11
A   16
 C12
M  END
>  <ref_pdb>  (741) 
Ax0310a

>  <ref_mols>  (741) 
Ax0446a,Ax1080a,Ax0812a,Ax0719a,Ax1140a,Ax0528a,Ax0310a

>  <original SMILES>  (741) 
CC(C)(C)OC(=O)c1ccc2c(n1)NCC2

>  <rationale>  (741) 
info info set:bb_densepocket2;hbond:S105; hydroph_interaction:V124+D109; 

>  <experiment>  (741) 
bb_densepocket2

>  <cluster_label>  (741) 
3

>  <cluster_rank>  (741) 
398

>  <N_interactions>  (741) 
4

>  <∆∆G>  (741) 
-0.511695

>  <comRMSD>  (741) 
0.679967

>  <ROCS_TanimotoCombo>  (741) 
0.618

>  <ROCS_ShapeTanimoto>  (741) 
0.242

>  <ROCS_ColorTanimoto>  (741) 
0.376

$$$$
EN300_76292
     RDKit          3D

 16 17  0  0  0  0  0  0  0  0999 V2000
   28.9644   13.1307    8.8762 N   0  0  0  0  0  0  0  0  0  0  0  0
   30.3964   13.3597    8.0456 S   0  0  0  0  0  6  0  0  0  0  0  0
   29.9254   13.7902    6.7575 O   0  0  0  0  0  0  0  0  0  0  0  0
   31.3241   14.1088    8.8619 O   0  0  0  0  0  0  0  0  0  0  0  0
   31.0699   11.7567    7.7410 C   0  0  0  0  0  0  0  0  0  0  0  0
   30.6143   10.4182    8.3327 C   0  0  0  0  0  0  0  0  0  0  0  0
   31.4096    9.4895    7.7981 N   0  0  0  0  0  0  0  0  0  0  0  0
   32.3404   10.1088    6.9145 C   0  0  0  0  0  0  0  0  0  0  0  0
   33.3713    9.3141    6.1507 C   0  0  0  0  0  0  0  0  0  0  0  0
   34.3397   10.1144    5.2354 C   0  0  0  0  0  0  0  0  0  0  0  0
   35.3523    9.5099    4.4760 N   0  0  0  0  0  4  0  0  0  0  0  0
   35.5901    8.3174    4.7155 O   0  0  0  0  0  0  0  0  0  0  0  0
   36.1945   10.2769    3.9847 O   0  0  0  0  0  1  0  0  0  0  0  0
   34.1372   11.6621    5.2010 C   0  0  0  0  0  0  0  0  0  0  0  0
   33.0438   12.3621    6.0164 C   0  0  0  0  0  0  0  0  0  0  0  0
   32.1576   11.4786    6.8763 C   0  0  0  0  0  0  0  0  0  0  0  0
  1  2  1  0
  2  3  2  0
  2  4  2  0
  2  5  1  0
  5  6  2  0
  6  7  1  0
  7  8  1  0
  8  9  2  0
  9 10  1  0
 10 11  1  0
 11 12  2  0
 11 13  1  0
 10 14  2  0
 14 15  1  0
 15 16  2  0
 16  5  1  0
 16  8  1  0
M  CHG  2  11   1  13  -1
A    1
 N1 
A    2
 S1 
A    3
 O1 
A    4
 O2 
A    5
 C1 
A    6
 C2 
A    7
 N2 
A    8
 C3 
A    9
 C4 
A   10
 C5 
A   11
 N3 
A   12
 O3 
A   13
 O4 
A   14
 C6 
A   15
 C7 
A   16
 C8 
M  END
>  <ref_pdb>  (742) 
Ax0310a

>  <ref_mols>  (742) 
Ax0446a,Ax1080a,Ax0812a,Ax0719a,Ax1140a,Ax0528a,Ax0310a

>  <original SMILES>  (742) 
NS(=O)(=O)c1c[nH]c2cc([N+](=O)[O-])ccc12

>  <rationale>  (742) 
info info set:sulfonimide_whole;hbond:S87+S125; 

>  <experiment>  (742) 
sulfonimide_whole

>  <cluster_label>  (742) 
3

>  <cluster_rank>  (742) 
399

>  <N_interactions>  (742) 
2

>  <∆∆G>  (742) 
-4.772112

>  <comRMSD>  (742) 
0.61386

>  <ROCS_TanimotoCombo>  (742) 
0.35

>  <ROCS_ShapeTanimoto>  (742) 
0.191

>  <ROCS_ColorTanimoto>  (742) 
0.159

$$$$
EN300_135407
     RDKit          3D

 11 12  0  0  0  0  0  0  0  0999 V2000
   34.4425    9.0584    4.9412 Cl  0  0  0  0  0  0  0  0  0  0  0  0
   33.2299    9.8471    5.8641 C   0  0  0  0  0  0  0  0  0  0  0  0
   33.1333   11.3586    5.7945 C   0  0  0  0  0  0  0  0  0  0  0  0
   32.0088   11.9466    6.6412 C   0  0  0  0  0  0  0  0  0  0  0  0
   31.1340   10.9574    7.4383 C   0  0  0  0  0  0  0  0  0  0  0  0
   31.4518    9.5762    7.3294 C   0  0  0  0  0  0  0  0  0  0  0  0
   32.4431    9.0462    6.5870 N   0  0  0  0  0  0  0  0  0  0  0  0
   30.7013    8.6159    8.0213 N   0  0  0  0  0  0  0  0  0  0  0  0
   29.6704    9.0832    8.9352 C   0  0  0  0  0  0  0  0  0  0  0  0
   29.0559   10.4505    8.5663 C   0  0  0  0  0  0  0  0  0  0  0  0
   30.0695   11.4570    8.2146 N   0  0  0  0  0  0  0  0  0  0  0  0
  1  2  1  0
  2  3  2  0
  3  4  1  0
  4  5  2  0
  5  6  1  0
  6  7  2  0
  6  8  1  0
  8  9  1  0
  9 10  1  0
 10 11  1  0
  7  2  1  0
 11  5  1  0
A    1
CL1 
A    2
 C1 
A    3
 C2 
A    4
 C3 
A    5
 C4 
A    6
 C5 
A    7
 N1 
A    8
 N2 
A    9
 C6 
A   10
 C7 
A   11
 N3 
M  END
>  <ref_pdb>  (743) 
Ax0310a

>  <ref_mols>  (743) 
Ax0446a,Ax1080a,Ax0812a,Ax0719a,Ax1140a,Ax0528a,Ax0310a

>  <original SMILES>  (743) 
Clc1ccc2c(n1)NCCN2

>  <rationale>  (743) 
info info set:bb_densepocket2;hbond:S105; 

>  <experiment>  (743) 
bb_densepocket2

>  <cluster_label>  (743) 
3

>  <cluster_rank>  (743) 
400

>  <N_interactions>  (743) 
1

>  <∆∆G>  (743) 
-1.984103

>  <comRMSD>  (743) 
0.384774

>  <ROCS_TanimotoCombo>  (743) 
0.629

>  <ROCS_ShapeTanimoto>  (743) 
0.223

>  <ROCS_ColorTanimoto>  (743) 
0.407

$$$$
EN300_26866186
     RDKit          3D

 16 16  0  0  0  0  0  0  0  0999 V2000
   34.4009    8.8849    4.6117 C   0  0  0  0  0  0  0  0  0  0  0  0
   33.4932    9.6580    5.4546 N   0  0  0  0  0  0  0  0  0  0  0  0
   32.7892    9.1449    6.4273 N   0  0  0  0  0  0  0  0  0  0  0  0
   32.0934   10.1178    6.9975 C   0  0  0  0  0  0  0  0  0  0  0  0
   31.1726    9.9891    8.1627 C   0  0  0  0  0  0  0  0  0  0  0  0
   30.4030   10.9003    8.5253 O   0  0  0  0  0  0  0  0  0  0  0  0
   31.1875    8.8336    8.8852 O   0  0  0  0  0  0  0  0  0  0  0  0
   29.9702    8.3331    9.1333 C   0  0  0  0  0  0  0  0  0  0  0  0
   29.1267    8.8579    8.1311 C   0  0  0  0  0  0  0  0  0  0  0  0
   29.8161    6.9689    9.1272 C   0  0  0  0  0  0  0  0  0  0  0  0
   29.3258    8.5973   10.2473 C   0  0  0  0  0  0  0  0  0  0  0  0
   32.3725   11.2722    6.3390 C   0  0  0  0  0  0  0  0  0  0  0  0
   33.2694   10.9675    5.3510 C   0  0  0  0  0  0  0  0  0  0  0  0
   33.9344   11.8672    4.3045 B   0  0  0  0  0  0  0  0  0  0  0  0
   33.6201   13.3087    4.2436 O   0  0  0  0  0  0  0  0  0  0  0  0
   34.5052   11.3014    3.0850 O   0  0  0  0  0  0  0  0  0  0  0  0
  1  2  1  0
  2  3  1  0
  3  4  2  0
  4  5  1  0
  5  6  2  0
  5  7  1  0
  7  8  1  0
  8  9  1  0
  8 10  1  0
  8 11  1  0
  4 12  1  0
 12 13  2  0
 13 14  1  0
 14 15  1  0
 14 16  1  0
 13  2  1  0
A    1
 C1 
A    2
 N1 
A    3
 N2 
A    4
 C2 
A    5
 C3 
A    6
 O1 
A    7
 O2 
A    8
 C4 
A    9
 C5 
A   10
 C6 
A   11
 C7 
A   12
 C8 
A   13
 C9 
A   14
 B1 
A   15
 O3 
A   16
 O4 
M  END
>  <ref_pdb>  (744) 
Ax0310a

>  <ref_mols>  (744) 
Ax0446a,Ax1080a,Ax0812a,Ax0719a,Ax1140a,Ax0528a,Ax0310a

>  <original SMILES>  (744) 
Cn1nc(C(=O)OC(C)(C)C)cc1B(O)O

>  <rationale>  (744) 
info info set:bb_densepocket2;hydroph_interaction:P107+V124+D109; 

>  <experiment>  (744) 
bb_densepocket2

>  <cluster_label>  (744) 
3

>  <cluster_rank>  (744) 
401

>  <N_interactions>  (744) 
4

>  <∆∆G>  (744) 
-3.193503

>  <comRMSD>  (744) 
0.588199

>  <ROCS_TanimotoCombo>  (744) 
0.629

>  <ROCS_ShapeTanimoto>  (744) 
0.224

>  <ROCS_ColorTanimoto>  (744) 
0.405

$$$$
EN300_365064
     RDKit          3D

 29 33  0  0  0  0  0  0  0  0999 V2000
   32.2908   13.6456    7.1801 O   0  0  0  0  0  0  0  0  0  0  0  0
   31.9611   13.8427    8.3374 C   0  0  0  0  0  0  0  0  0  0  0  0
   32.8772   14.1656    9.2611 O   0  0  0  0  0  0  0  0  0  0  0  0
   30.5741   13.7623    8.8899 C   0  0  1  0  0  0  0  0  0  0  0  0
   29.7591   15.0143    9.1001 C   0  0  1  0  0  0  0  0  0  0  0  0
   28.6367   15.5521    8.2007 C   0  0  0  0  0  0  0  0  0  0  0  0
   28.2716   14.5915    6.9839 C   0  0  0  0  0  0  0  0  0  0  0  0
   28.2725   13.5109    8.0169 C   0  0  2  0  0  0  0  0  0  0  0  0
   27.8021   13.8731    9.4329 C   0  0  0  0  0  0  0  0  0  0  0  0
   28.9236   14.5017   10.2221 C   0  0  0  0  0  0  0  0  0  0  0  0
   29.7195   12.9506    7.9612 C   0  0  2  0  0  0  0  0  0  0  0  0
   29.7326   11.5887    8.3911 N   0  0  0  0  0  0  0  0  0  0  0  0
   30.7275   10.7254    7.8213 C   0  0  0  0  0  0  0  0  0  0  0  0
   31.6735   11.2422    7.0210 N   0  0  0  0  0  0  0  0  0  0  0  0
   32.5507   10.3660    6.5297 C   0  0  0  0  0  0  0  0  0  0  0  0
   33.6997   10.8206    5.6530 C   0  0  0  0  0  0  0  0  0  0  0  0
   34.0992   12.2738    5.6383 C   0  0  0  0  0  0  0  0  0  0  0  0
   35.1615   12.3770    4.7843 N   0  0  0  0  0  0  0  0  0  0  0  0
   35.4618   11.1252    4.2677 C   0  0  0  0  0  0  0  0  0  0  0  0
   36.4673   10.8983    3.3994 N   0  0  0  0  0  0  0  0  0  0  0  0
   36.5722    9.5914    3.0333 C   0  0  0  0  0  0  0  0  0  0  0  0
   35.7568    8.5636    3.4738 C   0  0  0  0  0  0  0  0  0  0  0  0
   35.9487    7.3061    3.0486 F   0  0  0  0  0  0  0  0  0  0  0  0
   34.7413    8.8465    4.3607 C   0  0  0  0  0  0  0  0  0  0  0  0
   34.5795   10.1619    4.7805 C   0  0  0  0  0  0  0  0  0  0  0  0
   32.5404    9.0632    6.7534 N   0  0  0  0  0  0  0  0  0  0  0  0
   31.5888    8.6135    7.5517 C   0  0  0  0  0  0  0  0  0  0  0  0
   30.6666    9.3829    8.1193 C   0  0  0  0  0  0  0  0  0  0  0  0
   29.7669    8.8172    8.9127 F   0  0  0  0  0  0  0  0  0  0  0  0
  1  2  2  0
  2  3  1  0
  4  2  1  6
  4  5  1  0
  5  6  1  6
  6  7  1  0
  8  7  1  6
  8  9  1  0
  9 10  1  0
  8 11  1  0
 11 12  1  1
 12 13  1  0
 13 14  2  0
 14 15  1  0
 15 16  1  0
 16 17  2  0
 17 18  1  0
 18 19  1  0
 19 20  2  0
 20 21  1  0
 21 22  2  0
 22 23  1  0
 22 24  1  0
 24 25  2  0
 15 26  2  0
 26 27  1  0
 27 28  2  0
 28 29  1  0
 11  4  1  0
 28 13  1  0
 10  5  1  0
 25 16  1  0
 25 19  1  0
A    1
 O1 
A    2
 C1 
A    3
 O2 
A    4
 C2 
A    5
 C3 
A    6
 C4 
A    7
 C5 
A    8
 C6 
A    9
 C7 
A   10
 C8 
A   11
 C9 
A   12
 N1 
A   13
 C10
A   14
 N2 
A   15
 C11
A   16
 C12
A   17
 C13
A   18
 N3 
A   19
 C14
A   20
 N4 
A   21
 C15
A   22
 C16
A   23
 F1 
A   24
 C17
A   25
 C18
A   26
 N5 
A   27
 C19
A   28
 C20
A   29
 F2 
M  END
>  <ref_pdb>  (745) 
Ax0310a

>  <ref_mols>  (745) 
Ax0446a,Ax1080a,Ax0812a,Ax0719a,Ax1140a,Ax0528a,Ax0310a

>  <original SMILES>  (745) 
O=C(O)[C@H]1[C@H]2CC[C@H](CC2)[C@@H]1Nc1nc(-c2c[nH]c3ncc(F)cc23)ncc1F

>  <rationale>  (745) 
info info set:bb_whole;hbond:S87+S125+G127; hydroph_interaction:Y89+Y90; 

>  <experiment>  (745) 
bb_whole

>  <cluster_label>  (745) 
3

>  <cluster_rank>  (745) 
402

>  <N_interactions>  (745) 
5

>  <∆∆G>  (745) 
-0.640248

>  <comRMSD>  (745) 
0.750273

>  <ROCS_TanimotoCombo>  (745) 
0.422

>  <ROCS_ShapeTanimoto>  (745) 
0.266

>  <ROCS_ColorTanimoto>  (745) 
0.155

$$$$
Z362114752
     RDKit          3D

 16 17  0  0  0  0  0  0  0  0999 V2000
   33.6296   12.9016    8.2586 O   0  0  0  0  0  0  0  0  0  0  0  0
   33.8464   12.9836    7.0317 C   0  0  0  0  0  0  0  0  0  0  0  0
   33.9632   14.1616    6.4009 O   0  0  0  0  0  0  0  0  0  0  0  0
   34.0016   11.7874    6.1075 C   0  0  0  0  0  0  0  0  0  0  0  0
   33.0827   10.7704    5.9940 C   0  0  0  0  0  0  0  0  0  0  0  0
   31.9524   10.8823    6.7367 C   0  0  0  0  0  0  0  0  0  0  0  0
   31.3273   12.1090    6.6044 C   0  0  0  0  0  0  0  0  0  0  0  0
   31.7932   13.0493    5.7741 F   0  0  0  0  0  0  0  0  0  0  0  0
   30.2169   12.4118    7.3208 C   0  0  0  0  0  0  0  0  0  0  0  0
   29.6646   11.4430    8.2499 C   0  0  0  0  0  0  0  0  0  0  0  0
   30.2059   10.1710    8.4261 C   0  0  0  0  0  0  0  0  0  0  0  0
   31.4401    9.9057    7.5816 C   0  0  0  0  0  0  0  0  0  0  0  0
   32.0071    8.7077    7.6983 F   0  0  0  0  0  0  0  0  0  0  0  0
   33.4847    9.7918    5.1379 N   0  0  0  0  0  0  0  0  0  0  0  0
   34.7108   10.0055    4.8545 N   0  0  0  0  0  0  0  0  0  0  0  0
   35.0733   11.4246    5.1779 C   0  0  0  0  0  0  0  0  0  0  0  0
  1  2  2  0
  2  3  1  0
  2  4  1  0
  4  5  2  0
  5  6  1  0
  6  7  2  0
  7  8  1  0
  7  9  1  0
  9 10  2  0
 10 11  1  0
 11 12  2  0
 12 13  1  0
  5 14  1  0
 14 15  2  0
 15 16  1  0
 16  4  1  0
 12  6  1  0
A    1
 O1 
A    2
 C1 
A    3
 O2 
A    4
 C2 
A    5
 C3 
A    6
 C4 
A    7
 C5 
A    8
 F1 
A    9
 C6 
A   10
 C7 
A   11
 C8 
A   12
 C9 
A   13
 F2 
A   14
 N1 
A   15
 N2 
A   16
 C10
M  END
>  <ref_pdb>  (746) 
Ax0310a

>  <ref_mols>  (746) 
Ax0446a,Ax1080a,Ax0812a,Ax0719a,Ax1140a,Ax0528a,Ax0310a

>  <original SMILES>  (746) 
O=C(O)C1=C(c2c(F)cccc2F)N=NC1

>  <rationale>  (746) 
info info set:3d;halogenbond:S105; hbond:S105+G127; hydroph_interaction:P107; 

>  <experiment>  (746) 
3d

>  <cluster_label>  (746) 
3

>  <cluster_rank>  (746) 
403

>  <N_interactions>  (746) 
5

>  <∆∆G>  (746) 
-0.96508

>  <comRMSD>  (746) 
0.758975

>  <ROCS_TanimotoCombo>  (746) 
0.31

>  <ROCS_ShapeTanimoto>  (746) 
0.221

>  <ROCS_ColorTanimoto>  (746) 
0.088

$$$$
Z1343688359
     RDKit          3D

 19 21  0  0  0  0  0  0  0  0999 V2000
   32.1923   12.9255    6.5446 C   0  0  0  0  0  0  0  0  0  0  0  0
   32.4417   11.4482    6.4325 C   0  0  0  0  0  0  0  0  0  0  0  0
   31.5422   10.5537    7.2294 C   0  0  0  0  0  0  0  0  0  0  0  0
   30.3913   10.9935    8.0953 C   0  0  0  0  0  0  0  0  0  0  0  0
   30.1479   10.3512    9.0820 O   0  0  0  0  0  0  0  0  0  0  0  0
   29.6652   12.0577    7.5959 N   0  0  0  0  0  0  0  0  0  0  0  0
   28.7897   12.9142    8.3397 C   0  0  0  0  0  0  0  0  0  0  0  0
   27.3830   12.3434    8.4853 C   0  0  0  0  0  0  0  0  0  0  0  0
   26.4874   13.1272    7.6496 C   0  0  0  0  0  0  0  0  0  0  0  0
   26.5127   11.7433    7.2297 C   0  0  0  0  0  0  0  0  0  0  0  0
   31.7994    9.2401    7.1319 C   0  0  0  0  0  0  0  0  0  0  0  0
   31.0706    8.3273    7.8205 O   0  0  0  0  0  0  0  0  0  0  0  0
   32.7587    8.7107    6.3712 N   0  0  0  0  0  0  0  0  0  0  0  0
   33.5523    9.5013    5.6278 C   0  0  0  0  0  0  0  0  0  0  0  0
   34.6414    8.8439    4.7276 C   0  0  0  0  0  0  0  0  0  0  0  0
   35.4781    9.8018    3.9359 C   0  0  0  0  0  0  0  0  0  0  0  0
   35.2905   11.1592    4.0152 C   0  0  0  0  0  0  0  0  0  0  0  0
   34.3031   11.6892    4.8361 C   0  0  0  0  0  0  0  0  0  0  0  0
   33.4424   10.8990    5.6255 C   0  0  0  0  0  0  0  0  0  0  0  0
  1  2  1  0
  2  3  2  0
  3  4  1  0
  4  5  2  0
  4  6  1  0
  6  7  1  0
  7  8  1  0
  8  9  1  0
  9 10  1  0
  3 11  1  0
 11 12  1  0
 11 13  2  0
 13 14  1  0
 14 15  2  0
 15 16  1  0
 16 17  2  0
 17 18  1  0
 18 19  2  0
 19  2  1  0
 10  8  1  0
 19 14  1  0
A    1
 C1 
A    2
 C2 
A    3
 C3 
A    4
 C4 
A    5
 O1 
A    6
 N1 
A    7
 C5 
A    8
 C6 
A    9
 C7 
A   10
 C8 
A   11
 C9 
A   12
 O2 
A   13
 N2 
A   14
 C10
A   15
 C11
A   16
 C12
A   17
 C13
A   18
 C14
A   19
 C15
M  END
>  <ref_pdb>  (747) 
Ax0310a

>  <ref_mols>  (747) 
Ax0446a,Ax1080a,Ax0812a,Ax0719a,Ax1140a,Ax0528a,Ax0310a

>  <original SMILES>  (747) 
Cc1c(C(=O)NCC2CC2)c(O)nc2ccccc12

>  <rationale>  (747) 
info info set:screening_pocket;hbond:S87+S105; hydroph_interaction:Y89; 

>  <experiment>  (747) 
screening_pocket

>  <cluster_label>  (747) 
3

>  <cluster_rank>  (747) 
404

>  <N_interactions>  (747) 
4

>  <∆∆G>  (747) 
-3.69657

>  <comRMSD>  (747) 
0.610348

>  <ROCS_TanimotoCombo>  (747) 
0.646

>  <ROCS_ShapeTanimoto>  (747) 
0.286

>  <ROCS_ColorTanimoto>  (747) 
0.36

$$$$
Z4105194787
     RDKit          3D

 22 24  0  0  0  0  0  0  0  0999 V2000
   30.0995    8.3492    8.3998 C   0  0  0  0  0  0  0  0  0  0  0  0
   30.3169    9.7467    8.3378 C   0  0  0  0  0  0  0  0  0  0  0  0
   31.3399   10.0865    7.3987 N   0  0  0  0  0  0  0  0  0  0  0  0
   32.3467    9.1761    7.0012 N   0  0  0  0  0  0  0  0  0  0  0  0
   33.0973    9.9061    6.1548 C   0  0  0  0  0  0  0  0  0  0  0  0
   32.5729   11.2307    6.0048 C   0  0  0  0  0  0  0  0  0  0  0  0
   31.4118   11.3002    6.8324 C   0  0  0  0  0  0  0  0  0  0  0  0
   30.4588   12.4166    7.0638 C   0  0  0  0  0  0  0  0  0  0  0  0
   30.1019   13.1500    6.1539 O   0  0  0  0  0  0  0  0  0  0  0  0
   29.9615   12.5814    8.3424 N   0  0  0  0  0  0  0  0  0  0  0  0
   28.7261   13.3009    8.5463 C   0  0  0  0  0  0  0  0  0  0  0  0
   28.9407   14.4035    9.4933 C   0  0  0  0  0  0  0  0  0  0  0  0
   28.0347   14.6172   10.4218 C   0  0  0  0  0  0  0  0  0  0  0  0
   30.3660   14.4227   10.0819 C   0  0  0  0  0  0  0  0  0  0  0  0
   30.7247   15.5542    9.2858 O   0  0  0  0  0  0  0  0  0  0  0  0
   29.3623   15.6476    8.7522 C   0  0  0  0  0  0  0  0  0  0  0  0
   33.3048   12.1336    5.1061 C   0  0  0  0  0  0  0  0  0  0  0  0
   34.8080   11.9671    5.4496 C   0  0  2  0  0  0  0  0  0  0  0  0
   35.5814   12.7464    4.5832 C   0  0  0  0  0  0  0  0  0  0  0  0
   35.2984   10.6564    5.3789 O   0  0  0  0  0  0  0  0  0  0  0  0
   34.3520    9.5227    5.4180 C   0  0  2  0  0  0  0  0  0  0  0  0
   34.3222    9.0776    3.9912 C   0  0  0  0  0  0  0  0  0  0  0  0
  1  2  1  0
  2  3  1  0
  3  4  1  0
  4  5  2  0
  5  6  1  0
  6  7  2  0
  7  8  1  0
  8  9  2  0
  8 10  1  0
 10 11  1  0
 11 12  1  0
 12 13  1  0
 12 14  1  0
 14 15  1  0
 15 16  1  0
  6 17  1  0
 17 18  1  0
 18 19  1  6
 18 20  1  0
 20 21  1  0
 21 22  1  6
  7  3  1  0
 16 12  1  0
 21  5  1  0
A    1
 C1 
A    2
 C2 
A    3
 N1 
A    4
 N2 
A    5
 C3 
A    6
 C4 
A    7
 C5 
A    8
 C6 
A    9
 O1 
A   10
 N3 
A   11
 C7 
A   12
 C8 
A   13
 C9 
A   14
 C10
A   15
 O2 
A   16
 C11
A   17
 C12
A   18
 C13
A   19
 C14
A   20
 O3 
A   21
 C15
A   22
 C16
M  END
>  <ref_pdb>  (748) 
Ax0310a

>  <ref_mols>  (748) 
Ax0446a,Ax1080a,Ax0812a,Ax0719a,Ax1140a,Ax0528a,Ax0310a

>  <original SMILES>  (748) 
CCn1nc2c(c1C(=O)NCC1(C)COC1)C[C@H](C)O[C@@H]2C

>  <rationale>  (748) 
info info set:screening_whole;hbond:S87+S125; hydroph_interaction:P107+Y90+V124; 

>  <experiment>  (748) 
screening_whole

>  <cluster_label>  (748) 
3

>  <cluster_rank>  (748) 
405

>  <N_interactions>  (748) 
5

>  <∆∆G>  (748) 
-7.22321

>  <comRMSD>  (748) 
0.88229

>  <ROCS_TanimotoCombo>  (748) 
0.463

>  <ROCS_ShapeTanimoto>  (748) 
0.252

>  <ROCS_ColorTanimoto>  (748) 
0.211

$$$$
EN300_1622329
     RDKit          3D

 11 11  0  0  0  0  0  0  0  0999 V2000
   29.2013    8.0057    8.5043 C   0  0  0  0  0  0  0  0  0  0  0  0
   30.5689    7.8010    8.4941 C   0  0  0  0  0  0  0  0  0  0  0  0
   31.2783    8.9742    8.5646 C   0  0  0  0  0  0  0  0  0  0  0  0
   31.7502    9.7862    7.4568 C   0  0  0  0  0  0  0  0  0  0  0  0
   32.6771    9.1287    6.6298 N   0  0  0  0  0  0  0  0  0  0  0  0
   33.1743    9.8438    5.6194 C   0  0  0  0  0  0  0  0  0  0  0  0
   34.1847    9.1682    4.7364 C   0  0  0  0  0  0  0  0  0  0  0  0
   32.8051   11.1652    5.3683 C   0  0  0  0  0  0  0  0  0  0  0  0
   31.8741   11.8444    6.1748 C   0  0  0  0  0  0  0  0  0  0  0  0
   31.2843   11.2326    7.2581 C   0  0  0  0  0  0  0  0  0  0  0  0
   30.3579   11.9281    8.0655 N   0  0  0  0  0  0  0  0  0  0  0  0
  1  2  1  0
  2  3  1  0
  3  4  1  0
  4  5  2  0
  5  6  1  0
  6  7  1  0
  6  8  2  0
  8  9  1  0
  9 10  2  0
 10 11  1  0
 10  4  1  0
A    1
 C1 
A    2
 C2 
A    3
 C3 
A    4
 C4 
A    5
 N1 
A    6
 C5 
A    7
 C6 
A    8
 C7 
A    9
 C8 
A   10
 C9 
A   11
 N2 
M  END
>  <ref_pdb>  (749) 
Ax0310a

>  <ref_mols>  (749) 
Ax0446a,Ax1080a,Ax0812a,Ax0719a,Ax1140a,Ax0528a,Ax0310a

>  <original SMILES>  (749) 
CCCc1nc(C)ccc1N

>  <rationale>  (749) 
info info set:bb_densepocket2;hbond:S125; hydroph_interaction:P107+V124+D109; 

>  <experiment>  (749) 
bb_densepocket2

>  <cluster_label>  (749) 
3

>  <cluster_rank>  (749) 
406

>  <N_interactions>  (749) 
4

>  <∆∆G>  (749) 
-0.913376

>  <comRMSD>  (749) 
0.74042

>  <ROCS_TanimotoCombo>  (749) 
0.644

>  <ROCS_ShapeTanimoto>  (749) 
0.189

>  <ROCS_ColorTanimoto>  (749) 
0.455

$$$$
Z4348376256
     RDKit          3D

 18 20  0  0  0  0  0  0  0  0999 V2000
   28.6196   12.4507    6.6849 C   0  0  0  0  0  0  0  0  0  0  0  0
   29.3969   12.2949    7.8655 N   0  0  0  0  0  0  0  0  0  0  0  0
   28.9485   13.0768    8.8481 C   0  0  0  0  0  0  0  0  0  0  0  0
   28.2335   14.1642    8.2147 C   0  0  0  0  0  0  0  0  0  0  0  0
   28.9213   15.4235    8.1696 C   0  0  0  0  0  0  0  0  0  0  0  0
   28.7780   14.6709    6.9159 C   0  0  0  0  0  0  0  0  0  0  0  0
   30.2364   11.1962    8.1173 C   0  0  0  0  0  0  0  0  0  0  0  0
   30.1239   10.4044    9.0217 O   0  0  0  0  0  0  0  0  0  0  0  0
   31.3859   10.8271    7.2426 C   0  0  0  0  0  0  0  0  0  0  0  0
   31.6592    9.3314    7.2848 C   0  0  0  0  0  0  0  0  0  0  0  0
   32.6246    8.7237    6.6037 N   0  0  0  0  0  0  0  0  0  0  0  0
   33.3908    9.5055    5.8367 C   0  0  0  0  0  0  0  0  0  0  0  0
   33.1878   11.0055    5.7363 C   0  0  0  0  0  0  0  0  0  0  0  0
   32.1694   11.6425    6.4577 C   0  0  0  0  0  0  0  0  0  0  0  0
   34.1152   11.7527    4.8439 C   0  0  0  0  0  0  0  0  0  0  0  0
   34.5521   10.8599    3.6639 C   0  0  0  0  0  0  0  0  0  0  0  0
   34.9566    9.4092    3.9280 C   0  0  0  0  0  0  0  0  0  0  0  0
   34.3849    8.8622    5.1462 N   0  0  0  0  0  0  0  0  0  0  0  0
  1  2  1  0
  2  3  1  0
  3  4  1  0
  4  5  1  0
  5  6  1  0
  2  7  1  0
  7  8  2  0
  7  9  1  0
  9 10  2  0
 10 11  1  0
 11 12  2  0
 12 13  1  0
 13 14  2  0
 13 15  1  0
 15 16  1  0
 16 17  1  0
 17 18  1  0
  6  4  1  0
 14  9  1  0
 18 12  1  0
A    1
 C1 
A    2
 N1 
A    3
 C2 
A    4
 C3 
A    5
 C4 
A    6
 C5 
A    7
 C6 
A    8
 O1 
A    9
 C7 
A   10
 C8 
A   11
 N2 
A   12
 C9 
A   13
 C10
A   14
 C11
A   15
 C12
A   16
 C13
A   17
 C14
A   18
 N3 
M  END
>  <ref_pdb>  (750) 
Ax0310a

>  <ref_mols>  (750) 
Ax0446a,Ax1080a,Ax0812a,Ax0719a,Ax1140a,Ax0528a,Ax0310a

>  <original SMILES>  (750) 
CN(CC1CC1)C(=O)c1cnc2c(c1)CCCN2

>  <rationale>  (750) 
info info set:screening_pocket;hbond:S105; hydroph_interaction:P107+Y90; 

>  <experiment>  (750) 
screening_pocket

>  <cluster_label>  (750) 
3

>  <cluster_rank>  (750) 
407

>  <N_interactions>  (750) 
3

>  <∆∆G>  (750) 
-2.862533

>  <comRMSD>  (750) 
0.574028

>  <ROCS_TanimotoCombo>  (750) 
0.654

>  <ROCS_ShapeTanimoto>  (750) 
0.274

>  <ROCS_ColorTanimoto>  (750) 
0.38

$$$$
EN300_172646
     RDKit          3D

 16 16  0  0  0  0  0  0  0  0999 V2000
   31.7873   15.0134   10.0036 C   0  0  0  0  0  0  0  0  0  0  0  0
   30.6434   15.0976    9.1946 O   0  0  0  0  0  0  0  0  0  0  0  0
   29.9670   13.8631    9.0259 C   0  0  0  0  0  0  0  0  0  0  0  0
   29.6088   13.6427    7.7002 C   0  0  0  0  0  0  0  0  0  0  0  0
   30.7605   13.2864    6.9167 O   0  0  0  0  0  0  0  0  0  0  0  0
   31.1280   11.9950    7.0763 C   0  0  0  0  0  0  0  0  0  0  0  0
   30.4035   11.1252    7.8756 C   0  0  0  0  0  0  0  0  0  0  0  0
   30.7540    9.8042    8.0319 C   0  0  0  0  0  0  0  0  0  0  0  0
   31.8496    9.3176    7.3844 C   0  0  0  0  0  0  0  0  0  0  0  0
   32.1516    8.0678    7.5412 F   0  0  0  0  0  0  0  0  0  0  0  0
   32.6497   10.0893    6.5775 C   0  0  0  0  0  0  0  0  0  0  0  0
   32.3721   11.4306    6.3720 C   0  0  0  0  0  0  0  0  0  0  0  0
   33.4365   12.3894    5.3415 S   0  0  0  0  0  6  0  0  0  0  0  0
   34.8531   11.4823    5.2593 N   0  0  0  0  0  0  0  0  0  0  0  0
   32.9011   12.3861    3.9984 O   0  0  0  0  0  0  0  0  0  0  0  0
   33.7421   13.6131    6.0400 O   0  0  0  0  0  0  0  0  0  0  0  0
  1  2  1  0
  2  3  1  0
  3  4  1  0
  4  5  1  0
  5  6  1  0
  6  7  2  0
  7  8  1  0
  8  9  2  0
  9 10  1  0
  9 11  1  0
 11 12  2  0
 12 13  1  0
 13 14  1  0
 13 15  2  0
 13 16  2  0
 12  6  1  0
A    1
 C1 
A    2
 O1 
A    3
 C2 
A    4
 C3 
A    5
 O2 
A    6
 C4 
A    7
 C5 
A    8
 C6 
A    9
 C7 
A   10
 F1 
A   11
 C8 
A   12
 C9 
A   13
 S1 
A   14
 N1 
A   15
 O3 
A   16
 O4 
M  END
>  <ref_pdb>  (751) 
Ax0310a

>  <ref_mols>  (751) 
Ax0446a,Ax1080a,Ax0812a,Ax0719a,Ax1140a,Ax0528a,Ax0310a

>  <original SMILES>  (751) 
COCCOc1ccc(F)cc1S(N)(=O)=O

>  <rationale>  (751) 
info info set:sulfonimide_whole;halogenbond:S105; hbond:S87+G127; 

>  <experiment>  (751) 
sulfonimide_whole

>  <cluster_label>  (751) 
3

>  <cluster_rank>  (751) 
408

>  <N_interactions>  (751) 
3

>  <∆∆G>  (751) 
-7.494243

>  <comRMSD>  (751) 
0.566083

>  <ROCS_TanimotoCombo>  (751) 
0.353

>  <ROCS_ShapeTanimoto>  (751) 
0.214

>  <ROCS_ColorTanimoto>  (751) 
0.139

$$$$
EN300_105700
     RDKit          3D

 13 13  0  0  0  0  0  0  0  0999 V2000
   33.7073   12.3403    4.7435 C   0  0  0  0  0  0  0  0  0  0  0  0
   32.6189   12.7169    5.7142 C   0  0  2  0  0  0  0  0  0  0  0  0
   33.0576   13.7886    6.6703 C   0  0  0  0  0  0  0  0  0  0  0  0
   34.3337   13.5932    7.8766 S   0  0  0  0  0  6  0  0  0  0  0  0
   34.3208   14.9655    8.8562 N   0  0  0  0  0  0  0  0  0  0  0  0
   33.8201   12.6411    8.7992 O   0  0  0  0  0  0  0  0  0  0  0  0
   35.6268   13.5611    7.2428 O   0  0  0  0  0  0  0  0  0  0  0  0
   32.1309   11.5173    6.4724 C   0  0  0  0  0  0  0  0  0  0  0  0
   32.6834   10.2282    6.2585 C   0  0  0  0  0  0  0  0  0  0  0  0
   32.2782    9.1015    6.9153 C   0  0  0  0  0  0  0  0  0  0  0  0
   31.2279    9.2263    7.8834 C   0  0  0  0  0  0  0  0  0  0  0  0
   30.6773   10.4865    8.1060 C   0  0  0  0  0  0  0  0  0  0  0  0
   31.1191   11.6008    7.4138 C   0  0  0  0  0  0  0  0  0  0  0  0
  2  1  1  6
  2  3  1  0
  3  4  1  0
  4  5  1  0
  4  6  2  0
  4  7  2  0
  2  8  1  0
  8  9  2  0
  9 10  1  0
 10 11  2  0
 11 12  1  0
 12 13  2  0
 13  8  1  0
A    1
 C1 
A    2
 C2 
A    3
 C3 
A    4
 S1 
A    5
 N1 
A    6
 O1 
A    7
 O2 
A    8
 C4 
A    9
 C5 
A   10
 C6 
A   11
 C7 
A   12
 C8 
A   13
 C9 
M  END
>  <ref_pdb>  (752) 
Ax0310a

>  <ref_mols>  (752) 
Ax0446a,Ax1080a,Ax0812a,Ax0719a,Ax1140a,Ax0528a,Ax0310a

>  <original SMILES>  (752) 
C[C@H](CS(N)(=O)=O)c1ccccc1

>  <rationale>  (752) 
info info set:sulfonimide_whole;hbond:G127; hydroph_interaction:P107; 

>  <experiment>  (752) 
sulfonimide_whole

>  <cluster_label>  (752) 
3

>  <cluster_rank>  (752) 
409

>  <N_interactions>  (752) 
2

>  <∆∆G>  (752) 
-5.097549

>  <comRMSD>  (752) 
0.579255

>  <ROCS_TanimotoCombo>  (752) 
0.354

>  <ROCS_ShapeTanimoto>  (752) 
0.186

>  <ROCS_ColorTanimoto>  (752) 
0.168

$$$$
EN300_801725
     RDKit          3D

 17 18  0  0  0  0  0  0  0  0999 V2000
   28.8736    8.7227    8.1641 C   0  0  0  0  0  0  0  0  0  0  0  0
   30.2954    8.8603    8.2035 C   0  0  0  0  0  0  0  0  0  0  0  0
   30.8730    7.6493    8.3289 C   0  0  0  0  0  0  0  0  0  0  0  0
   30.3181    9.1873    9.5527 C   0  0  0  0  0  0  0  0  0  0  0  0
   31.1834    9.8280    7.4656 C   0  0  0  0  0  0  0  0  0  0  0  0
   32.1314    9.2368    6.7100 N   0  0  0  0  0  0  0  0  0  0  0  0
   33.0935    9.9796    5.9314 C   0  0  0  0  0  0  0  0  0  0  0  0
   34.0874    9.1581    5.1230 C   0  0  0  0  0  0  0  0  0  0  0  0
   35.1760    9.7406    4.2480 C   0  0  0  0  0  0  0  0  0  0  0  0
   36.0146    8.9496    3.5658 F   0  0  0  0  0  0  0  0  0  0  0  0
   35.2442   11.2737    4.2049 C   0  0  0  0  0  0  0  0  0  0  0  0
   34.2014   12.0463    5.0456 C   0  0  0  0  0  0  0  0  0  0  0  0
   33.1436   11.3438    5.8921 C   0  0  0  0  0  0  0  0  0  0  0  0
   32.1020   12.0951    6.7237 C   0  0  0  0  0  0  0  0  0  0  0  0
   31.0756   11.3443    7.5429 C   0  0  0  0  0  0  0  0  0  0  0  0
   30.1089   12.0299    8.3086 N   0  0  0  0  0  0  0  0  0  0  0  0
   29.8385   13.3726    8.0284 N   0  0  0  0  0  0  0  0  0  0  0  0
  1  2  1  0
  2  3  1  0
  2  4  1  0
  2  5  1  0
  5  6  2  0
  6  7  1  0
  7  8  2  0
  8  9  1  0
  9 10  1  0
  9 11  2  0
 11 12  1  0
 12 13  2  0
 13 14  1  0
 14 15  2  0
 15 16  1  0
 16 17  1  0
 15  5  1  0
 13  7  1  0
A    1
 C1 
A    2
 C2 
A    3
 C3 
A    4
 C4 
A    5
 C5 
A    6
 N1 
A    7
 C6 
A    8
 C7 
A    9
 C8 
A   10
 F1 
A   11
 C9 
A   12
 C10
A   13
 C11
A   14
 C12
A   15
 C13
A   16
 N2 
A   17
 N3 
M  END
>  <ref_pdb>  (753) 
Ax0310a

>  <ref_mols>  (753) 
Ax0446a,Ax1080a,Ax0812a,Ax0719a,Ax1140a,Ax0528a,Ax0310a

>  <original SMILES>  (753) 
CC(C)(C)c1nc2cc(F)ccc2cc1NN

>  <rationale>  (753) 
info info set:bb_densepocket2;hbond:S87+S125; 

>  <experiment>  (753) 
bb_densepocket2

>  <cluster_label>  (753) 
3

>  <cluster_rank>  (753) 
410

>  <N_interactions>  (753) 
3

>  <∆∆G>  (753) 
-2.94838

>  <comRMSD>  (753) 
0.654269

>  <ROCS_TanimotoCombo>  (753) 
0.621

>  <ROCS_ShapeTanimoto>  (753) 
0.284

>  <ROCS_ColorTanimoto>  (753) 
0.336

$$$$
Z816284138
     RDKit          3D

 15 16  0  0  0  0  0  0  0  0999 V2000
   29.2184   12.9156    6.4009 C   0  0  0  0  0  0  0  0  0  0  0  0
   29.6610   12.5343    7.7213 N   0  0  0  0  0  0  0  0  0  0  0  0
   28.9653   13.2873    8.7496 C   0  0  0  0  0  0  0  0  0  0  0  0
   30.2890   11.3162    8.0323 C   0  0  0  0  0  0  0  0  0  0  0  0
   30.0212   10.5763    8.9333 O   0  0  0  0  0  0  0  0  0  0  0  0
   31.4239   10.7416    7.2246 C   0  0  0  0  0  0  0  0  0  0  0  0
   32.2334   11.7498    6.4241 C   0  0  0  0  0  0  0  0  0  0  0  0
   33.3693   11.0933    5.6356 C   0  0  0  0  0  0  0  0  0  0  0  0
   33.4784    9.5729    5.7965 C   0  0  0  0  0  0  0  0  0  0  0  0
   34.4739    8.8588    5.1403 N   0  0  0  0  0  0  0  0  0  0  0  0
   35.2261    9.4226    4.0351 C   0  0  0  0  0  0  0  0  0  0  0  0
   35.7542    8.5739    3.0183 C   0  0  0  0  0  0  0  0  0  0  0  0
   34.6588    9.3871    2.5069 C   0  0  0  0  0  0  0  0  0  0  0  0
   32.6644    8.8260    6.5559 N   0  0  0  0  0  0  0  0  0  0  0  0
   31.6778    9.4008    7.2415 C   0  0  0  0  0  0  0  0  0  0  0  0
  1  2  1  0
  2  3  1  0
  2  4  1  0
  4  5  2  0
  4  6  1  0
  6  7  2  0
  7  8  1  0
  8  9  2  0
  9 10  1  0
 10 11  1  0
 11 12  1  0
 12 13  1  0
  9 14  1  0
 14 15  2  0
 15  6  1  0
 13 11  1  0
A    1
 C1 
A    2
 N1 
A    3
 C2 
A    4
 C3 
A    5
 O1 
A    6
 C4 
A    7
 C5 
A    8
 C6 
A    9
 C7 
A   10
 N2 
A   11
 C8 
A   12
 C9 
A   13
 C10
A   14
 N3 
A   15
 C11
M  END
>  <ref_pdb>  (754) 
Ax0310a

>  <ref_mols>  (754) 
Ax0446a,Ax1080a,Ax0812a,Ax0719a,Ax1140a,Ax0528a,Ax0310a

>  <original SMILES>  (754) 
CN(C)C(=O)c1ccc(NC2CC2)nc1

>  <rationale>  (754) 
info info set:screening_pocket;hbond:S105; hydroph_interaction:P107; 

>  <experiment>  (754) 
screening_pocket

>  <cluster_label>  (754) 
3

>  <cluster_rank>  (754) 
411

>  <N_interactions>  (754) 
2

>  <∆∆G>  (754) 
-5.571539

>  <comRMSD>  (754) 
0.556948

>  <ROCS_TanimotoCombo>  (754) 
0.663

>  <ROCS_ShapeTanimoto>  (754) 
0.239

>  <ROCS_ColorTanimoto>  (754) 
0.424

$$$$
Z5014453681
     RDKit          3D

 25 28  0  0  0  0  0  0  0  0999 V2000
   29.7157    7.9812    8.5525 C   0  0  0  0  0  0  0  0  0  0  0  0
   30.3894    8.5354    7.4771 O   0  0  0  0  0  0  0  0  0  0  0  0
   31.7024    8.6621    7.6639 C   0  0  0  0  0  0  0  0  0  0  0  0
   31.9914   10.0854    7.3479 C   0  0  2  0  0  0  0  0  0  0  0  0
   30.9933   11.0995    7.7351 C   0  0  0  0  0  0  0  0  0  0  0  0
   31.5053   12.2493    7.1223 N   0  0  0  0  0  0  0  0  0  0  0  0
   31.5052   13.1876    7.9406 C   0  0  0  0  0  0  0  0  0  0  0  0
   32.5635   13.6696    8.7039 N   0  0  0  0  0  0  0  0  0  0  0  0
   32.3452   14.7819    9.6306 C   0  0  0  0  0  0  0  0  0  0  0  0
   31.0846   15.3206    9.6938 N   0  0  0  0  0  0  0  0  0  0  0  0
   30.0651   14.7724    8.8863 C   0  0  0  0  0  0  0  0  0  0  0  0
   28.6478   15.3507    8.9200 C   0  0  0  0  0  0  0  0  0  0  0  0
   27.6105   14.6639    8.0012 C   0  0  0  0  0  0  0  0  0  0  0  0
   27.8751   13.5920    7.1743 C   0  0  0  0  0  0  0  0  0  0  0  0
   26.9218   12.9684    6.3691 C   0  0  0  0  0  0  0  0  0  0  0  0
   25.6241   12.8357    6.8590 C   0  0  0  0  0  0  0  0  0  0  0  0
   26.8871   13.6145    4.9773 C   0  0  0  0  0  0  0  0  0  0  0  0
   29.1549   13.1177    7.1616 C   0  0  0  0  0  0  0  0  0  0  0  0
   30.2580   13.7102    8.0181 C   0  0  0  0  0  0  0  0  0  0  0  0
   32.5105   11.7032    6.1557 C   0  0  2  0  0  0  0  0  0  0  0  0
   33.5104   12.4700    5.3865 C   0  0  0  0  0  0  0  0  0  0  0  0
   33.3459   13.4141    4.6400 O   0  0  0  0  0  0  0  0  0  0  0  0
   34.8025   12.0139    5.5464 O   0  0  0  0  0  0  0  0  0  0  0  0
   32.1317   10.2214    5.8630 C   0  0  0  0  0  0  0  0  0  0  0  0
   33.3063   10.8471    7.0153 C   0  0  0  0  0  0  0  0  0  0  0  0
  1  2  1  0
  2  3  1  0
  4  3  1  6
  4  5  1  0
  5  6  1  0
  6  7  1  0
  7  8  2  0
  8  9  1  0
  9 10  2  0
 10 11  1  0
 11 12  2  0
 12 13  1  0
 13 14  2  0
 14 15  1  0
 15 16  1  0
 15 17  1  0
 14 18  1  0
 18 19  2  0
  6 20  1  0
 20 21  1  6
 21 22  2  0
 21 23  1  0
 20 24  1  0
 20 25  1  0
 24  4  1  0
 25  4  1  0
 19  7  1  0
 19 11  1  0
A    1
 C1 
A    2
 O1 
A    3
 C2 
A    4
 C3 
A    5
 C4 
A    6
 N1 
A    7
 C5 
A    8
 N2 
A    9
 C6 
A   10
 N3 
A   11
 C7 
A   12
 C8 
A   13
 C9 
A   14
 C10
A   15
 C11
A   16
 C12
A   17
 C13
A   18
 C14
A   19
 C15
A   20
 C16
A   21
 C17
A   22
 O2 
A   23
 O3 
A   24
 C18
A   25
 C19
M  END
>  <ref_pdb>  (755) 
Ax0310a

>  <ref_mols>  (755) 
Ax0446a,Ax1080a,Ax0812a,Ax0719a,Ax1140a,Ax0528a,Ax0310a

>  <original SMILES>  (755) 
COC[C@]12CN(c3ncnc4ccc(C(C)C)cc34)[C@](C(=O)O)(C1)C2

>  <rationale>  (755) 
info info set:screening_whole;hbond:S87+G127; hydroph_interaction:P107+Y89+Y90; 

>  <experiment>  (755) 
screening_whole

>  <cluster_label>  (755) 
3

>  <cluster_rank>  (755) 
412

>  <N_interactions>  (755) 
6

>  <∆∆G>  (755) 
-3.182739

>  <comRMSD>  (755) 
0.939456

>  <ROCS_TanimotoCombo>  (755) 
0.467

>  <ROCS_ShapeTanimoto>  (755) 
0.267

>  <ROCS_ColorTanimoto>  (755) 
0.2

$$$$
EN300_1294793
     RDKit          3D

 12 12  0  0  0  0  0  0  0  0999 V2000
   29.2717    7.4166    8.7208 C   0  0  0  0  0  0  0  0  0  0  0  0
   30.1059    8.5573    8.4220 C   0  0  0  0  0  0  0  0  0  0  0  0
   30.1301    9.0334    9.7306 C   0  0  0  0  0  0  0  0  0  0  0  0
   31.4595    8.3627    8.0929 O   0  0  0  0  0  0  0  0  0  0  0  0
   31.9735    9.3015    7.2321 C   0  0  0  0  0  0  0  0  0  0  0  0
   32.8949    8.8004    6.4324 N   0  0  0  0  0  0  0  0  0  0  0  0
   33.4703    9.5835    5.5693 C   0  0  0  0  0  0  0  0  0  0  0  0
   34.2987    9.0072    4.8775 O   0  0  0  0  0  0  0  0  0  0  0  0
   33.1205   11.0640    5.4560 C   0  0  0  0  0  0  0  0  0  0  0  0
   32.1395   11.5268    6.3308 C   0  0  0  0  0  0  0  0  0  0  0  0
   31.5339   10.6585    7.2424 C   0  0  0  0  0  0  0  0  0  0  0  0
   30.5466   11.1924    8.0880 N   0  0  0  0  0  0  0  0  0  0  0  0
  1  2  1  0
  2  3  1  0
  2  4  1  0
  4  5  1  0
  5  6  2  0
  6  7  1  0
  7  8  1  0
  7  9  2  0
  9 10  1  0
 10 11  2  0
 11 12  1  0
 11  5  1  0
A    1
 C1 
A    2
 C2 
A    3
 C3 
A    4
 O1 
A    5
 C4 
A    6
 N1 
A    7
 C5 
A    8
 O2 
A    9
 C6 
A   10
 C7 
A   11
 C8 
A   12
 N2 
M  END
>  <ref_pdb>  (756) 
Ax0310a

>  <ref_mols>  (756) 
Ax0446a,Ax1080a,Ax0812a,Ax0719a,Ax1140a,Ax0528a,Ax0310a

>  <original SMILES>  (756) 
CC(C)Oc1nc(O)ccc1N

>  <rationale>  (756) 
info info set:bb_densepocket2;hbond:S125; hydroph_interaction:P107+D109; 

>  <experiment>  (756) 
bb_densepocket2

>  <cluster_label>  (756) 
3

>  <cluster_rank>  (756) 
413

>  <N_interactions>  (756) 
3

>  <∆∆G>  (756) 
-2.879271

>  <comRMSD>  (756) 
0.651303

>  <ROCS_TanimotoCombo>  (756) 
0.659

>  <ROCS_ShapeTanimoto>  (756) 
0.221

>  <ROCS_ColorTanimoto>  (756) 
0.438

$$$$
Z857753866
     RDKit          3D

 18 19  0  0  0  0  0  0  0  0999 V2000
   26.8560   14.0689    6.9478 C   0  0  0  0  0  0  0  0  0  0  0  0
   28.0917   14.3849    7.6257 C   0  0  0  0  0  0  0  0  0  0  0  0
   29.0190   13.5210    7.7504 C   0  0  0  0  0  0  0  0  0  0  0  0
   30.0684   14.1691    8.4179 C   0  0  0  0  0  0  0  0  0  0  0  0
   31.3432   13.5450    8.7261 C   0  0  0  0  0  0  0  0  0  0  0  0
   30.9829   12.1690    8.5552 N   0  0  0  0  0  0  0  0  0  0  0  0
   30.9365   11.3480    7.1372 S   0  0  0  0  0  6  0  0  0  0  0  0
   30.2051   12.2126    6.2399 O   0  0  0  0  0  0  0  0  0  0  0  0
   30.5067   10.0534    7.5896 O   0  0  0  0  0  0  0  0  0  0  0  0
   32.5099   11.0629    6.4152 C   0  0  0  0  0  0  0  0  0  0  0  0
   32.8066    9.7265    6.1936 C   0  0  0  0  0  0  0  0  0  0  0  0
   34.1233    9.2927    5.5336 C   0  0  0  0  0  0  0  0  0  0  0  0
   35.0309   10.4675    5.1728 C   0  0  0  0  0  0  0  0  0  0  0  0
   34.6011   11.8620    5.4784 C   0  0  0  0  0  0  0  0  0  0  0  0
   33.3839   12.0821    6.0708 C   0  0  0  0  0  0  0  0  0  0  0  0
   33.1077   13.7111    6.3010 Cl  0  0  0  0  0  0  0  0  0  0  0  0
   29.6592   15.4964    8.7020 O   0  0  0  0  0  0  0  0  0  0  0  0
   28.3759   15.6175    8.1789 N   0  0  0  0  0  0  0  0  0  0  0  0
  1  2  1  0
  2  3  1  0
  3  4  2  0
  4  5  1  0
  5  6  1  0
  6  7  1  0
  7  8  2  0
  7  9  2  0
  7 10  1  0
 10 11  2  0
 11 12  1  0
 12 13  2  0
 13 14  1  0
 14 15  2  0
 15 16  1  0
  4 17  1  0
 17 18  1  0
 18  2  2  0
 15 10  1  0
A    1
 C1 
A    2
 C2 
A    3
 C3 
A    4
 C4 
A    5
 C5 
A    6
 N1 
A    7
 S1 
A    8
 O1 
A    9
 O2 
A   10
 C6 
A   11
 C7 
A   12
 C8 
A   13
 C9 
A   14
 C10
A   15
 C11
A   16
CL1 
A   17
 O3 
A   18
 N2 
M  END
>  <ref_pdb>  (757) 
Ax0310a

>  <ref_mols>  (757) 
Ax0446a,Ax1080a,Ax0812a,Ax0719a,Ax1140a,Ax0528a,Ax0310a

>  <original SMILES>  (757) 
Cc1cc(CNS(=O)(=O)c2ccccc2Cl)on1

>  <rationale>  (757) 
info info set:3d;hbond:S87+S125+G127; hydroph_interaction:Y89; 

>  <experiment>  (757) 
3d

>  <cluster_label>  (757) 
3

>  <cluster_rank>  (757) 
414

>  <N_interactions>  (757) 
4

>  <∆∆G>  (757) 
-1.85638

>  <comRMSD>  (757) 
0.960823

>  <ROCS_TanimotoCombo>  (757) 
0.335

>  <ROCS_ShapeTanimoto>  (757) 
0.201

>  <ROCS_ColorTanimoto>  (757) 
0.134

$$$$
EN300_26687072
     RDKit          3D

 21 23  0  0  0  0  0  0  0  0999 V2000
   34.9971   14.3040    5.8858 C   0  0  0  0  0  0  0  0  0  0  0  0
   34.7857   13.2364    4.9462 O   0  0  0  0  0  0  0  0  0  0  0  0
   34.1924   12.0986    5.4185 C   0  0  0  0  0  0  0  0  0  0  0  0
   34.7331   10.7567    5.1621 C   0  0  0  0  0  0  0  0  0  0  0  0
   33.9960    9.6051    5.7602 C   0  0  0  0  0  0  0  0  0  0  0  0
   32.7583    9.9097    6.5919 C   0  0  0  0  0  0  0  0  0  0  0  0
   32.1323    8.8430    7.1605 N   0  0  0  0  0  0  0  0  0  0  0  0
   31.0457    9.0884    7.9104 C   0  0  0  0  0  0  0  0  0  0  0  0
   30.3054    8.0223    8.6109 C   0  0  0  0  0  0  0  0  0  0  0  0
   30.5501   10.3441    8.0846 C   0  0  0  0  0  0  0  0  0  0  0  0
   31.1724   11.4178    7.4994 C   0  0  0  0  0  0  0  0  0  0  0  0
   30.6044   12.6658    7.6878 C   0  0  0  0  0  0  0  0  0  0  0  0
   30.4221   13.3501    6.6959 O   0  0  0  0  0  0  0  0  0  0  0  0
   30.2700   13.0172    8.9707 N   0  0  0  0  0  0  0  0  0  0  0  0
   29.6548   14.2484    9.4021 C   0  0  0  0  0  0  0  0  0  0  0  0
   30.6516   15.3319    9.7436 C   0  0  0  0  0  0  0  0  0  0  0  0
   31.3761   16.1845   10.0280 N   0  0  0  0  0  0  0  0  0  0  0  0
   28.2865   14.6808    8.9527 C   0  0  0  0  0  0  0  0  0  0  0  0
   28.4514   14.2592   10.3016 C   0  0  0  0  0  0  0  0  0  0  0  0
   32.3324   11.2386    6.7412 C   0  0  0  0  0  0  0  0  0  0  0  0
   33.0365   12.2791    6.1683 C   0  0  0  0  0  0  0  0  0  0  0  0
  1  2  1  0
  2  3  1  0
  3  4  2  0
  4  5  1  0
  5  6  2  0
  6  7  1  0
  7  8  2  0
  8  9  1  0
  8 10  1  0
 10 11  2  0
 11 12  1  0
 12 13  2  0
 12 14  1  0
 14 15  1  0
 15 16  1  0
 16 17  3  0
 15 18  1  0
 18 19  1  0
 11 20  1  0
 20 21  2  0
 21  3  1  0
 20  6  1  0
 19 15  1  0
A    1
 C1 
A    2
 O1 
A    3
 C2 
A    4
 C3 
A    5
 C4 
A    6
 C5 
A    7
 N1 
A    8
 C6 
A    9
 C7 
A   10
 C8 
A   11
 C9 
A   12
 C10
A   13
 O2 
A   14
 N2 
A   15
 C11
A   16
 C12
A   17
 N3 
A   18
 C13
A   19
 C14
A   20
 C15
A   21
 C16
M  END
>  <ref_pdb>  (758) 
Ax0310a

>  <ref_mols>  (758) 
Ax0446a,Ax1080a,Ax0812a,Ax0719a,Ax1140a,Ax0528a,Ax0310a

>  <original SMILES>  (758) 
COc1ccc2nc(C)cc(C(=O)NC3(C#N)CC3)c2c1

>  <rationale>  (758) 
info info set:bb_whole;hbond:S87+S125; hydroph_interaction:Y90+V124; 

>  <experiment>  (758) 
bb_whole

>  <cluster_label>  (758) 
3

>  <cluster_rank>  (758) 
415

>  <N_interactions>  (758) 
4

>  <∆∆G>  (758) 
-9.792761

>  <comRMSD>  (758) 
0.630011

>  <ROCS_TanimotoCombo>  (758) 
0.413

>  <ROCS_ShapeTanimoto>  (758) 
0.246

>  <ROCS_ColorTanimoto>  (758) 
0.167

$$$$
Z8718566560
     RDKit          3D

 22 24  0  0  0  0  0  0  0  0999 V2000
   34.5612   12.0825    4.0114 C   0  0  0  0  0  0  0  0  0  0  0  0
   34.1968   10.8123    4.7084 C   0  0  0  0  0  0  0  0  0  0  0  0
   34.8285    9.5878    4.5783 C   0  0  0  0  0  0  0  0  0  0  0  0
   34.1766    8.7055    5.3839 N   0  0  0  0  0  0  0  0  0  0  0  0
   33.1451    9.3080    6.0368 C   0  0  0  0  0  0  0  0  0  0  0  0
   32.3144    8.6891    6.9096 N   0  0  0  0  0  0  0  0  0  0  0  0
   31.3699    9.5028    7.4074 C   0  0  0  0  0  0  0  0  0  0  0  0
   31.2148   10.8467    7.0928 C   0  0  0  0  0  0  0  0  0  0  0  0
   30.1204   11.6441    7.6771 C   0  0  0  0  0  0  0  0  0  0  0  0
   28.8900   11.0940    8.0695 C   0  0  0  0  0  0  0  0  0  0  0  0
   27.8460   11.9545    8.6106 C   0  0  0  0  0  0  0  0  0  0  0  0
   28.0649   13.2927    8.7661 C   0  0  0  0  0  0  0  0  0  0  0  0
   29.2798   13.8013    8.3983 C   0  0  0  0  0  0  0  0  0  0  0  0
   29.5108   15.2042    8.6206 C   0  0  0  0  0  0  0  0  0  0  0  0
   28.8103   16.0293    8.0407 O   0  0  0  0  0  0  0  0  0  0  0  0
   30.5826   15.3749    9.5144 N   0  0  0  0  0  0  0  0  0  0  0  0
   31.3147   14.1820    9.7496 C   0  0  0  0  0  0  0  0  0  0  0  0
   31.2253   16.4834   10.1972 C   0  0  0  0  0  0  0  0  0  0  0  0
   30.2826   12.9932    7.8512 C   0  0  0  0  0  0  0  0  0  0  0  0
   31.4557   13.5081    7.4823 F   0  0  0  0  0  0  0  0  0  0  0  0
   32.1210   11.4210    6.1886 C   0  0  0  0  0  0  0  0  0  0  0  0
   33.1233   10.6241    5.6363 C   0  0  0  0  0  0  0  0  0  0  0  0
  1  2  1  0
  2  3  2  0
  3  4  1  0
  4  5  1  0
  5  6  2  0
  6  7  1  0
  7  8  2  0
  8  9  1  0
  9 10  2  0
 10 11  1  0
 11 12  2  0
 12 13  1  0
 13 14  1  0
 14 15  2  0
 14 16  1  0
 16 17  1  0
 16 18  1  0
 13 19  2  0
 19 20  1  0
  8 21  1  0
 21 22  2  0
 22  2  1  0
 22  5  1  0
 19  9  1  0
A    1
 C1 
A    2
 C2 
A    3
 C3 
A    4
 N1 
A    5
 C4 
A    6
 N2 
A    7
 C5 
A    8
 C6 
A    9
 C7 
A   10
 C8 
A   11
 C9 
A   12
 C10
A   13
 C11
A   14
 C12
A   15
 O1 
A   16
 N3 
A   17
 C13
A   18
 C14
A   19
 C15
A   20
 F1 
A   21
 C16
A   22
 C17
M  END
>  <ref_pdb>  (759) 
Ax0310a

>  <ref_mols>  (759) 
Ax0446a,Ax1080a,Ax0812a,Ax0719a,Ax1140a,Ax0528a,Ax0310a

>  <original SMILES>  (759) 
Cc1c[nH]c2ncc(-c3cccc(C(=O)N(C)C)c3F)cc12

>  <rationale>  (759) 
info info set:screening_pocket;hbond:S87+Y90; hydroph_interaction:P107; 

>  <experiment>  (759) 
screening_pocket

>  <cluster_label>  (759) 
3

>  <cluster_rank>  (759) 
416

>  <N_interactions>  (759) 
3

>  <∆∆G>  (759) 
-6.113447

>  <comRMSD>  (759) 
0.562513

>  <ROCS_TanimotoCombo>  (759) 
0.645

>  <ROCS_ShapeTanimoto>  (759) 
0.267

>  <ROCS_ColorTanimoto>  (759) 
0.377

$$$$
EN300_222625
     RDKit          3D

 12 12  0  0  0  0  0  0  0  0999 V2000
   35.2542   14.8515    8.9312 N   0  0  0  0  0  0  0  0  0  0  0  0
   33.8672   13.9721    8.6839 S   0  0  0  0  0  6  0  0  0  0  0  0
   34.2456   12.7595    9.2875 O   0  0  0  0  0  0  0  0  0  0  0  0
   32.7344   14.7250    9.1854 O   0  0  0  0  0  0  0  0  0  0  0  0
   33.8324   13.7289    6.9035 C   0  0  0  0  0  0  0  0  0  0  0  0
   32.5371   13.0741    6.4413 C   0  0  0  0  0  0  0  0  0  0  0  0
   32.4692   11.6959    7.0328 C   0  0  0  0  0  0  0  0  0  0  0  0
   31.0437   11.2481    7.2817 C   0  0  0  0  0  0  0  0  0  0  0  0
   30.9147    9.9278    7.9334 C   0  0  0  0  0  0  0  0  0  0  0  0
   31.9764    9.0198    7.6462 O   0  0  0  0  0  0  0  0  0  0  0  0
   32.7218    9.2760    6.4589 C   0  0  0  0  0  0  0  0  0  0  0  0
   33.1556   10.6922    6.1538 C   0  0  0  0  0  0  0  0  0  0  0  0
  1  2  1  0
  2  3  2  0
  2  4  2  0
  2  5  1  0
  5  6  1  0
  6  7  1  0
  7  8  1  0
  8  9  1  0
  9 10  1  0
 10 11  1  0
 11 12  1  0
 12  7  1  0
A    1
 N1 
A    2
 S1 
A    3
 O1 
A    4
 O2 
A    5
 C1 
A    6
 C2 
A    7
 C3 
A    8
 C4 
A    9
 C5 
A   10
 O3 
A   11
 C6 
A   12
 C7 
M  END
>  <ref_pdb>  (760) 
Ax0310a

>  <ref_mols>  (760) 
Ax0446a,Ax1080a,Ax0812a,Ax0719a,Ax1140a,Ax0528a,Ax0310a

>  <original SMILES>  (760) 
NS(=O)(=O)CCC1CCOCC1

>  <rationale>  (760) 
info info set:sulfonimide_whole;hbond:S87+G127+E85; 

>  <experiment>  (760) 
sulfonimide_whole

>  <cluster_label>  (760) 
3

>  <cluster_rank>  (760) 
417

>  <N_interactions>  (760) 
3

>  <∆∆G>  (760) 
-2.637982

>  <comRMSD>  (760) 
0.774909

>  <ROCS_TanimotoCombo>  (760) 
0.336

>  <ROCS_ShapeTanimoto>  (760) 
0.151

>  <ROCS_ColorTanimoto>  (760) 
0.184

$$$$
Z7626832826
     RDKit          3D

 23 26  0  0  0  0  0  0  0  0999 V2000
   27.6476   12.7602    6.9222 C   0  0  0  0  0  0  0  0  0  0  0  0
   28.7873   12.7116    7.9424 C   0  0  1  0  0  0  0  0  0  0  0  0
   30.0075   12.2990    7.3878 N   0  0  0  0  0  0  0  0  0  0  0  0
   30.6038   11.2105    7.8538 C   0  0  0  0  0  0  0  0  0  0  0  0
   30.3088   10.5824    8.8461 O   0  0  0  0  0  0  0  0  0  0  0  0
   31.6922   10.7592    6.9956 C   0  0  0  0  0  0  0  0  0  0  0  0
   31.7882    9.2983    7.2387 C   0  0  0  0  0  0  0  0  0  0  0  0
   32.6431    8.5184    6.6369 N   0  0  0  0  0  0  0  0  0  0  0  0
   33.4078    9.2209    5.7622 C   0  0  0  0  0  0  0  0  0  0  0  0
   34.3667    8.6797    4.9722 N   0  0  0  0  0  0  0  0  0  0  0  0
   34.9479    9.6567    4.2044 C   0  0  0  0  0  0  0  0  0  0  0  0
   36.0635    9.4213    3.1783 C   0  0  0  0  0  0  0  0  0  0  0  0
   36.7509   10.7132    3.3560 C   0  0  0  0  0  0  0  0  0  0  0  0
   36.3137   10.4603    1.9647 C   0  0  0  0  0  0  0  0  0  0  0  0
   34.3533   10.8666    4.5105 C   0  0  0  0  0  0  0  0  0  0  0  0
   33.3921   10.5759    5.4773 C   0  0  0  0  0  0  0  0  0  0  0  0
   32.5076   11.4254    6.1115 C   0  0  0  0  0  0  0  0  0  0  0  0
   29.0775   14.0446    8.3330 C   0  0  0  0  0  0  0  0  0  0  0  0
   29.8421   14.2833    9.4534 C   0  0  0  0  0  0  0  0  0  0  0  0
   30.0757   15.5422    9.7733 C   0  0  0  0  0  0  0  0  0  0  0  0
   29.5283   16.4637    8.9445 C   0  0  0  0  0  0  0  0  0  0  0  0
   28.8329   16.1213    7.8798 C   0  0  0  0  0  0  0  0  0  0  0  0
   28.5536   14.9238    7.5114 N   0  0  0  0  0  0  0  0  0  0  0  0
  2  1  1  6
  2  3  1  0
  3  4  1  0
  4  5  2  0
  4  6  1  0
  6  7  2  0
  7  8  1  0
  8  9  2  0
  9 10  1  0
 10 11  1  0
 11 12  1  0
 12 13  1  0
 13 14  1  0
 11 15  2  0
 15 16  1  0
 16 17  2  0
  2 18  1  0
 18 19  2  0
 19 20  1  0
 20 21  2  0
 21 22  1  0
 22 23  2  0
 17  6  1  0
 23 18  1  0
 16  9  1  0
 14 12  1  0
A    1
 C1 
A    2
 C2 
A    3
 N1 
A    4
 C3 
A    5
 O1 
A    6
 C4 
A    7
 C5 
A    8
 N2 
A    9
 C6 
A   10
 N3 
A   11
 C7 
A   12
 C8 
A   13
 C9 
A   14
 C10
A   15
 C11
A   16
 C12
A   17
 C13
A   18
 C14
A   19
 C15
A   20
 C16
A   21
 C17
A   22
 C18
A   23
 N4 
M  END
>  <ref_pdb>  (761) 
Ax0310a

>  <ref_mols>  (761) 
Ax0446a,Ax1080a,Ax0812a,Ax0719a,Ax1140a,Ax0528a,Ax0310a

>  <original SMILES>  (761) 
C[C@@H](NC(=O)c1cnc2[nH]c(C3CC3)cc2c1)c1ccccn1

>  <rationale>  (761) 
info info set:screening_pocket;hydroph_interaction:P107+Y90; pistack:H21; 

>  <experiment>  (761) 
screening_pocket

>  <cluster_label>  (761) 
3

>  <cluster_rank>  (761) 
418

>  <N_interactions>  (761) 
4

>  <∆∆G>  (761) 
-1.15075

>  <comRMSD>  (761) 
0.935086

>  <ROCS_TanimotoCombo>  (761) 
0.663

>  <ROCS_ShapeTanimoto>  (761) 
0.258

>  <ROCS_ColorTanimoto>  (761) 
0.406

$$$$
EN300_39860266
     RDKit          3D

 14 15  0  0  0  0  0  0  0  0999 V2000
   35.4459   12.7549    4.4874 N   0  0  0  0  0  0  0  0  0  0  0  0
   34.5643   11.9319    5.1326 C   0  0  0  0  0  0  0  0  0  0  0  0
   34.6110   10.7809    5.1539 C   0  0  0  0  0  0  0  0  0  0  0  0
   34.0663    9.6025    5.5942 C   0  0  0  0  0  0  0  0  0  0  0  0
   32.9741    9.9412    6.3564 N   0  0  0  0  0  0  0  0  0  0  0  0
   32.0732    9.1685    7.0519 N   0  0  0  0  0  0  0  0  0  0  0  0
   31.2721   10.1032    7.5537 C   0  0  0  0  0  0  0  0  0  0  0  0
   31.6032   11.3885    7.2228 C   0  0  0  0  0  0  0  0  0  0  0  0
   30.7649   12.7877    7.6895 S   0  0  0  0  0  6  0  0  0  0  0  0
   29.3180   12.3583    8.3905 N   0  0  0  0  0  0  0  0  0  0  0  0
   31.6060   13.4763    8.6436 O   0  0  0  0  0  0  0  0  0  0  0  0
   30.3660   13.3600    6.4303 O   0  0  0  0  0  0  0  0  0  0  0  0
   32.7345   11.3550    6.4382 C   0  0  0  0  0  0  0  0  0  0  0  0
   33.5279   12.3728    5.8234 N   0  0  0  0  0  0  0  0  0  0  0  0
  1  2  1  0
  2  3  1  0
  3  4  2  0
  4  5  1  0
  5  6  1  0
  6  7  2  0
  7  8  1  0
  8  9  1  0
  9 10  1  0
  9 11  2  0
  9 12  2  0
  8 13  2  0
 13 14  1  0
 14  2  2  0
 13  5  1  0
A    1
 N1 
A    2
 C1 
A    3
 C2 
A    4
 C3 
A    5
 N2 
A    6
 N3 
A    7
 C4 
A    8
 C5 
A    9
 S1 
A   10
 N4 
A   11
 O1 
A   12
 O2 
A   13
 C6 
A   14
 N5 
M  END
>  <ref_pdb>  (762) 
Ax0310a

>  <ref_mols>  (762) 
Ax0446a,Ax1080a,Ax0812a,Ax0719a,Ax1140a,Ax0528a,Ax0310a

>  <original SMILES>  (762) 
Nc1ccn2ncc(S(N)(=O)=O)c2n1

>  <rationale>  (762) 
info info set:sulfonimide_whole;hbond:S87+S125; 

>  <experiment>  (762) 
sulfonimide_whole

>  <cluster_label>  (762) 
3

>  <cluster_rank>  (762) 
419

>  <N_interactions>  (762) 
2

>  <∆∆G>  (762) 
-4.395797

>  <comRMSD>  (762) 
0.431194

>  <ROCS_TanimotoCombo>  (762) 
0.345

>  <ROCS_ShapeTanimoto>  (762) 
0.196

>  <ROCS_ColorTanimoto>  (762) 
0.15

$$$$
EN300_122004
     RDKit          3D

 14 14  0  0  0  0  0  0  0  0999 V2000
   29.2911   14.8281   10.9011 C   0  0  0  0  0  0  0  0  0  0  0  0
   29.7338   15.0406    9.1878 S   0  0  0  0  0  6  0  0  0  0  0  0
   31.1546   14.7846    9.1446 O   0  0  0  0  0  0  0  0  0  0  0  0
   29.1090   16.1895    8.5724 O   0  0  0  0  0  0  0  0  0  0  0  0
   29.0232   13.7367    8.4479 N   0  0  0  0  0  0  0  0  0  0  0  0
   29.8553   12.6462    8.5483 C   0  0  0  0  0  0  0  0  0  0  0  0
   30.4985   12.3470    7.4116 C   0  0  0  0  0  0  0  0  0  0  0  0
   30.1995   13.2606    6.3456 O   0  0  0  0  0  0  0  0  0  0  0  0
   31.4191   11.2931    7.0152 C   0  0  0  0  0  0  0  0  0  0  0  0
   32.5359   11.5209    6.1976 C   0  0  0  0  0  0  0  0  0  0  0  0
   33.3692   10.4647    5.8510 C   0  0  0  0  0  0  0  0  0  0  0  0
   33.0641    9.2145    6.3287 C   0  0  0  0  0  0  0  0  0  0  0  0
   31.9739    8.9732    7.1397 C   0  0  0  0  0  0  0  0  0  0  0  0
   31.1529   10.0105    7.4859 C   0  0  0  0  0  0  0  0  0  0  0  0
  1  2  1  0
  2  3  2  0
  2  4  2  0
  2  5  1  0
  5  6  1  0
  6  7  1  0
  7  8  2  0
  7  9  1  0
  9 10  2  0
 10 11  1  0
 11 12  2  0
 12 13  1  0
 13 14  2  0
 14  9  1  0
A    1
 C1 
A    2
 S1 
A    3
 O1 
A    4
 O2 
A    5
 N1 
A    6
 C2 
A    7
 C3 
A    8
 O3 
A    9
 C4 
A   10
 C5 
A   11
 C6 
A   12
 C7 
A   13
 C8 
A   14
 C9 
M  END
>  <ref_pdb>  (763) 
Ax0310a

>  <ref_mols>  (763) 
Ax0446a,Ax1080a,Ax0812a,Ax0719a,Ax1140a,Ax0528a,Ax0310a

>  <original SMILES>  (763) 
CS(=O)(=O)NCC(=O)c1ccccc1

>  <rationale>  (763) 
info info set:sulfonimide_whole;hbond:S87+Y90; hydroph_interaction:P107; 

>  <experiment>  (763) 
sulfonimide_whole

>  <cluster_label>  (763) 
3

>  <cluster_rank>  (763) 
420

>  <N_interactions>  (763) 
3

>  <∆∆G>  (763) 
-7.299783

>  <comRMSD>  (763) 
0.748599

>  <ROCS_TanimotoCombo>  (763) 
0.343

>  <ROCS_ShapeTanimoto>  (763) 
0.188

>  <ROCS_ColorTanimoto>  (763) 
0.155

$$$$
Z1961194937
     RDKit          3D

 17 18  0  0  0  0  0  0  0  0999 V2000
   32.2454   14.9822   10.0544 C   0  0  0  0  0  0  0  0  0  0  0  0
   31.7325   14.0696    9.0797 O   0  0  0  0  0  0  0  0  0  0  0  0
   30.4237   14.2447    8.7020 C   0  0  0  0  0  0  0  0  0  0  0  0
   29.4750   14.9535    9.3967 C   0  0  0  0  0  0  0  0  0  0  0  0
   28.1899   15.0517    8.8761 C   0  0  0  0  0  0  0  0  0  0  0  0
   27.0615   15.9207    9.7349 Cl  0  0  0  0  0  0  0  0  0  0  0  0
   27.8003   14.4660    7.6836 C   0  0  0  0  0  0  0  0  0  0  0  0
   28.7189   13.7537    6.9652 C   0  0  0  0  0  0  0  0  0  0  0  0
   29.9759   13.6817    7.5103 C   0  0  0  0  0  0  0  0  0  0  0  0
   30.6527   12.8476    6.4451 C   0  0  0  0  0  0  0  0  0  0  0  0
   31.4195   11.8420    7.1559 N   0  0  0  0  0  0  0  0  0  0  0  0
   30.5081   11.0035    7.9398 C   0  0  0  0  0  0  0  0  0  0  0  0
   30.8134    9.5077    8.0288 C   0  0  0  0  0  0  0  0  0  0  0  0
   31.9212    9.0435    7.2332 N   0  0  0  0  0  0  0  0  0  0  0  0
   32.7791    9.8444    6.5282 C   0  0  0  0  0  0  0  0  0  0  0  0
   33.8057    9.3692    6.0654 O   0  0  0  0  0  0  0  0  0  0  0  0
   32.4790   11.3102    6.3239 C   0  0  0  0  0  0  0  0  0  0  0  0
  1  2  1  0
  2  3  1  0
  3  4  2  0
  4  5  1  0
  5  6  1  0
  5  7  2  0
  7  8  1  0
  8  9  2  0
  9 10  1  0
 10 11  1  0
 11 12  1  0
 12 13  1  0
 13 14  1  0
 14 15  1  0
 15 16  2  0
 15 17  1  0
  9  3  1  0
 17 11  1  0
A    1
 C1 
A    2
 O1 
A    3
 C2 
A    4
 C3 
A    5
 C4 
A    6
CL1 
A    7
 C5 
A    8
 C6 
A    9
 C7 
A   10
 C8 
A   11
 N1 
A   12
 C9 
A   13
 C10
A   14
 N2 
A   15
 C11
A   16
 O2 
A   17
 C12
M  END
>  <ref_pdb>  (764) 
Ax0310a

>  <ref_mols>  (764) 
Ax0446a,Ax1080a,Ax0812a,Ax0719a,Ax1140a,Ax0528a,Ax0310a

>  <original SMILES>  (764) 
COc1cc(Cl)ccc1CN1CCNC(=O)C1

>  <rationale>  (764) 
info info set:3d;hbond:S87+G127; hydroph_interaction:Y90; 

>  <experiment>  (764) 
3d

>  <cluster_label>  (764) 
3

>  <cluster_rank>  (764) 
421

>  <N_interactions>  (764) 
3

>  <∆∆G>  (764) 
-3.146003

>  <comRMSD>  (764) 
0.555261

>  <ROCS_TanimotoCombo>  (764) 
0.33

>  <ROCS_ShapeTanimoto>  (764) 
0.203

>  <ROCS_ColorTanimoto>  (764) 
0.127

$$$$
EN300_1180195
     RDKit          3D

 20 22  0  0  0  0  0  0  0  0999 V2000
   34.7609    8.7420    5.1232 C   0  0  0  0  0  0  0  0  0  0  0  0
   33.9183    9.8419    5.3899 N   0  0  0  0  0  0  0  0  0  0  0  0
   34.2055   10.9977    4.6984 N   0  0  0  0  0  0  0  0  0  0  0  0
   33.2694   11.8449    5.0938 C   0  0  0  0  0  0  0  0  0  0  0  0
   33.1192   13.6117    4.4779 Br  0  0  0  0  0  0  0  0  0  0  0  0
   32.4125   11.1147    6.0752 C   0  0  0  0  0  0  0  0  0  0  0  0
   31.2398   11.6872    6.7459 C   0  0  0  0  0  0  0  0  0  0  0  0
   30.8317   12.9575    6.4715 O   0  0  0  0  0  0  0  0  0  0  0  0
   30.0750   13.5089    7.3971 C   0  0  0  0  0  0  0  0  0  0  0  0
   28.6327   13.7740    6.9178 C   0  0  0  0  0  0  0  0  0  0  0  0
   27.6733   14.4297    7.9318 C   0  0  0  0  0  0  0  0  0  0  0  0
   28.2296   14.7636    9.3260 C   0  0  0  0  0  0  0  0  0  0  0  0
   29.6590   14.4323    9.5962 C   0  0  0  0  0  0  0  0  0  0  0  0
   30.1053   14.8262   10.9954 C   0  0  0  0  0  0  0  0  0  0  0  0
   31.2035   15.3509   11.1437 O   0  0  0  0  0  0  0  0  0  0  0  0
   30.5950   13.7986    8.6381 C   0  0  0  0  0  0  0  0  0  0  0  0
   30.6332   10.8452    7.6147 N   0  0  0  0  0  0  0  0  0  0  0  0
   31.1611    9.5887    7.7380 C   0  0  0  0  0  0  0  0  0  0  0  0
   32.2373    9.0322    7.0993 N   0  0  0  0  0  0  0  0  0  0  0  0
   32.8335    9.8937    6.2553 C   0  0  0  0  0  0  0  0  0  0  0  0
  1  2  1  0
  2  3  1  0
  3  4  2  0
  4  5  1  0
  4  6  1  0
  6  7  2  0
  7  8  1  0
  8  9  1  0
  9 10  2  0
 10 11  1  0
 11 12  2  0
 12 13  1  0
 13 14  1  0
 14 15  2  0
 13 16  2  0
  7 17  1  0
 17 18  2  0
 18 19  1  0
 19 20  2  0
 20  2  1  0
 20  6  1  0
 16  9  1  0
A    1
 C1 
A    2
 N1 
A    3
 N2 
A    4
 C2 
A    5
BR1 
A    6
 C3 
A    7
 C4 
A    8
 O1 
A    9
 C5 
A   10
 C6 
A   11
 C7 
A   12
 C8 
A   13
 C9 
A   14
 C10
A   15
 O2 
A   16
 C11
A   17
 N3 
A   18
 C12
A   19
 N4 
A   20
 C13
M  END
>  <ref_pdb>  (765) 
Ax0310a

>  <ref_mols>  (765) 
Ax0446a,Ax1080a,Ax0812a,Ax0719a,Ax1140a,Ax0528a,Ax0310a

>  <original SMILES>  (765) 
Cn1nc(Br)c2c(Oc3cccc(C=O)c3)ncnc21

>  <rationale>  (765) 
info info set:bb_whole;hbond:S87; hydroph_interaction:P107+Y90; 

>  <experiment>  (765) 
bb_whole

>  <cluster_label>  (765) 
3

>  <cluster_rank>  (765) 
422

>  <N_interactions>  (765) 
3

>  <∆∆G>  (765) 
-5.945655

>  <comRMSD>  (765) 
0.616388

>  <ROCS_TanimotoCombo>  (765) 
0.419

>  <ROCS_ShapeTanimoto>  (765) 
0.235

>  <ROCS_ColorTanimoto>  (765) 
0.184

$$$$
Z17845026
     RDKit          3D

 14 15  0  0  0  0  0  0  0  0999 V2000
   28.6860   13.7484    6.3783 C   0  0  0  0  0  0  0  0  0  0  0  0
   28.7253   13.1945    8.0627 S   0  0  0  0  0  0  0  0  0  0  0  0
   30.3243   13.6671    8.5368 C   0  0  0  0  0  0  0  0  0  0  0  0
   30.6243   14.7905    9.2265 N   0  0  0  0  0  0  0  0  0  0  0  0
   31.9786   14.8136    9.4183 N   0  0  0  0  0  0  0  0  0  0  0  0
   32.4727   13.7424    8.8551 C   0  0  0  0  0  0  0  0  0  0  0  0
   31.4805   12.9688    8.2854 N   0  0  0  0  0  0  0  0  0  0  0  0
   31.7431   11.7429    7.6447 C   0  0  0  0  0  0  0  0  0  0  0  0
   31.0660   10.6144    8.1645 C   0  0  0  0  0  0  0  0  0  0  0  0
   31.2733    9.3358    7.6710 C   0  0  0  0  0  0  0  0  0  0  0  0
   32.2017    9.1798    6.5996 C   0  0  0  0  0  0  0  0  0  0  0  0
   32.8591   10.2302    6.0473 C   0  0  0  0  0  0  0  0  0  0  0  0
   32.6451   11.6321    6.5706 C   0  0  0  0  0  0  0  0  0  0  0  0
   33.4263   12.7244    5.8964 C   0  0  0  0  0  0  0  0  0  0  0  0
  1  2  1  0
  2  3  1  0
  3  4  2  0
  4  5  1  0
  5  6  2  0
  6  7  1  0
  7  8  1  0
  8  9  2  0
  9 10  1  0
 10 11  2  0
 11 12  1  0
 12 13  2  0
 13 14  1  0
  7  3  1  0
 13  8  1  0
A    1
 C1 
A    2
 S1 
A    3
 C2 
A    4
 N1 
A    5
 N2 
A    6
 C3 
A    7
 N3 
A    8
 C4 
A    9
 C5 
A   10
 C6 
A   11
 C7 
A   12
 C8 
A   13
 C9 
A   14
 C10
M  END
>  <ref_pdb>  (766) 
Ax0310a

>  <ref_mols>  (766) 
Ax0446a,Ax1080a,Ax0812a,Ax0719a,Ax1140a,Ax0528a,Ax0310a

>  <original SMILES>  (766) 
CSc1nncn1-c1ccccc1C

>  <rationale>  (766) 
info info set:3d;hbond:S87; hydroph_interaction:P107; 

>  <experiment>  (766) 
3d

>  <cluster_label>  (766) 
3

>  <cluster_rank>  (766) 
423

>  <N_interactions>  (766) 
2

>  <∆∆G>  (766) 
-8.251649

>  <comRMSD>  (766) 
0.434316

>  <ROCS_TanimotoCombo>  (766) 
0.316

>  <ROCS_ShapeTanimoto>  (766) 
0.199

>  <ROCS_ColorTanimoto>  (766) 
0.117

$$$$
EN300_1458430
     RDKit          3D

 16 16  0  0  0  0  0  0  0  0999 V2000
   30.3953   13.1380    5.8623 C   0  0  0  0  0  0  0  0  0  0  0  0
   31.3654   12.5167    6.8695 C   0  0  0  0  0  0  0  0  0  0  0  0
   32.4339   13.4124    7.4566 C   0  0  0  0  0  0  0  0  0  0  0  0
   32.1527   11.3122    6.3669 C   0  0  0  0  0  0  0  0  0  0  0  0
   33.2395   11.2311    5.0322 S   0  0  0  0  0  0  0  0  0  0  0  0
   33.5308    9.5850    5.3964 C   0  0  0  0  0  0  0  0  0  0  0  0
   34.3770    8.8068    4.6822 N   0  0  0  0  0  0  0  0  0  0  0  0
   32.8835    9.1243    6.4125 N   0  0  0  0  0  0  0  0  0  0  0  0
   32.1085   10.1170    6.9548 C   0  0  0  0  0  0  0  0  0  0  0  0
   31.2632    9.9186    8.1425 C   0  0  0  0  0  0  0  0  0  0  0  0
   30.6782   10.8539    8.6564 O   0  0  0  0  0  0  0  0  0  0  0  0
   31.2011    8.6925    8.6011 O   0  0  0  0  0  0  0  0  0  0  0  0
   29.9209    8.5776    9.1333 C   0  0  0  0  0  0  0  0  0  0  0  0
   29.4007    7.3787    8.5992 C   0  0  0  0  0  0  0  0  0  0  0  0
   29.8131    8.0516   10.4298 C   0  0  0  0  0  0  0  0  0  0  0  0
   28.9851    9.6883    8.7278 C   0  0  0  0  0  0  0  0  0  0  0  0
  1  2  1  0
  2  3  1  0
  2  4  1  0
  4  5  1  0
  5  6  1  0
  6  7  1  0
  6  8  2  0
  8  9  1  0
  9 10  1  0
 10 11  2  0
 10 12  1  0
 12 13  1  0
 13 14  1  0
 13 15  1  0
 13 16  1  0
  9  4  2  0
A    1
 C1 
A    2
 C2 
A    3
 C3 
A    4
 C4 
A    5
 S1 
A    6
 C5 
A    7
 N1 
A    8
 N2 
A    9
 C6 
A   10
 C7 
A   11
 O1 
A   12
 O2 
A   13
 C8 
A   14
 C9 
A   15
 C10
A   16
 C11
M  END
>  <ref_pdb>  (767) 
Ax0310a

>  <ref_mols>  (767) 
Ax0446a,Ax1080a,Ax0812a,Ax0719a,Ax1140a,Ax0528a,Ax0310a

>  <original SMILES>  (767) 
CC(C)c1sc(N)nc1C(=O)OC(C)(C)C

>  <rationale>  (767) 
info info set:bb_densepocket2;hbond:S105; hydroph_interaction:P107+V124+D109; 

>  <experiment>  (767) 
bb_densepocket2

>  <cluster_label>  (767) 
3

>  <cluster_rank>  (767) 
424

>  <N_interactions>  (767) 
4

>  <∆∆G>  (767) 
-4.420823

>  <comRMSD>  (767) 
0.671864

>  <ROCS_TanimotoCombo>  (767) 
0.622

>  <ROCS_ShapeTanimoto>  (767) 
0.222

>  <ROCS_ColorTanimoto>  (767) 
0.401

$$$$
EN300_1622344
     RDKit          3D

 11 11  0  0  0  0  0  0  0  0999 V2000
   29.2250    8.0770    8.4769 C   0  0  0  0  0  0  0  0  0  0  0  0
   30.5715    7.7628    8.5128 C   0  0  0  0  0  0  0  0  0  0  0  0
   31.2207    8.9640    8.6525 C   0  0  0  0  0  0  0  0  0  0  0  0
   31.6967    9.7466    7.5097 C   0  0  0  0  0  0  0  0  0  0  0  0
   32.5199    9.0481    6.7147 N   0  0  0  0  0  0  0  0  0  0  0  0
   33.0446    9.6598    5.6450 C   0  0  0  0  0  0  0  0  0  0  0  0
   32.7831   11.1015    5.2475 C   0  0  0  0  0  0  0  0  0  0  0  0
   33.4820   11.8085    3.8555 Cl  0  0  0  0  0  0  0  0  0  0  0  0
   31.9246   11.7957    6.0975 C   0  0  0  0  0  0  0  0  0  0  0  0
   31.2804   11.2102    7.3196 C   0  0  0  0  0  0  0  0  0  0  0  0
   30.4205   11.9753    8.1354 N   0  0  0  0  0  0  0  0  0  0  0  0
  1  2  1  0
  2  3  1  0
  3  4  1  0
  4  5  2  0
  5  6  1  0
  6  7  2  0
  7  8  1  0
  7  9  1  0
  9 10  2  0
 10 11  1  0
 10  4  1  0
A    1
 C1 
A    2
 C2 
A    3
 C3 
A    4
 C4 
A    5
 N1 
A    6
 C5 
A    7
 C6 
A    8
CL1 
A    9
 C7 
A   10
 C8 
A   11
 N2 
M  END
>  <ref_pdb>  (768) 
Ax0310a

>  <ref_mols>  (768) 
Ax0446a,Ax1080a,Ax0812a,Ax0719a,Ax1140a,Ax0528a,Ax0310a

>  <original SMILES>  (768) 
CCCc1ncc(Cl)cc1N

>  <rationale>  (768) 
info info set:bb_densepocket2;hbond:S125; hydroph_interaction:P107+V124+D109; 

>  <experiment>  (768) 
bb_densepocket2

>  <cluster_label>  (768) 
3

>  <cluster_rank>  (768) 
425

>  <N_interactions>  (768) 
4

>  <∆∆G>  (768) 
-0.038503

>  <comRMSD>  (768) 
0.754241

>  <ROCS_TanimotoCombo>  (768) 
0.637

>  <ROCS_ShapeTanimoto>  (768) 
0.182

>  <ROCS_ColorTanimoto>  (768) 
0.455

$$$$
EN300_41728
     RDKit          3D

 15 15  0  0  0  0  0  0  0  0999 V2000
   34.1487   10.8519    3.1344 C   0  0  0  0  0  0  0  0  0  0  0  0
   33.3116   11.3466    4.1765 O   0  0  0  0  0  0  0  0  0  0  0  0
   33.6109   10.6958    5.3345 C   0  0  0  0  0  0  0  0  0  0  0  0
   34.6483   10.0894    5.5231 O   0  0  0  0  0  0  0  0  0  0  0  0
   32.5993   10.7602    6.3031 C   0  0  0  0  0  0  0  0  0  0  0  0
   31.9799   12.0608    6.6668 C   0  0  0  0  0  0  0  0  0  0  0  0
   30.8943   12.1004    7.6875 C   0  0  0  0  0  0  0  0  0  0  0  0
   30.1454   13.6461    8.1117 S   0  0  0  0  0  6  0  0  0  0  0  0
   28.7967   13.2924    9.0552 N   0  0  0  0  0  0  0  0  0  0  0  0
   31.1521   14.4205    8.8850 O   0  0  0  0  0  0  0  0  0  0  0  0
   29.5860   14.1253    6.8736 O   0  0  0  0  0  0  0  0  0  0  0  0
   30.4887   10.8483    8.2925 C   0  0  0  0  0  0  0  0  0  0  0  0
   31.1292    9.6849    7.8945 C   0  0  0  0  0  0  0  0  0  0  0  0
   32.1411    9.6052    6.9463 C   0  0  0  0  0  0  0  0  0  0  0  0
   32.6065    8.3689    6.7205 O   0  0  0  0  0  0  0  0  0  0  0  0
  1  2  1  0
  2  3  1  0
  3  4  2  0
  3  5  1  0
  5  6  2  0
  6  7  1  0
  7  8  1  0
  8  9  1  0
  8 10  2  0
  8 11  2  0
  7 12  2  0
 12 13  1  0
 13 14  2  0
 14 15  1  0
 14  5  1  0
A    1
 C1 
A    2
 O1 
A    3
 C2 
A    4
 O2 
A    5
 C3 
A    6
 C4 
A    7
 C5 
A    8
 S1 
A    9
 N1 
A   10
 O3 
A   11
 O4 
A   12
 C6 
A   13
 C7 
A   14
 C8 
A   15
 O5 
M  END
>  <ref_pdb>  (769) 
Ax0310a

>  <ref_mols>  (769) 
Ax0446a,Ax1080a,Ax0812a,Ax0719a,Ax1140a,Ax0528a,Ax0310a

>  <original SMILES>  (769) 
COC(=O)c1cc(S(N)(=O)=O)ccc1O

>  <rationale>  (769) 
info info set:sulfonimide_whole;hbond:S87+S105+S125; hydroph_interaction:P107; 

>  <experiment>  (769) 
sulfonimide_whole

>  <cluster_label>  (769) 
3

>  <cluster_rank>  (769) 
426

>  <N_interactions>  (769) 
4

>  <∆∆G>  (769) 
-5.80252

>  <comRMSD>  (769) 
0.481548

>  <ROCS_TanimotoCombo>  (769) 
0.342

>  <ROCS_ShapeTanimoto>  (769) 
0.193

>  <ROCS_ColorTanimoto>  (769) 
0.149

$$$$
EN300_23822
     RDKit          3D

 17 18  0  0  0  0  0  0  0  0999 V2000
   34.9526   14.6854    7.7576 N   0  0  0  0  0  0  0  0  0  0  0  0
   34.4558   13.5765    8.9382 S   0  0  0  0  0  6  0  0  0  0  0  0
   33.8874   12.5228    8.1485 O   0  0  0  0  0  0  0  0  0  0  0  0
   33.6067   14.3377    9.8087 O   0  0  0  0  0  0  0  0  0  0  0  0
   35.9789   13.1017    9.7866 C   0  0  0  0  0  0  0  0  0  0  0  0
   37.1743   13.9642    9.4776 C   0  0  0  0  0  0  0  0  0  0  0  0
   38.5146   13.6289   10.1772 C   0  0  0  0  0  0  0  0  0  0  0  0
   38.5239   12.5767   11.0191 C   0  0  0  0  0  0  0  0  0  0  0  0
   37.4534   11.9493   11.1568 C   0  0  0  0  0  0  0  0  0  0  0  0
   36.2093   12.0229   10.6949 C   0  0  0  0  0  0  0  0  0  0  0  0
   37.1886   10.7858   11.9791 C   0  0  0  0  0  0  0  0  0  0  0  0
   38.5723   10.9313   12.6114 C   0  0  0  0  0  0  0  0  0  0  0  0
   39.3888   11.8859   11.8662 N   0  0  0  0  0  0  0  0  0  0  0  0
   40.3843   12.5569   12.4174 C   0  0  0  0  0  0  0  0  0  0  0  0
   41.4746   12.8334   11.6820 O   0  0  0  0  0  0  0  0  0  0  0  0
   40.0725   12.9314   13.7955 C   0  0  0  0  0  0  0  0  0  0  0  0
   38.3107   13.0756   13.7155 Cl  0  0  0  0  0  0  0  0  0  0  0  0
  1  2  1  0
  2  3  2  0
  2  4  2  0
  2  5  1  0
  5  6  2  0
  6  7  1  0
  7  8  2  0
  8  9  1  0
  9 10  2  0
  9 11  1  0
 11 12  1  0
 12 13  1  0
 13 14  1  0
 14 15  2  0
 14 16  1  0
 16 17  1  0
 10  5  1  0
 13  8  1  0
A    1
 N1 
A    2
 S1 
A    3
 O1 
A    4
 O2 
A    5
 C1 
A    6
 C2 
A    7
 C3 
A    8
 C4 
A    9
 C5 
A   10
 C6 
A   11
 C7 
A   12
 C8 
A   13
 N2 
A   14
 C9 
A   15
 O3 
A   16
 C10
A   17
CL1 
M  END
>  <ref_pdb>  (770) 
Ax0310a

>  <ref_mols>  (770) 
Ax0446a,Ax1080a,Ax0812a,Ax0719a,Ax1140a,Ax0528a,Ax0310a

>  <original SMILES>  (770) 
NS(=O)(=O)c1ccc2c(c1)CCN2C(=O)CCl

>  <rationale>  (770) 
info info set:sulfonimide_joint;hbond:G127+E85; hydroph_interaction:E85+L100; 

>  <experiment>  (770) 
sulfonimide_joint

>  <cluster_label>  (770) 
3

>  <cluster_rank>  (770) 
427

>  <N_interactions>  (770) 
5

>  <∆∆G>  (770) 
-2.825363

>  <comRMSD>  (770) 
0.912996

>  <ROCS_TanimotoCombo>  (770) 
0.308

>  <ROCS_ShapeTanimoto>  (770) 
0.186

>  <ROCS_ColorTanimoto>  (770) 
0.122

$$$$
EN300_33051227
     RDKit          3D

 18 18  0  0  0  0  0  0  0  0999 V2000
   26.7592   13.5999    8.7018 C   0  0  0  0  0  0  0  0  0  0  0  0
   27.7065   13.1627    7.6509 C   0  0  0  0  0  0  0  0  0  0  0  0
   27.0554   12.3834    6.5925 C   0  0  0  0  0  0  0  0  0  0  0  0
   28.1369   14.4330    6.9515 C   0  0  0  0  0  0  0  0  0  0  0  0
   28.7273   12.5800    8.0399 O   0  0  0  0  0  0  0  0  0  0  0  0
   29.8386   12.4655    7.2753 C   0  0  0  0  0  0  0  0  0  0  0  0
   30.0190   13.0757    6.2382 O   0  0  0  0  0  0  0  0  0  0  0  0
   30.7944   11.6101    7.7743 N   0  0  0  0  0  0  0  0  0  0  0  0
   30.5039   10.2308    8.1479 C   0  0  0  0  0  0  0  0  0  0  0  0
   31.3573    9.3118    7.3003 C   0  0  0  0  0  0  0  0  0  0  0  0
   32.6969    9.6138    7.3465 O   0  0  0  0  0  0  0  0  0  0  0  0
   32.9368   10.8757    6.7241 C   0  0  1  0  0  0  0  0  0  0  0  0
   33.0876   10.9510    5.3734 C   0  0  0  0  0  0  0  0  0  0  0  0
   34.5813   11.7806    4.9370 S   0  0  0  0  0  6  0  0  0  0  0  0
   34.2626   12.1387    3.3302 N   0  0  0  0  0  0  0  0  0  0  0  0
   34.6506   13.0537    5.6096 O   0  0  0  0  0  0  0  0  0  0  0  0
   35.6723   10.8392    4.9049 O   0  0  0  0  0  0  0  0  0  0  0  0
   32.1349   11.9927    7.3908 C   0  0  0  0  0  0  0  0  0  0  0  0
  1  2  1  0
  2  3  1  0
  2  4  1  0
  2  5  1  0
  5  6  1  0
  6  7  2  0
  6  8  1  0
  8  9  1  0
  9 10  1  0
 10 11  1  0
 11 12  1  0
 12 13  1  6
 13 14  1  0
 14 15  1  0
 14 16  2  0
 14 17  2  0
 12 18  1  0
 18  8  1  0
A    1
 C1 
A    2
 C2 
A    3
 C3 
A    4
 C4 
A    5
 O1 
A    6
 C5 
A    7
 O2 
A    8
 N1 
A    9
 C6 
A   10
 C7 
A   11
 O3 
A   12
 C8 
A   13
 C9 
A   14
 S1 
A   15
 N2 
A   16
 O4 
A   17
 O5 
A   18
 C10
M  END
>  <ref_pdb>  (771) 
Ax0310a

>  <ref_mols>  (771) 
Ax0446a,Ax1080a,Ax0812a,Ax0719a,Ax1140a,Ax0528a,Ax0310a

>  <original SMILES>  (771) 
CC(C)(C)OC(=O)N1CCO[C@@H](CS(N)(=O)=O)C1

>  <rationale>  (771) 
info info set:sulfonimide_whole;hbond:S87; hydroph_interaction:P107+Y89; 

>  <experiment>  (771) 
sulfonimide_whole

>  <cluster_label>  (771) 
3

>  <cluster_rank>  (771) 
428

>  <N_interactions>  (771) 
3

>  <∆∆G>  (771) 
-3.654976

>  <comRMSD>  (771) 
0.712129

>  <ROCS_TanimotoCombo>  (771) 
0.346

>  <ROCS_ShapeTanimoto>  (771) 
0.216

>  <ROCS_ColorTanimoto>  (771) 
0.129

$$$$
EN300_37375558
     RDKit          3D

 14 14  0  0  0  0  0  0  0  0999 V2000
   34.2954   15.1318    9.0122 N   0  0  0  0  0  0  0  0  0  0  0  0
   33.4192   13.8025    8.5166 S   0  0  0  0  0  6  0  0  0  0  0  0
   32.0340   14.1177    8.7946 O   0  0  0  0  0  0  0  0  0  0  0  0
   34.1084   12.7806    9.2035 O   0  0  0  0  0  0  0  0  0  0  0  0
   33.7594   13.6610    6.7215 C   0  0  0  0  0  0  0  0  0  0  0  0
   32.5580   13.0667    5.9260 C   0  0  0  0  0  0  0  0  0  0  0  0
   32.1127   11.7394    6.5195 C   0  0  0  0  0  0  0  0  0  0  0  0
   32.9454   10.5248    6.1612 C   0  0  0  0  0  0  0  0  0  0  0  0
   34.3252   10.6251    5.1278 Cl  0  0  0  0  0  0  0  0  0  0  0  0
   32.5886    9.2878    6.6753 C   0  0  0  0  0  0  0  0  0  0  0  0
   31.3677    9.1743    7.6086 C   0  0  0  0  0  0  0  0  0  0  0  0
   30.5758   10.4373    7.9255 C   0  0  0  0  0  0  0  0  0  0  0  0
   30.8861   11.6878    7.4192 C   0  0  0  0  0  0  0  0  0  0  0  0
   29.8941   13.0403    7.8275 Cl  0  0  0  0  0  0  0  0  0  0  0  0
  1  2  1  0
  2  3  2  0
  2  4  2  0
  2  5  1  0
  5  6  1  0
  6  7  1  0
  7  8  2  0
  8  9  1  0
  8 10  1  0
 10 11  2  0
 11 12  1  0
 12 13  2  0
 13 14  1  0
 13  7  1  0
A    1
 N1 
A    2
 S1 
A    3
 O1 
A    4
 O2 
A    5
 C1 
A    6
 C2 
A    7
 C3 
A    8
 C4 
A    9
CL1 
A   10
 C5 
A   11
 C6 
A   12
 C7 
A   13
 C8 
A   14
CL2 
M  END
>  <ref_pdb>  (772) 
Ax0310a

>  <ref_mols>  (772) 
Ax0446a,Ax1080a,Ax0812a,Ax0719a,Ax1140a,Ax0528a,Ax0310a

>  <original SMILES>  (772) 
NS(=O)(=O)CCc1c(Cl)cccc1Cl

>  <rationale>  (772) 
info info set:sulfonimide_whole;hbond:S87+G127+E85; hydroph_interaction:P107; 

>  <experiment>  (772) 
sulfonimide_whole

>  <cluster_label>  (772) 
3

>  <cluster_rank>  (772) 
429

>  <N_interactions>  (772) 
4

>  <∆∆G>  (772) 
-5.337398

>  <comRMSD>  (772) 
0.488747

>  <ROCS_TanimotoCombo>  (772) 
0.339

>  <ROCS_ShapeTanimoto>  (772) 
0.201

>  <ROCS_ColorTanimoto>  (772) 
0.138

$$$$
EN300_218604
     RDKit          3D

 17 17  0  0  0  0  0  0  0  0999 V2000
   38.6771   12.4681   11.4596 N   0  0  0  0  0  0  0  0  0  0  0  0
   37.0770   12.0148   11.3995 S   0  0  0  0  0  6  0  0  0  0  0  0
   37.0123   10.8867   10.5425 O   0  0  0  0  0  0  0  0  0  0  0  0
   36.6309   11.9394   12.7680 O   0  0  0  0  0  0  0  0  0  0  0  0
   36.3665   13.4763   10.6986 C   0  0  0  0  0  0  0  0  0  0  0  0
   35.7112   13.4241    9.3800 C   0  0  0  0  0  0  0  0  0  0  0  0
   34.9086   14.5348    8.9320 N   0  0  0  0  0  0  0  0  0  0  0  0
   34.2645   14.3040    7.7494 C   0  0  0  0  0  0  0  0  0  0  0  0
   34.3649   14.9756    6.7454 O   0  0  0  0  0  0  0  0  0  0  0  0
   33.4911   13.2001    7.8582 O   0  0  0  0  0  0  0  0  0  0  0  0
   32.8707   12.7634    6.6395 C   0  0  0  0  0  0  0  0  0  0  0  0
   32.3198   11.5708    6.9603 C   0  0  0  0  0  0  0  0  0  0  0  0
   31.2678   11.5334    7.8554 C   0  0  0  0  0  0  0  0  0  0  0  0
   30.6915   10.2226    8.2240 C   0  0  0  0  0  0  0  0  0  0  0  0
   31.2152    9.0825    7.6631 C   0  0  0  0  0  0  0  0  0  0  0  0
   32.2709    9.1670    6.7597 C   0  0  0  0  0  0  0  0  0  0  0  0
   32.8180   10.3917    6.4092 C   0  0  0  0  0  0  0  0  0  0  0  0
  1  2  1  0
  2  3  2  0
  2  4  2  0
  2  5  1  0
  5  6  1  0
  6  7  1  0
  7  8  1  0
  8  9  2  0
  8 10  1  0
 10 11  1  0
 11 12  1  0
 12 13  2  0
 13 14  1  0
 14 15  2  0
 15 16  1  0
 16 17  2  0
 17 12  1  0
A    1
 N1 
A    2
 S1 
A    3
 O1 
A    4
 O2 
A    5
 C1 
A    6
 C2 
A    7
 N2 
A    8
 C3 
A    9
 O3 
A   10
 O4 
A   11
 C4 
A   12
 C5 
A   13
 C6 
A   14
 C7 
A   15
 C8 
A   16
 C9 
A   17
 C10
M  END
>  <ref_pdb>  (773) 
Ax0310a

>  <ref_mols>  (773) 
Ax0446a,Ax1080a,Ax0812a,Ax0719a,Ax1140a,Ax0528a,Ax0310a

>  <original SMILES>  (773) 
NS(=O)(=O)CCNC(=O)OCc1ccccc1

>  <rationale>  (773) 
info info set:sulfonimide_joint;hbond:T126+E85; 

>  <experiment>  (773) 
sulfonimide_joint

>  <cluster_label>  (773) 
3

>  <cluster_rank>  (773) 
430

>  <N_interactions>  (773) 
2

>  <∆∆G>  (773) 
-4.994395

>  <comRMSD>  (773) 
0.645263

>  <ROCS_TanimotoCombo>  (773) 
0.383

>  <ROCS_ShapeTanimoto>  (773) 
0.234

>  <ROCS_ColorTanimoto>  (773) 
0.149

$$$$
EN300_1212388
     RDKit          3D

 10 10  0  0  0  0  0  0  0  0999 V2000
   30.4551    7.9551    8.6132 C   0  0  0  0  0  0  0  0  0  0  0  0
   30.5782    9.3630    8.4161 N   0  0  0  0  0  0  0  0  0  0  0  0
   31.4824    9.7363    7.4180 C   0  0  0  0  0  0  0  0  0  0  0  0
   32.3550    8.8442    6.9227 N   0  0  0  0  0  0  0  0  0  0  0  0
   33.2020    9.3005    5.9728 C   0  0  0  0  0  0  0  0  0  0  0  0
   33.2833   10.6921    5.4051 C   0  0  0  0  0  0  0  0  0  0  0  0
   32.3319   11.5129    5.9902 C   0  0  0  0  0  0  0  0  0  0  0  0
   31.4553   11.0435    6.9663 C   0  0  0  0  0  0  0  0  0  0  0  0
   30.5047   12.1027    7.4515 C   0  0  0  0  0  0  0  0  0  0  0  0
   30.2323   11.8487    8.8094 O   0  0  0  0  0  0  0  0  0  0  0  0
  1  2  1  0
  2  3  1  0
  3  4  2  0
  4  5  1  0
  5  6  2  0
  6  7  1  0
  7  8  2  0
  8  9  1  0
  9 10  1  0
  8  3  1  0
A    1
 C1 
A    2
 N1 
A    3
 C2 
A    4
 N2 
A    5
 C3 
A    6
 C4 
A    7
 C5 
A    8
 C6 
A    9
 C7 
A   10
 O1 
M  END
>  <ref_pdb>  (774) 
Ax0310a

>  <ref_mols>  (774) 
Ax0446a,Ax1080a,Ax0812a,Ax0719a,Ax1140a,Ax0528a,Ax0310a

>  <original SMILES>  (774) 
CNc1ncccc1CO

>  <rationale>  (774) 
info info set:bb_densepocket2;hbond:S125; hydroph_interaction:P107; 

>  <experiment>  (774) 
bb_densepocket2

>  <cluster_label>  (774) 
3

>  <cluster_rank>  (774) 
431

>  <N_interactions>  (774) 
2

>  <∆∆G>  (774) 
-5.517344

>  <comRMSD>  (774) 
0.560816

>  <ROCS_TanimotoCombo>  (774) 
0.629

>  <ROCS_ShapeTanimoto>  (774) 
0.204

>  <ROCS_ColorTanimoto>  (774) 
0.425

$$$$
EN300_7419020
     RDKit          3D

 23 25  0  0  0  0  0  0  0  0999 V2000
   34.1991   12.8009    6.5625 C   0  0  0  0  0  0  0  0  0  0  0  0
   34.6387   11.9294    5.3977 C   0  0  0  0  0  0  0  0  0  0  0  0
   33.4600   11.2752    4.6750 C   0  0  0  0  0  0  0  0  0  0  0  0
   32.6702   10.6393    5.8057 C   0  0  0  0  0  0  0  0  0  0  0  0
   32.8576    9.3619    6.1743 N   0  0  0  0  0  0  0  0  0  0  0  0
   31.9597    9.2468    7.1644 N   0  0  0  0  0  0  0  0  0  0  0  0
   31.7113    8.1455    7.8909 C   0  0  0  0  0  0  0  0  0  0  0  0
   31.3113   10.2386    7.4199 C   0  0  0  0  0  0  0  0  0  0  0  0
   30.3267   10.2487    8.4653 C   0  0  0  0  0  0  0  0  0  0  0  0
   30.0465    9.2906    9.1830 O   0  0  0  0  0  0  0  0  0  0  0  0
   29.7858   11.4358    8.5412 N   0  0  0  0  0  0  0  0  0  0  0  0
   30.1475   12.4240    7.6754 C   0  0  0  0  0  0  0  0  0  0  0  0
   29.3709   13.6122    8.0039 C   0  0  0  0  0  0  0  0  0  0  0  0
   27.8987   13.6638    7.6004 C   0  0  0  0  0  0  0  0  0  0  0  0
   27.4186   14.8950    8.0617 C   0  0  0  0  0  0  0  0  0  0  0  0
   28.1296   15.8711    8.7376 C   0  0  0  0  0  0  0  0  0  0  0  0
   29.5489   15.6778    9.0439 C   0  0  0  0  0  0  0  0  0  0  0  0
   30.0794   14.5447    8.6599 C   0  0  0  0  0  0  0  0  0  0  0  0
   31.3758   14.3550    8.9508 O   0  0  0  0  0  0  0  0  0  0  0  0
   31.7116   15.1396   10.0923 C   0  0  0  0  0  0  0  0  0  0  0  0
   33.0403   14.8962   10.2876 C   0  0  0  0  0  0  0  0  0  0  0  0
   31.0441   12.4220    6.7073 N   0  0  0  0  0  0  0  0  0  0  0  0
   31.6619   11.2005    6.6154 C   0  0  0  0  0  0  0  0  0  0  0  0
  1  2  1  0
  2  3  1  0
  3  4  1  0
  4  5  2  0
  5  6  1  0
  6  7  1  0
  6  8  1  0
  8  9  1  0
  9 10  2  0
  9 11  1  0
 11 12  1  0
 12 13  1  0
 13 14  2  0
 14 15  1  0
 15 16  2  0
 16 17  1  0
 17 18  2  0
 18 19  1  0
 19 20  1  0
 20 21  1  0
 12 22  2  0
 22 23  1  0
 23  4  1  0
 23  8  2  0
 18 13  1  0
A    1
 C1 
A    2
 C2 
A    3
 C3 
A    4
 C4 
A    5
 N1 
A    6
 N2 
A    7
 C5 
A    8
 C6 
A    9
 C7 
A   10
 O1 
A   11
 N3 
A   12
 C8 
A   13
 C9 
A   14
 C10
A   15
 C11
A   16
 C12
A   17
 C13
A   18
 C14
A   19
 O2 
A   20
 C15
A   21
 C16
A   22
 N4 
A   23
 C17
M  END
>  <ref_pdb>  (775) 
Ax0310a

>  <ref_mols>  (775) 
Ax0446a,Ax1080a,Ax0812a,Ax0719a,Ax1140a,Ax0528a,Ax0310a

>  <original SMILES>  (775) 
CCCc1nn(C)c2c(=O)[nH]c(-c3ccccc3OCC)nc12

>  <rationale>  (775) 
info info set:bb_whole;hbond:S87+S125; hydroph_interaction:P107+Y89+Y90+T126+V84; 

>  <experiment>  (775) 
bb_whole

>  <cluster_label>  (775) 
3

>  <cluster_rank>  (775) 
432

>  <N_interactions>  (775) 
7

>  <∆∆G>  (775) 
-6.533202

>  <comRMSD>  (775) 
0.619908

>  <ROCS_TanimotoCombo>  (775) 
0.414

>  <ROCS_ShapeTanimoto>  (775) 
0.261

>  <ROCS_ColorTanimoto>  (775) 
0.153

$$$$
EN300_147420
     RDKit          3D

 15 15  0  0  0  0  0  0  0  0999 V2000
   29.1465    8.8516    8.1078 C   0  0  0  0  0  0  0  0  0  0  0  0
   29.9232    8.3030    9.0905 C   0  0  0  0  0  0  0  0  0  0  0  0
   29.8844    6.9290    9.2530 C   0  0  0  0  0  0  0  0  0  0  0  0
   29.2682    8.6374   10.2173 C   0  0  0  0  0  0  0  0  0  0  0  0
   31.1573    8.8894    8.9457 O   0  0  0  0  0  0  0  0  0  0  0  0
   31.1761   10.0328    8.1989 C   0  0  0  0  0  0  0  0  0  0  0  0
   30.4370   10.9846    8.5401 O   0  0  0  0  0  0  0  0  0  0  0  0
   32.0102   10.1216    7.1154 N   0  0  0  0  0  0  0  0  0  0  0  0
   32.3280   11.2687    6.5152 C   0  0  0  0  0  0  0  0  0  0  0  0
   33.2469   10.8774    5.4279 C   0  0  0  0  0  0  0  0  0  0  0  0
   33.9328   11.8005    4.4001 B   0  0  0  0  0  0  0  0  0  0  0  0
   34.4241   11.2757    3.1363 O   0  0  0  0  0  0  0  0  0  0  0  0
   33.5457   13.2240    4.3951 O   0  0  0  0  0  0  0  0  0  0  0  0
   33.3498    9.5144    5.5376 C   0  0  0  0  0  0  0  0  0  0  0  0
   32.5905    9.0814    6.5600 N   0  0  0  0  0  0  0  0  0  0  0  0
  1  2  1  0
  2  3  1  0
  2  4  1  0
  2  5  1  0
  5  6  1  0
  6  7  2  0
  6  8  1  0
  8  9  1  0
  9 10  2  0
 10 11  1  0
 11 12  1  0
 11 13  1  0
 10 14  1  0
 14 15  2  0
 15  8  1  0
A    1
 C1 
A    2
 C2 
A    3
 C3 
A    4
 C4 
A    5
 O1 
A    6
 C5 
A    7
 O2 
A    8
 N1 
A    9
 C6 
A   10
 C7 
A   11
 B1 
A   12
 O3 
A   13
 O4 
A   14
 C8 
A   15
 N2 
M  END
>  <ref_pdb>  (776) 
Ax0310a

>  <ref_mols>  (776) 
Ax0446a,Ax1080a,Ax0812a,Ax0719a,Ax1140a,Ax0528a,Ax0310a

>  <original SMILES>  (776) 
CC(C)(C)OC(=O)n1cc(B(O)O)cn1

>  <rationale>  (776) 
info info set:bb_densepocket2;hydroph_interaction:V124+D109; 

>  <experiment>  (776) 
bb_densepocket2

>  <cluster_label>  (776) 
3

>  <cluster_rank>  (776) 
433

>  <N_interactions>  (776) 
3

>  <∆∆G>  (776) 
-2.02775

>  <comRMSD>  (776) 
0.463428

>  <ROCS_TanimotoCombo>  (776) 
0.628

>  <ROCS_ShapeTanimoto>  (776) 
0.215

>  <ROCS_ColorTanimoto>  (776) 
0.413

$$$$
EN300_275738
     RDKit          3D

 14 15  0  0  0  0  0  0  0  0999 V2000
   29.3097   12.2652    8.3772 N   0  0  0  0  0  0  0  0  0  0  0  0
   30.6799   12.8703    7.6686 S   0  0  0  0  0  6  0  0  0  0  0  0
   30.1818   13.4719    6.4570 O   0  0  0  0  0  0  0  0  0  0  0  0
   31.4203   13.6010    8.6729 O   0  0  0  0  0  0  0  0  0  0  0  0
   31.5691   11.4123    7.2081 C   0  0  0  0  0  0  0  0  0  0  0  0
   31.0426   10.1062    7.7703 C   0  0  0  0  0  0  0  0  0  0  0  0
   31.6235    8.9347    7.4751 N   0  0  0  0  0  0  0  0  0  0  0  0
   32.6821    9.0478    6.6497 C   0  0  0  0  0  0  0  0  0  0  0  0
   33.2317   10.1901    6.1044 C   0  0  0  0  0  0  0  0  0  0  0  0
   34.3827   10.0337    5.2582 C   0  0  0  0  0  0  0  0  0  0  0  0
   35.0294   11.0905    4.6639 C   0  0  0  0  0  0  0  0  0  0  0  0
   34.4158   12.4668    4.9730 C   0  0  0  0  0  0  0  0  0  0  0  0
   33.2858   12.5659    5.8008 C   0  0  0  0  0  0  0  0  0  0  0  0
   32.6944   11.4334    6.3679 C   0  0  0  0  0  0  0  0  0  0  0  0
  1  2  1  0
  2  3  2  0
  2  4  2  0
  2  5  1  0
  5  6  2  0
  6  7  1  0
  7  8  2  0
  8  9  1  0
  9 10  2  0
 10 11  1  0
 11 12  2  0
 12 13  1  0
 13 14  2  0
 14  5  1  0
 14  9  1  0
A    1
 N1 
A    2
 S1 
A    3
 O1 
A    4
 O2 
A    5
 C1 
A    6
 C2 
A    7
 N2 
A    8
 C3 
A    9
 C4 
A   10
 C5 
A   11
 C6 
A   12
 C7 
A   13
 C8 
A   14
 C9 
M  END
>  <ref_pdb>  (777) 
Ax0310a

>  <ref_mols>  (777) 
Ax0446a,Ax1080a,Ax0812a,Ax0719a,Ax1140a,Ax0528a,Ax0310a

>  <original SMILES>  (777) 
NS(=O)(=O)c1cncc2ccccc12

>  <rationale>  (777) 
info info set:sulfonimide_whole;hbond:S87+S125; 

>  <experiment>  (777) 
sulfonimide_whole

>  <cluster_label>  (777) 
3

>  <cluster_rank>  (777) 
434

>  <N_interactions>  (777) 
2

>  <∆∆G>  (777) 
-6.270223

>  <comRMSD>  (777) 
0.41243

>  <ROCS_TanimotoCombo>  (777) 
0.34

>  <ROCS_ShapeTanimoto>  (777) 
0.201

>  <ROCS_ColorTanimoto>  (777) 
0.139

$$$$
EN300_4252673
     RDKit          3D

 14 14  0  0  0  0  0  0  0  0999 V2000
   36.0061    8.4590    3.5431 C   0  0  0  0  0  0  0  0  0  0  0  0
   34.9975    9.4430    4.0862 C   0  0  0  0  0  0  0  0  0  0  0  0
   34.3708    8.8945    5.2663 N   0  0  0  0  0  0  0  0  0  0  0  0
   33.2846    9.6420    5.8838 C   0  0  0  0  0  0  0  0  0  0  0  0
   33.1055   10.9069    5.5930 N   0  0  0  0  0  0  0  0  0  0  0  0
   32.0944   11.4365    6.2418 C   0  0  0  0  0  0  0  0  0  0  0  0
   31.7826   13.0701    5.9240 Cl  0  0  0  0  0  0  0  0  0  0  0  0
   31.2840   10.8803    7.1052 N   0  0  0  0  0  0  0  0  0  0  0  0
   31.5546    9.6241    7.3174 C   0  0  0  0  0  0  0  0  0  0  0  0
   30.7979    8.9207    8.1994 N   0  0  0  0  0  0  0  0  0  0  0  0
   29.3854    9.1432    8.4570 C   0  0  0  0  0  0  0  0  0  0  0  0
   28.8395   10.5446    8.3827 C   0  0  0  0  0  0  0  0  0  0  0  0
   29.1094    8.5886    9.7588 C   0  0  0  0  0  0  0  0  0  0  0  0
   32.5340    8.9677    6.7335 N   0  0  0  0  0  0  0  0  0  0  0  0
  1  2  1  0
  2  3  1  0
  3  4  1  0
  4  5  2  0
  5  6  1  0
  6  7  1  0
  6  8  2  0
  8  9  1  0
  9 10  1  0
 10 11  1  0
 11 12  1  0
 11 13  1  0
  9 14  2  0
 14  4  1  0
A    1
 C1 
A    2
 C2 
A    3
 N1 
A    4
 C3 
A    5
 N2 
A    6
 C4 
A    7
CL1 
A    8
 N3 
A    9
 C5 
A   10
 N4 
A   11
 C6 
A   12
 C7 
A   13
 C8 
A   14
 N5 
M  END
>  <ref_pdb>  (778) 
Ax0310a

>  <ref_mols>  (778) 
Ax0446a,Ax1080a,Ax0812a,Ax0719a,Ax1140a,Ax0528a,Ax0310a

>  <original SMILES>  (778) 
CCNc1nc(Cl)nc(NC(C)C)n1

>  <rationale>  (778) 
info info set:bb_densepocket2;hbond:S105; hydroph_interaction:V124; 

>  <experiment>  (778) 
bb_densepocket2

>  <cluster_label>  (778) 
3

>  <cluster_rank>  (778) 
435

>  <N_interactions>  (778) 
3

>  <∆∆G>  (778) 
-4.573339

>  <comRMSD>  (778) 
0.659635

>  <ROCS_TanimotoCombo>  (778) 
0.653

>  <ROCS_ShapeTanimoto>  (778) 
0.22

>  <ROCS_ColorTanimoto>  (778) 
0.432

$$$$
EN300_66544
     RDKit          3D

 18 19  0  0  0  0  0  0  0  0999 V2000
   30.9202   12.1733    6.2187 C   0  0  0  0  0  0  0  0  0  0  0  0
   31.9164   11.1672    6.7889 C   0  0  1  0  0  0  0  0  0  0  0  0
   33.2477   11.7140    6.4293 C   0  0  0  0  0  0  0  0  0  0  0  0
   34.0125   11.0929    5.2758 C   0  0  0  0  0  0  0  0  0  0  0  0
   35.3666   11.6328    4.8960 C   0  0  0  0  0  0  0  0  0  0  0  0
   35.8368   12.7081    5.6637 C   0  0  0  0  0  0  0  0  0  0  0  0
   35.0333   13.2184    6.7341 C   0  0  0  0  0  0  0  0  0  0  0  0
   35.5778   14.5095    7.7097 S   0  0  0  0  0  6  0  0  0  0  0  0
   34.3905   14.8705    8.8165 N   0  0  0  0  0  0  0  0  0  0  0  0
   35.5951   15.5731    6.7595 O   0  0  0  0  0  0  0  0  0  0  0  0
   36.6957   14.0641    8.5288 O   0  0  0  0  0  0  0  0  0  0  0  0
   33.7979   12.7532    7.1007 C   0  0  0  0  0  0  0  0  0  0  0  0
   31.5210   11.1315    8.0728 N   0  0  0  0  0  0  0  0  0  0  0  0
   30.8892    9.9411    8.3590 C   0  0  0  0  0  0  0  0  0  0  0  0
   30.1231    9.7557    9.2492 O   0  0  0  0  0  0  0  0  0  0  0  0
   31.2782    9.0153    7.4997 N   0  0  0  0  0  0  0  0  0  0  0  0
   32.0024    9.6463    6.5597 C   0  0  0  0  0  0  0  0  0  0  0  0
   32.6618    9.0925    5.7126 O   0  0  0  0  0  0  0  0  0  0  0  0
  2  1  1  6
  2  3  1  0
  3  4  2  0
  4  5  1  0
  5  6  2  0
  6  7  1  0
  7  8  1  0
  8  9  1  0
  8 10  2  0
  8 11  2  0
  7 12  2  0
  2 13  1  0
 13 14  1  0
 14 15  2  0
 14 16  1  0
 16 17  1  0
 17 18  2  0
 17  2  1  0
 12  3  1  0
A    1
 C1 
A    2
 C2 
A    3
 C3 
A    4
 C4 
A    5
 C5 
A    6
 C6 
A    7
 C7 
A    8
 S1 
A    9
 N1 
A   10
 O1 
A   11
 O2 
A   12
 C8 
A   13
 N2 
A   14
 C9 
A   15
 O3 
A   16
 N3 
A   17
 C10
A   18
 O4 
M  END
>  <ref_pdb>  (779) 
Ax0310a

>  <ref_mols>  (779) 
Ax0446a,Ax1080a,Ax0812a,Ax0719a,Ax1140a,Ax0528a,Ax0310a

>  <original SMILES>  (779) 
C[C@@]1(c2cccc(S(N)(=O)=O)c2)NC(=O)NC1=O

>  <rationale>  (779) 
info info set:sulfonimide_whole;hbond:S105+S125+E85; hydroph_interaction:P107; 

>  <experiment>  (779) 
sulfonimide_whole

>  <cluster_label>  (779) 
3

>  <cluster_rank>  (779) 
436

>  <N_interactions>  (779) 
6

>  <∆∆G>  (779) 
-0.535857

>  <comRMSD>  (779) 
0.911303

>  <ROCS_TanimotoCombo>  (779) 
0.341

>  <ROCS_ShapeTanimoto>  (779) 
0.188

>  <ROCS_ColorTanimoto>  (779) 
0.153

$$$$
Z1681343197
     RDKit          3D

 15 17  0  0  0  0  0  0  0  0999 V2000
   31.8556    8.3312    7.2238 O   0  0  0  0  0  0  0  0  0  0  0  0
   31.7751    9.5409    7.1686 C   0  0  0  0  0  0  0  0  0  0  0  0
   30.7696   10.4052    7.9951 C   0  0  0  0  0  0  0  0  0  0  0  0
   30.8895   11.9323    7.5790 C   0  0  2  0  0  0  0  0  0  0  0  0
   31.8643   12.9018    8.3008 C   0  0  0  0  0  0  0  0  0  0  0  0
   30.9197   13.7030    9.1292 C   0  0  0  0  0  0  0  0  0  0  0  0
   29.6288   13.3345    9.0184 N   0  0  0  0  0  0  0  0  0  0  0  0
   29.5515   12.6666    7.7926 C   0  0  0  0  0  0  0  0  0  0  0  0
   31.1418   11.9477    6.4037 O   0  0  0  0  0  0  0  0  0  0  0  0
   32.2641   11.6305    6.0051 C   0  0  0  0  0  0  0  0  0  0  0  0
   32.9248   12.7883    5.2115 C   0  0  0  0  0  0  0  0  0  0  0  0
   34.2096   12.0407    4.8479 C   0  0  0  0  0  0  0  0  0  0  0  0
   34.6567   10.6335    5.1643 C   0  0  0  0  0  0  0  0  0  0  0  0
   33.8756    9.8268    5.8904 C   0  0  0  0  0  0  0  0  0  0  0  0
   32.7036   10.3474    6.3084 C   0  0  0  0  0  0  0  0  0  0  0  0
  1  2  2  0
  2  3  1  0
  4  3  1  1
  4  5  1  0
  5  6  1  0
  6  7  1  0
  7  8  1  0
  4  9  1  0
  9 10  1  0
 10 11  2  0
 11 12  1  0
 12 13  2  0
 13 14  1  0
 14 15  2  0
 15  2  1  0
  8  4  1  0
 15 10  1  0
A    1
 O1 
A    2
 C1 
A    3
 C2 
A    4
 C3 
A    5
 C4 
A    6
 C5 
A    7
 N1 
A    8
 C6 
A    9
 O2 
A   10
 C7 
A   11
 C8 
A   12
 C9 
A   13
 C10
A   14
 C11
A   15
 C12
M  END
>  <ref_pdb>  (780) 
Ax0310a

>  <ref_mols>  (780) 
Ax0446a,Ax1080a,Ax0812a,Ax0719a,Ax1140a,Ax0528a,Ax0310a

>  <original SMILES>  (780) 
O=C1C[C@@]2(CCNC2)Oc2ccccc21

>  <rationale>  (780) 
info info set:3d;

>  <experiment>  (780) 
3d

>  <cluster_label>  (780) 
3

>  <cluster_rank>  (780) 
437

>  <N_interactions>  (780) 
0

>  <∆∆G>  (780) 
-3.408412

>  <comRMSD>  (780) 
0.931613

>  <ROCS_TanimotoCombo>  (780) 
0.329

>  <ROCS_ShapeTanimoto>  (780) 
0.213

>  <ROCS_ColorTanimoto>  (780) 
0.117

$$$$
EN300_1816836
     RDKit          3D

 15 16  0  0  0  0  0  0  0  0999 V2000
   27.9599   15.4882    8.6782 C   0  0  0  0  0  0  0  0  0  0  0  0
   27.9103   14.9202    7.3898 O   0  0  0  0  0  0  0  0  0  0  0  0
   28.8174   13.9518    7.2539 C   0  0  0  0  0  0  0  0  0  0  0  0
   29.6373   13.9656    5.9579 C   0  0  0  0  0  0  0  0  0  0  0  0
   30.7200   12.9480    5.7136 C   0  0  0  0  0  0  0  0  0  0  0  0
   30.8354   11.9153    6.8661 C   0  0  0  0  0  0  0  0  0  0  0  0
   31.9422   10.9413    6.3868 C   0  0  0  0  0  0  0  0  0  0  0  0
   33.1050   11.0813    5.4792 C   0  0  0  0  0  0  0  0  0  0  0  0
   33.6359    9.6535    5.5618 C   0  0  0  0  0  0  0  0  0  0  0  0
   34.7155    9.2200    4.9009 N   0  0  0  0  0  0  0  0  0  0  0  0
   32.8878    8.9055    6.3740 N   0  0  0  0  0  0  0  0  0  0  0  0
   31.8637    9.6770    6.8713 O   0  0  0  0  0  0  0  0  0  0  0  0
   30.0851   11.9327    7.9762 C   0  0  0  0  0  0  0  0  0  0  0  0
   30.2379   10.9560    8.9799 O   0  0  0  0  0  0  0  0  0  0  0  0
   29.0305   12.9801    8.2216 C   0  0  0  0  0  0  0  0  0  0  0  0
  1  2  1  0
  2  3  1  0
  3  4  2  0
  4  5  1  0
  5  6  2  0
  6  7  1  0
  7  8  2  0
  8  9  1  0
  9 10  1  0
  9 11  2  0
 11 12  1  0
  6 13  1  0
 13 14  1  0
 13 15  2  0
 15  3  1  0
 12  7  1  0
A    1
 C1 
A    2
 O1 
A    3
 C2 
A    4
 C3 
A    5
 C4 
A    6
 C5 
A    7
 C6 
A    8
 C7 
A    9
 C8 
A   10
 N1 
A   11
 N2 
A   12
 O2 
A   13
 C9 
A   14
 O3 
A   15
 C10
M  END
>  <ref_pdb>  (781) 
Ax0310a

>  <ref_mols>  (781) 
Ax0446a,Ax1080a,Ax0812a,Ax0719a,Ax1140a,Ax0528a,Ax0310a

>  <original SMILES>  (781) 
COc1ccc(-c2cc(N)no2)c(O)c1

>  <rationale>  (781) 
info info set:bb_densepocket2;hbond:S105+S125; hydroph_interaction:P107; 

>  <experiment>  (781) 
bb_densepocket2

>  <cluster_label>  (781) 
3

>  <cluster_rank>  (781) 
438

>  <N_interactions>  (781) 
3

>  <∆∆G>  (781) 
-3.186168

>  <comRMSD>  (781) 
0.592968

>  <ROCS_TanimotoCombo>  (781) 
0.641

>  <ROCS_ShapeTanimoto>  (781) 
0.208

>  <ROCS_ColorTanimoto>  (781) 
0.432

$$$$
EN300_1295564
     RDKit          3D

  9  9  0  0  0  0  0  0  0  0999 V2000
   30.2898   11.5765    8.2664 N   0  0  0  0  0  0  0  0  0  0  0  0
   31.2941   10.9888    7.4874 C   0  0  0  0  0  0  0  0  0  0  0  0
   32.1869   11.9180    6.6582 C   0  0  0  0  0  0  0  0  0  0  0  0
   33.1881   11.1353    5.8881 C   0  0  0  0  0  0  0  0  0  0  0  0
   33.2587    9.6241    5.9588 C   0  0  0  0  0  0  0  0  0  0  0  0
   34.1783    8.9388    5.2432 O   0  0  0  0  0  0  0  0  0  0  0  0
   32.4277    8.9070    6.7215 N   0  0  0  0  0  0  0  0  0  0  0  0
   31.4933    9.5690    7.4508 C   0  0  0  0  0  0  0  0  0  0  0  0
   30.6404    8.7732    8.2444 N   0  0  0  0  0  0  0  0  0  0  0  0
  1  2  1  0
  2  3  2  0
  3  4  1  0
  4  5  2  0
  5  6  1  0
  5  7  1  0
  7  8  2  0
  8  9  1  0
  8  2  1  0
A    1
 N1 
A    2
 C1 
A    3
 C2 
A    4
 C3 
A    5
 C4 
A    6
 O1 
A    7
 N2 
A    8
 C5 
A    9
 N3 
M  END
>  <ref_pdb>  (782) 
Ax0310a

>  <ref_mols>  (782) 
Ax0446a,Ax1080a,Ax0812a,Ax0719a,Ax1140a,Ax0528a,Ax0310a

>  <original SMILES>  (782) 
Nc1ccc(O)nc1N

>  <rationale>  (782) 
info info set:bb_densepocket2;hbond:S105+S125; 

>  <experiment>  (782) 
bb_densepocket2

>  <cluster_label>  (782) 
3

>  <cluster_rank>  (782) 
439

>  <N_interactions>  (782) 
2

>  <∆∆G>  (782) 
-2.184025

>  <comRMSD>  (782) 
0.313723

>  <ROCS_TanimotoCombo>  (782) 
0.641

>  <ROCS_ShapeTanimoto>  (782) 
0.203

>  <ROCS_ColorTanimoto>  (782) 
0.439

$$$$
Z2034494235
     RDKit          3D

 19 20  0  0  0  0  0  0  0  0999 V2000
   34.8152    9.2999    4.1285 C   0  0  0  0  0  0  0  0  0  0  0  0
   34.1211    8.7392    5.2552 N   0  0  0  0  0  0  0  0  0  0  0  0
   33.2535    9.4511    5.9857 C   0  0  0  0  0  0  0  0  0  0  0  0
   33.2972   10.9401    5.8954 C   0  0  0  0  0  0  0  0  0  0  0  0
   32.3569   11.8352    6.6992 C   0  0  0  0  0  0  0  0  0  0  0  0
   31.3754   11.0595    7.5975 C   0  0  0  0  0  0  0  0  0  0  0  0
   30.5062   11.8398    8.3542 N   0  0  0  0  0  0  0  0  0  0  0  0
   29.7088   12.9916    8.0224 C   0  0  0  0  0  0  0  0  0  0  0  0
   28.8965   12.8487    6.9497 N   0  0  0  0  0  0  0  0  0  0  0  0
   28.0789   13.9666    6.5972 C   0  0  0  0  0  0  0  0  0  0  0  0
   28.0399   15.1178    7.2158 N   0  0  0  0  0  0  0  0  0  0  0  0
   28.8376   15.2433    8.2492 C   0  0  0  0  0  0  0  0  0  0  0  0
   29.7670   14.1853    8.7658 C   0  0  0  0  0  0  0  0  0  0  0  0
   30.5791   14.4633    9.8873 C   0  0  0  0  0  0  0  0  0  0  0  0
   31.0052   13.6705   10.6324 O   0  0  0  0  0  0  0  0  0  0  0  0
   30.8536   15.7646   10.0571 O   0  0  0  0  0  0  0  0  0  0  0  0
   31.3582   16.0208   11.3740 C   0  0  0  0  0  0  0  0  0  0  0  0
   31.4405    9.6683    7.5773 C   0  0  0  0  0  0  0  0  0  0  0  0
   32.3502    8.8432    6.8027 N   0  0  0  0  0  0  0  0  0  0  0  0
  1  2  1  0
  2  3  1  0
  3  4  2  0
  4  5  1  0
  5  6  2  0
  6  7  1  0
  7  8  1  0
  8  9  2  0
  9 10  1  0
 10 11  2  0
 11 12  1  0
 12 13  2  0
 13 14  1  0
 14 15  2  0
 14 16  1  0
 16 17  1  0
  6 18  1  0
 18 19  2  0
 19  3  1  0
 13  8  1  0
A    1
 C1 
A    2
 N1 
A    3
 C2 
A    4
 C3 
A    5
 C4 
A    6
 C5 
A    7
 N2 
A    8
 C6 
A    9
 N3 
A   10
 C7 
A   11
 N4 
A   12
 C8 
A   13
 C9 
A   14
 C10
A   15
 O1 
A   16
 O2 
A   17
 C11
A   18
 C12
A   19
 N5 
M  END
>  <ref_pdb>  (783) 
Ax0310a

>  <ref_mols>  (783) 
Ax0446a,Ax1080a,Ax0812a,Ax0719a,Ax1140a,Ax0528a,Ax0310a

>  <original SMILES>  (783) 
CNc1ccc(Nc2ncncc2C(=O)OC)cn1

>  <rationale>  (783) 
info info set:screening_pocket;hbond:S87+S105+S125+G127; pistack:H21; 

>  <experiment>  (783) 
screening_pocket

>  <cluster_label>  (783) 
3

>  <cluster_rank>  (783) 
440

>  <N_interactions>  (783) 
5

>  <∆∆G>  (783) 
-6.163311

>  <comRMSD>  (783) 
0.552842

>  <ROCS_TanimotoCombo>  (783) 
0.636

>  <ROCS_ShapeTanimoto>  (783) 
0.236

>  <ROCS_ColorTanimoto>  (783) 
0.4

$$$$
EN300_272127
     RDKit          3D

 12 12  0  0  0  0  0  0  0  0999 V2000
   34.4246   15.0452    8.9328 N   0  0  0  0  0  0  0  0  0  0  0  0
   33.4095   13.7811    8.4995 S   0  0  0  0  0  6  0  0  0  0  0  0
   32.0777   14.2477    8.8208 O   0  0  0  0  0  0  0  0  0  0  0  0
   34.0462   12.7489    9.2070 O   0  0  0  0  0  0  0  0  0  0  0  0
   33.7543   13.6314    6.7304 C   0  0  0  0  0  0  0  0  0  0  0  0
   32.6083   12.9626    5.9452 C   0  0  0  0  0  0  0  0  0  0  0  0
   31.8509   11.9008    6.7417 C   0  0  0  0  0  0  0  0  0  0  0  0
   32.8051   10.9682    6.2479 C   0  0  0  0  0  0  0  0  0  0  0  0
   32.6027    9.5678    6.6966 C   0  0  0  0  0  0  0  0  0  0  0  0
   31.4864    9.0826    7.6261 C   0  0  0  0  0  0  0  0  0  0  0  0
   30.7146   10.4277    7.9023 C   0  0  0  0  0  0  0  0  0  0  0  0
   30.8491   11.7224    7.5155 N   0  0  0  0  0  0  0  0  0  0  0  0
  1  2  1  0
  2  3  2  0
  2  4  2  0
  2  5  1  0
  5  6  1  0
  6  7  1  0
  7  8  2  0
  8  9  1  0
  9 10  2  0
 10 11  1  0
 11 12  2  0
 12  7  1  0
A    1
 N1 
A    2
 S1 
A    3
 O1 
A    4
 O2 
A    5
 C1 
A    6
 C2 
A    7
 C3 
A    8
 C4 
A    9
 C5 
A   10
 C6 
A   11
 C7 
A   12
 N2 
M  END
>  <ref_pdb>  (784) 
Ax0310a

>  <ref_mols>  (784) 
Ax0446a,Ax1080a,Ax0812a,Ax0719a,Ax1140a,Ax0528a,Ax0310a

>  <original SMILES>  (784) 
NS(=O)(=O)CCc1ccccn1

>  <rationale>  (784) 
info info set:sulfonimide_whole;hbond:S87+G127+E85; 

>  <experiment>  (784) 
sulfonimide_whole

>  <cluster_label>  (784) 
3

>  <cluster_rank>  (784) 
441

>  <N_interactions>  (784) 
3

>  <∆∆G>  (784) 
-4.938897

>  <comRMSD>  (784) 
0.691636

>  <ROCS_TanimotoCombo>  (784) 
0.346

>  <ROCS_ShapeTanimoto>  (784) 
0.167

>  <ROCS_ColorTanimoto>  (784) 
0.179

$$$$
Z931213482
     RDKit          3D

 17 18  0  0  0  0  0  0  0  0999 V2000
   32.2322   14.7503    9.0707 O   0  0  0  0  0  0  0  0  0  0  0  0
   32.6318   13.5463    8.3751 S   0  0  0  0  0  6  0  0  0  0  0  0
   33.4857   12.6817    9.0884 O   0  0  0  0  0  0  0  0  0  0  0  0
   31.1404   12.7683    7.7017 C   0  0  0  0  0  0  0  0  0  0  0  0
   31.4288   11.3415    7.4908 C   0  0  0  0  0  0  0  0  0  0  0  0
   32.2692   10.8322    6.5249 C   0  0  0  0  0  0  0  0  0  0  0  0
   32.5325    9.4063    6.3761 C   0  0  0  0  0  0  0  0  0  0  0  0
   31.9017    8.4758    7.2624 N   0  0  0  0  0  0  0  0  0  0  0  0
   31.0895    9.0409    8.1641 C   0  0  0  0  0  0  0  0  0  0  0  0
   30.8342   10.3837    8.3068 C   0  0  0  0  0  0  0  0  0  0  0  0
   33.6387   13.8264    6.9332 C   0  0  0  0  0  0  0  0  0  0  0  0
   34.5801   14.8162    6.8562 C   0  0  0  0  0  0  0  0  0  0  0  0
   35.3296   14.9695    5.7013 C   0  0  0  0  0  0  0  0  0  0  0  0
   35.1524   14.1468    4.6033 C   0  0  0  0  0  0  0  0  0  0  0  0
   34.2274   13.1350    4.6285 C   0  0  0  0  0  0  0  0  0  0  0  0
   33.4765   13.0016    5.8375 C   0  0  0  0  0  0  0  0  0  0  0  0
   32.5928   12.0259    5.8778 F   0  0  0  0  0  0  0  0  0  0  0  0
  1  2  2  0
  2  3  2  0
  2  4  1  0
  4  5  1  0
  5  6  2  0
  6  7  1  0
  7  8  2  0
  8  9  1  0
  9 10  2  0
  2 11  1  0
 11 12  2  0
 12 13  1  0
 13 14  2  0
 14 15  1  0
 15 16  2  0
 16 17  1  0
 10  5  1  0
 16 11  1  0
A    1
 O1 
A    2
 S1 
A    3
 O2 
A    4
 C1 
A    5
 C2 
A    6
 C3 
A    7
 C4 
A    8
 N1 
A    9
 C5 
A   10
 C6 
A   11
 C7 
A   12
 C8 
A   13
 C9 
A   14
 C10
A   15
 C11
A   16
 C12
A   17
 F1 
M  END
>  <ref_pdb>  (785) 
Ax0310a

>  <ref_mols>  (785) 
Ax0446a,Ax1080a,Ax0812a,Ax0719a,Ax1140a,Ax0528a,Ax0310a

>  <original SMILES>  (785) 
O=S(=O)(Cc1ccncc1)c1ccccc1F

>  <rationale>  (785) 
info info set:3d;hydroph_interaction:P107+E85; 

>  <experiment>  (785) 
3d

>  <cluster_label>  (785) 
3

>  <cluster_rank>  (785) 
442

>  <N_interactions>  (785) 
2

>  <∆∆G>  (785) 
-3.378718

>  <comRMSD>  (785) 
0.886144

>  <ROCS_TanimotoCombo>  (785) 
0.331

>  <ROCS_ShapeTanimoto>  (785) 
0.187

>  <ROCS_ColorTanimoto>  (785) 
0.143

$$$$
EN300_13547
     RDKit          3D

 17 17  0  0  0  0  0  0  0  0999 V2000
   31.4276    9.8700    7.6518 C   0  0  0  0  0  0  0  0  0  0  0  0
   32.3024   10.6623    6.8802 C   0  0  0  0  0  0  0  0  0  0  0  0
   33.0148   11.6060    7.7287 O   0  0  0  0  0  0  0  0  0  0  0  0
   33.6335   12.6314    7.0684 C   0  0  0  0  0  0  0  0  0  0  0  0
   33.2614   13.0701    6.0004 O   0  0  0  0  0  0  0  0  0  0  0  0
   34.7862   13.1190    7.7843 N   0  0  0  0  0  0  0  0  0  0  0  0
   34.7929   13.3124    9.2128 C   0  0  0  0  0  0  0  0  0  0  0  0
   36.1557   12.9704   10.0277 C   0  0  0  0  0  0  0  0  0  0  0  0
   36.3404   11.7974   11.0657 C   0  0  0  0  0  0  0  0  0  0  0  0
   37.6376   11.6044   11.8170 C   0  0  0  0  0  0  0  0  0  0  0  0
   38.6453   12.6110   11.4438 C   0  0  0  0  0  0  0  0  0  0  0  0
   40.2017   12.5633   12.2661 S   0  0  0  0  0  6  0  0  0  0  0  0
   40.7701   11.0605   11.8344 N   0  0  0  0  0  0  0  0  0  0  0  0
   39.9543   12.5602   13.6856 O   0  0  0  0  0  0  0  0  0  0  0  0
   41.0752   13.5238   11.6388 O   0  0  0  0  0  0  0  0  0  0  0  0
   38.4671   13.6091   10.4972 C   0  0  0  0  0  0  0  0  0  0  0  0
   37.2537   13.7708    9.8150 C   0  0  0  0  0  0  0  0  0  0  0  0
  1  2  1  0
  2  3  1  0
  3  4  1  0
  4  5  2  0
  4  6  1  0
  6  7  1  0
  7  8  1  0
  8  9  2  0
  9 10  1  0
 10 11  2  0
 11 12  1  0
 12 13  1  0
 12 14  2  0
 12 15  2  0
 11 16  1  0
 16 17  2  0
 17  8  1  0
A    1
 C1 
A    2
 C2 
A    3
 O1 
A    4
 C3 
A    5
 O2 
A    6
 N1 
A    7
 C4 
A    8
 C5 
A    9
 C6 
A   10
 C7 
A   11
 C8 
A   12
 S1 
A   13
 N2 
A   14
 O3 
A   15
 O4 
A   16
 C9 
A   17
 C10
M  END
>  <ref_pdb>  (786) 
Ax0310a

>  <ref_mols>  (786) 
Ax0446a,Ax1080a,Ax0812a,Ax0719a,Ax1140a,Ax0528a,Ax0310a

>  <original SMILES>  (786) 
CCOC(=O)NCc1ccc(S(N)(=O)=O)cc1

>  <rationale>  (786) 
info info set:sulfonimide_joint;hbond:G127; hydroph_interaction:V84+E85+L100; 

>  <experiment>  (786) 
sulfonimide_joint

>  <cluster_label>  (786) 
3

>  <cluster_rank>  (786) 
443

>  <N_interactions>  (786) 
4

>  <∆∆G>  (786) 
-3.415603

>  <comRMSD>  (786) 
0.908315

>  <ROCS_TanimotoCombo>  (786) 
0.333

>  <ROCS_ShapeTanimoto>  (786) 
0.225

>  <ROCS_ColorTanimoto>  (786) 
0.108

$$$$
EN300_7551269
     RDKit          3D

 10 10  0  0  0  0  0  0  0  0999 V2000
   30.4443    8.6299    9.4956 C   0  0  0  0  0  0  0  0  0  0  0  0
   30.3624    8.7661    8.0382 C   0  0  0  0  0  0  0  0  0  0  0  0
   31.3785    9.6531    7.3543 C   0  0  0  0  0  0  0  0  0  0  0  0
   32.2986    8.9569    6.6715 N   0  0  0  0  0  0  0  0  0  0  0  0
   33.2172    9.6674    6.0106 C   0  0  0  0  0  0  0  0  0  0  0  0
   34.1401    8.9927    5.3133 F   0  0  0  0  0  0  0  0  0  0  0  0
   33.2941   11.1944    5.9952 C   0  0  0  0  0  0  0  0  0  0  0  0
   32.3276   11.8833    6.7255 C   0  0  0  0  0  0  0  0  0  0  0  0
   31.3360   11.2053    7.4293 C   0  0  0  0  0  0  0  0  0  0  0  0
   30.3782   11.9393    8.1416 N   0  0  0  0  0  0  0  0  0  0  0  0
  1  2  3  0
  2  3  1  0
  3  4  2  0
  4  5  1  0
  5  6  1  0
  5  7  2  0
  7  8  1  0
  8  9  2  0
  9 10  1  0
  9  3  1  0
A    1
 C1 
A    2
 C2 
A    3
 C3 
A    4
 N1 
A    5
 C4 
A    6
 F1 
A    7
 C5 
A    8
 C6 
A    9
 C7 
A   10
 N2 
M  END
>  <ref_pdb>  (787) 
Ax0310a

>  <ref_mols>  (787) 
Ax0446a,Ax1080a,Ax0812a,Ax0719a,Ax1140a,Ax0528a,Ax0310a

>  <original SMILES>  (787) 
C#Cc1nc(F)ccc1N

>  <rationale>  (787) 
info info set:bb_densepocket2;hbond:S125; hydroph_interaction:V124; 

>  <experiment>  (787) 
bb_densepocket2

>  <cluster_label>  (787) 
3

>  <cluster_rank>  (787) 
444

>  <N_interactions>  (787) 
2

>  <∆∆G>  (787) 
-1.591179

>  <comRMSD>  (787) 
0.474187

>  <ROCS_TanimotoCombo>  (787) 
0.626

>  <ROCS_ShapeTanimoto>  (787) 
0.212

>  <ROCS_ColorTanimoto>  (787) 
0.415

$$$$
EN300_6472337
     RDKit          3D

 18 19  0  0  0  0  0  0  0  0999 V2000
   30.9108    8.2204    8.1857 C   0  0  0  0  0  0  0  0  0  0  0  0
   32.1084    8.4750    7.4572 O   0  0  0  0  0  0  0  0  0  0  0  0
   32.0363    9.7942    7.2031 C   0  0  0  0  0  0  0  0  0  0  0  0
   32.8061   10.6015    6.1621 C   0  0  0  0  0  0  0  0  0  0  0  0
   33.7456   10.0152    5.2955 C   0  0  0  0  0  0  0  0  0  0  0  0
   33.3941   10.4829    3.9801 O   0  0  0  0  0  0  0  0  0  0  0  0
   34.6107   10.7719    3.3313 C   0  0  0  0  0  0  0  0  0  0  0  0
   35.4120   11.1767    4.5616 C   0  0  0  0  0  0  0  0  0  0  0  0
   34.9630   10.1545    5.4507 O   0  0  0  0  0  0  0  0  0  0  0  0
   32.3916   12.2663    6.1862 S   0  0  0  0  0  0  0  0  0  0  0  0
   31.2610   12.0710    7.4663 C   0  0  0  0  0  0  0  0  0  0  0  0
   30.4273   13.5205    7.9873 S   0  0  0  0  0  6  0  0  0  0  0  0
   29.1049   13.2312    8.9515 N   0  0  0  0  0  0  0  0  0  0  0  0
   31.3486   14.3113    8.7761 O   0  0  0  0  0  0  0  0  0  0  0  0
   29.7771   13.9509    6.7745 O   0  0  0  0  0  0  0  0  0  0  0  0
   31.1786   10.6442    7.9380 C   0  0  0  0  0  0  0  0  0  0  0  0
   30.3647   10.3076    8.9631 O   0  0  0  0  0  0  0  0  0  0  0  0
   29.1137    9.6992    8.6873 C   0  0  0  0  0  0  0  0  0  0  0  0
  1  2  1  0
  2  3  1  0
  3  4  2  0
  4  5  1  0
  5  6  1  0
  6  7  1  0
  7  8  1  0
  8  9  1  0
  4 10  1  0
 10 11  1  0
 11 12  1  0
 12 13  1  0
 12 14  2  0
 12 15  2  0
 11 16  2  0
 16 17  1  0
 17 18  1  0
 16  3  1  0
  9  5  1  0
A    1
 C1 
A    2
 O1 
A    3
 C2 
A    4
 C3 
A    5
 C4 
A    6
 O2 
A    7
 C5 
A    8
 C6 
A    9
 O3 
A   10
 S1 
A   11
 C7 
A   12
 S2 
A   13
 N1 
A   14
 O4 
A   15
 O5 
A   16
 C8 
A   17
 O6 
A   18
 C9 
M  END
>  <ref_pdb>  (788) 
Ax0310a

>  <ref_mols>  (788) 
Ax0446a,Ax1080a,Ax0812a,Ax0719a,Ax1140a,Ax0528a,Ax0310a

>  <original SMILES>  (788) 
COc1c(C2OCCO2)sc(S(N)(=O)=O)c1OC

>  <rationale>  (788) 
info info set:sulfonimide_whole;hbond:S87+S125; 

>  <experiment>  (788) 
sulfonimide_whole

>  <cluster_label>  (788) 
3

>  <cluster_rank>  (788) 
445

>  <N_interactions>  (788) 
2

>  <∆∆G>  (788) 
-6.926837

>  <comRMSD>  (788) 
0.533988

>  <ROCS_TanimotoCombo>  (788) 
0.37

>  <ROCS_ShapeTanimoto>  (788) 
0.203

>  <ROCS_ColorTanimoto>  (788) 
0.168

$$$$
EN300_796516
     RDKit          3D

 11 11  0  0  0  0  0  0  0  0999 V2000
   29.2642    8.1592    8.3525 C   0  0  0  0  0  0  0  0  0  0  0  0
   30.1451    9.0454    9.0382 C   0  0  0  0  0  0  0  0  0  0  0  0
   30.9859    8.0181    9.4044 C   0  0  0  0  0  0  0  0  0  0  0  0
   30.7217   10.2022    8.2656 C   0  0  0  0  0  0  0  0  0  0  0  0
   30.3495   11.3343    8.5390 O   0  0  0  0  0  0  0  0  0  0  0  0
   31.7733   10.0475    7.1821 C   0  0  0  0  0  0  0  0  0  0  0  0
   31.9396   11.3445    6.4502 C   0  0  0  0  0  0  0  0  0  0  0  0
   33.1300   11.1509    5.2677 S   0  0  0  0  0  0  0  0  0  0  0  0
   33.3348    9.4999    5.7515 C   0  0  0  0  0  0  0  0  0  0  0  0
   34.2474    8.7636    5.1071 N   0  0  0  0  0  0  0  0  0  0  0  0
   32.5800    9.0253    6.7494 N   0  0  0  0  0  0  0  0  0  0  0  0
  1  2  1  0
  2  3  1  0
  2  4  1  0
  4  5  2  0
  4  6  1  0
  6  7  2  0
  7  8  1  0
  8  9  1  0
  9 10  1  0
  9 11  2  0
 11  6  1  0
A    1
 C1 
A    2
 C2 
A    3
 C3 
A    4
 C4 
A    5
 O1 
A    6
 C5 
A    7
 C6 
A    8
 S1 
A    9
 C7 
A   10
 N1 
A   11
 N2 
M  END
>  <ref_pdb>  (789) 
Ax0310a

>  <ref_mols>  (789) 
Ax0446a,Ax1080a,Ax0812a,Ax0719a,Ax1140a,Ax0528a,Ax0310a

>  <original SMILES>  (789) 
CC(C)C(=O)c1csc(N)n1

>  <rationale>  (789) 
info info set:bb_densepocket2;hbond:S105; hydroph_interaction:V124+D109; 

>  <experiment>  (789) 
bb_densepocket2

>  <cluster_label>  (789) 
3

>  <cluster_rank>  (789) 
446

>  <N_interactions>  (789) 
3

>  <∆∆G>  (789) 
-0.882044

>  <comRMSD>  (789) 
0.739279

>  <ROCS_TanimotoCombo>  (789) 
0.662

>  <ROCS_ShapeTanimoto>  (789) 
0.184

>  <ROCS_ColorTanimoto>  (789) 
0.477

$$$$
EN300_27723275
     RDKit          3D

 14 14  0  0  0  0  0  0  0  0999 V2000
   28.8561   14.6520    8.3675 C   0  0  0  0  0  0  0  0  0  0  0  0
   28.8762   13.1557    7.9922 C   0  0  0  0  0  0  0  0  0  0  0  0
   30.1923   12.8512    7.4607 O   0  0  0  0  0  0  0  0  0  0  0  0
   30.5256   11.5177    7.9130 C   0  0  0  0  0  0  0  0  0  0  0  0
   30.0032   10.9291    8.7998 O   0  0  0  0  0  0  0  0  0  0  0  0
   31.6141   10.8508    7.1410 C   0  0  0  0  0  0  0  0  0  0  0  0
   32.4631   11.6235    6.3948 N   0  0  0  0  0  0  0  0  0  0  0  0
   33.3940   10.9239    5.7330 C   0  0  0  0  0  0  0  0  0  0  0  0
   34.4932   11.8258    4.7828 Cl  0  0  0  0  0  0  0  0  0  0  0  0
   33.4373    9.4078    5.8465 C   0  0  0  0  0  0  0  0  0  0  0  0
   34.4618    8.7436    5.0917 O   0  0  0  0  0  0  0  0  0  0  0  0
   32.5920    8.7096    6.5934 N   0  0  0  0  0  0  0  0  0  0  0  0
   31.6484    9.4469    7.2683 C   0  0  0  0  0  0  0  0  0  0  0  0
   30.7527    8.7132    8.0641 N   0  0  0  0  0  0  0  0  0  0  0  0
  1  2  1  0
  2  3  1  0
  3  4  1  0
  4  5  2  0
  4  6  1  0
  6  7  2  0
  7  8  1  0
  8  9  1  0
  8 10  2  0
 10 11  1  0
 10 12  1  0
 12 13  2  0
 13 14  1  0
 13  6  1  0
A    1
 C1 
A    2
 C2 
A    3
 O1 
A    4
 C3 
A    5
 O2 
A    6
 C4 
A    7
 N1 
A    8
 C5 
A    9
CL1 
A   10
 C6 
A   11
 O3 
A   12
 N2 
A   13
 C7 
A   14
 N3 
M  END
>  <ref_pdb>  (790) 
Ax0310a

>  <ref_mols>  (790) 
Ax0446a,Ax1080a,Ax0812a,Ax0719a,Ax1140a,Ax0528a,Ax0310a

>  <original SMILES>  (790) 
CCOC(=O)c1nc(Cl)c(O)nc1N

>  <rationale>  (790) 
info info set:bb_densepocket2;hbond:S105+G127; 

>  <experiment>  (790) 
bb_densepocket2

>  <cluster_label>  (790) 
3

>  <cluster_rank>  (790) 
447

>  <N_interactions>  (790) 
3

>  <∆∆G>  (790) 
-3.175528

>  <comRMSD>  (790) 
0.503491

>  <ROCS_TanimotoCombo>  (790) 
0.64

>  <ROCS_ShapeTanimoto>  (790) 
0.258

>  <ROCS_ColorTanimoto>  (790) 
0.382

$$$$
Z1390479257
     RDKit          3D

 20 21  0  0  0  0  0  0  0  0999 V2000
   34.4169    9.3215    4.5012 C   0  0  0  0  0  0  0  0  0  0  0  0
   33.4121    9.7718    5.5203 C   0  0  0  0  0  0  0  0  0  0  0  0
   32.9156    8.7640    6.4119 N   0  0  0  0  0  0  0  0  0  0  0  0
   32.0147    9.3645    7.2491 C   0  0  0  0  0  0  0  0  0  0  0  0
   31.4159    8.4115    8.2395 C   0  0  0  0  0  0  0  0  0  0  0  0
   30.1099    8.7182    8.7786 C   0  0  0  0  0  0  0  0  0  0  0  0
   29.1484    7.7582    8.4962 C   0  0  0  0  0  0  0  0  0  0  0  0
   29.8641    8.3410   10.1484 C   0  0  0  0  0  0  0  0  0  0  0  0
   31.8127   10.8553    7.0087 C   0  0  0  0  0  0  0  0  0  0  0  0
   30.9795   11.6869    7.6961 C   0  0  0  0  0  0  0  0  0  0  0  0
   30.3903   11.2800    8.6596 O   0  0  0  0  0  0  0  0  0  0  0  0
   30.8388   12.9242    7.2414 N   0  0  0  0  0  0  0  0  0  0  0  0
   29.8521   13.7087    7.8267 C   0  0  0  0  0  0  0  0  0  0  0  0
   29.8700   13.9404    9.3434 C   0  0  0  0  0  0  0  0  0  0  0  0
   28.7492   14.7801    9.9154 C   0  0  0  0  0  0  0  0  0  0  0  0
   27.7739   15.2824    8.8623 C   0  0  0  0  0  0  0  0  0  0  0  0
   27.8617   15.0241    7.5459 N   0  0  0  0  0  0  0  0  0  0  0  0
   28.8533   14.2696    7.0465 C   0  0  0  0  0  0  0  0  0  0  0  0
   28.8155   14.0805    5.6855 C   0  0  0  0  0  0  0  0  0  0  0  0
   32.8107   11.3710    5.7100 S   0  0  0  0  0  0  0  0  0  0  0  0
  1  2  1  0
  2  3  2  0
  3  4  1  0
  4  5  1  0
  5  6  1  0
  6  7  1  0
  6  8  1  0
  4  9  2  0
  9 10  1  0
 10 11  2  0
 10 12  1  0
 12 13  1  0
 13 14  2  0
 14 15  1  0
 15 16  2  0
 16 17  1  0
 17 18  2  0
 18 19  1  0
  9 20  1  0
 20  2  1  0
 18 13  1  0
A    1
 C1 
A    2
 C2 
A    3
 N1 
A    4
 C3 
A    5
 C4 
A    6
 C5 
A    7
 C6 
A    8
 C7 
A    9
 C8 
A   10
 C9 
A   11
 O1 
A   12
 N2 
A   13
 C10
A   14
 C11
A   15
 C12
A   16
 C13
A   17
 N3 
A   18
 C14
A   19
 C15
A   20
 S1 
M  END
>  <ref_pdb>  (791) 
Ax0310a

>  <ref_mols>  (791) 
Ax0446a,Ax1080a,Ax0812a,Ax0719a,Ax1140a,Ax0528a,Ax0310a

>  <original SMILES>  (791) 
Cc1nc(CC(C)C)c(C(=O)Nc2cccnc2C)s1

>  <rationale>  (791) 
info info set:screening_pocket;hbond:S87; hydroph_interaction:Y90+V124+D109; 

>  <experiment>  (791) 
screening_pocket

>  <cluster_label>  (791) 
3

>  <cluster_rank>  (791) 
448

>  <N_interactions>  (791) 
5

>  <∆∆G>  (791) 
-4.967851

>  <comRMSD>  (791) 
0.660076

>  <ROCS_TanimotoCombo>  (791) 
0.65

>  <ROCS_ShapeTanimoto>  (791) 
0.237

>  <ROCS_ColorTanimoto>  (791) 
0.413

$$$$
Z1172453229
     RDKit          3D

 15 16  0  0  0  0  0  0  0  0999 V2000
   29.3954   13.3397    5.6195 N   0  0  0  0  0  0  0  0  0  0  0  0
   29.5084   13.4064    6.7667 C   0  0  0  0  0  0  0  0  0  0  0  0
   29.6976   13.5580    8.2657 C   0  0  0  0  0  0  0  0  0  0  0  0
   31.1010   13.7050    8.6082 N   0  0  0  0  0  0  0  0  0  0  0  0
   31.5371   14.7729    9.3163 N   0  0  0  0  0  0  0  0  0  0  0  0
   32.8455   14.5170    9.4082 C   0  0  0  0  0  0  0  0  0  0  0  0
   33.2258   13.3681    8.8129 N   0  0  0  0  0  0  0  0  0  0  0  0
   32.0900   12.8906    8.3325 C   0  0  0  0  0  0  0  0  0  0  0  0
   32.0927   11.5874    7.6604 C   0  0  0  0  0  0  0  0  0  0  0  0
   31.0938   10.5874    8.2502 C   0  0  0  0  0  0  0  0  0  0  0  0
   31.1384    9.2056    7.7045 C   0  0  0  0  0  0  0  0  0  0  0  0
   32.1752    9.0018    6.6174 C   0  0  0  0  0  0  0  0  0  0  0  0
   33.0756   10.1059    6.0881 C   0  0  0  0  0  0  0  0  0  0  0  0
   32.9976   11.3665    6.6334 C   0  0  0  0  0  0  0  0  0  0  0  0
   34.0659   12.5672    5.9986 Cl  0  0  0  0  0  0  0  0  0  0  0  0
  1  2  3  0
  2  3  1  0
  3  4  1  0
  4  5  1  0
  5  6  2  0
  6  7  1  0
  7  8  2  0
  8  9  1  0
  9 10  2  0
 10 11  1  0
 11 12  2  0
 12 13  1  0
 13 14  2  0
 14 15  1  0
  8  4  1  0
 14  9  1  0
A    1
 N1 
A    2
 C1 
A    3
 C2 
A    4
 N2 
A    5
 N3 
A    6
 C3 
A    7
 N4 
A    8
 C4 
A    9
 C5 
A   10
 C6 
A   11
 C7 
A   12
 C8 
A   13
 C9 
A   14
 C10
A   15
CL1 
M  END
>  <ref_pdb>  (792) 
Ax0310a

>  <ref_mols>  (792) 
Ax0446a,Ax1080a,Ax0812a,Ax0719a,Ax1140a,Ax0528a,Ax0310a

>  <original SMILES>  (792) 
N#CCn1ncnc1-c1ccccc1Cl

>  <rationale>  (792) 
info info set:3d;hbond:S87+G127; 

>  <experiment>  (792) 
3d

>  <cluster_label>  (792) 
3

>  <cluster_rank>  (792) 
449

>  <N_interactions>  (792) 
2

>  <∆∆G>  (792) 
-3.852807

>  <comRMSD>  (792) 
0.418492

>  <ROCS_TanimotoCombo>  (792) 
0.323

>  <ROCS_ShapeTanimoto>  (792) 
0.202

>  <ROCS_ColorTanimoto>  (792) 
0.121

$$$$
Z8820654355
     RDKit          3D

 19 21  0  0  0  0  0  0  0  0999 V2000
   32.2845   13.2272    5.0794 C   0  0  0  0  0  0  0  0  0  0  0  0
   32.4143   11.8301    5.5859 C   0  0  0  0  0  0  0  0  0  0  0  0
   31.6170   11.1572    6.7342 C   0  0  0  0  0  0  0  0  0  0  0  0
   30.7102   12.0218    7.3013 N   0  0  0  0  0  0  0  0  0  0  0  0
   29.8914   11.6801    8.1960 C   0  0  0  0  0  0  0  0  0  0  0  0
   30.0786   10.6646    8.8484 O   0  0  0  0  0  0  0  0  0  0  0  0
   28.6723   12.5744    8.3898 C   0  0  0  0  0  0  0  0  0  0  0  0
   28.9703   13.9123    8.5063 N   0  0  0  0  0  0  0  0  0  0  0  0
   29.9244   14.3928    9.3153 C   0  0  0  0  0  0  0  0  0  0  0  0
   29.8151   15.7082    9.0815 C   0  0  0  0  0  0  0  0  0  0  0  0
   28.8487   16.0497    8.1772 N   0  0  0  0  0  0  0  0  0  0  0  0
   28.3412   14.9086    7.8354 C   0  0  0  0  0  0  0  0  0  0  0  0
   31.7690    9.8450    7.1629 C   0  0  0  0  0  0  0  0  0  0  0  0
   32.6103    8.9445    6.6714 N   0  0  0  0  0  0  0  0  0  0  0  0
   33.3469    9.4155    5.6773 C   0  0  0  0  0  0  0  0  0  0  0  0
   34.2732    8.6418    5.0321 N   0  0  0  0  0  0  0  0  0  0  0  0
   34.9210    9.3140    4.0386 C   0  0  0  0  0  0  0  0  0  0  0  0
   34.4079   10.6011    4.0111 C   0  0  0  0  0  0  0  0  0  0  0  0
   33.3493   10.6728    5.1120 C   0  0  0  0  0  0  0  0  0  0  0  0
  1  2  1  0
  2  3  2  0
  3  4  1  0
  4  5  1  0
  5  6  2  0
  5  7  1  0
  7  8  1  0
  8  9  1  0
  9 10  2  0
 10 11  1  0
 11 12  2  0
  3 13  1  0
 13 14  2  0
 14 15  1  0
 15 16  1  0
 16 17  1  0
 17 18  2  0
 18 19  1  0
 19  2  1  0
 12  8  1  0
 19 15  2  0
A    1
 C1 
A    2
 C2 
A    3
 C3 
A    4
 N1 
A    5
 C4 
A    6
 O1 
A    7
 C5 
A    8
 N2 
A    9
 C6 
A   10
 C7 
A   11
 N3 
A   12
 C8 
A   13
 C9 
A   14
 N4 
A   15
 C10
A   16
 N5 
A   17
 C11
A   18
 C12
A   19
 C13
M  END
>  <ref_pdb>  (793) 
Ax0310a

>  <ref_mols>  (793) 
Ax0446a,Ax1080a,Ax0812a,Ax0719a,Ax1140a,Ax0528a,Ax0310a

>  <original SMILES>  (793) 
Cc1c(NC(=O)Cn2ccnc2)cnc2[nH]ccc12

>  <rationale>  (793) 
info info set:screening_pocket;hbond:S87+Y90; hydroph_interaction:P107; 

>  <experiment>  (793) 
screening_pocket

>  <cluster_label>  (793) 
3

>  <cluster_rank>  (793) 
450

>  <N_interactions>  (793) 
3

>  <∆∆G>  (793) 
-1.884392

>  <comRMSD>  (793) 
0.709485

>  <ROCS_TanimotoCombo>  (793) 
0.659

>  <ROCS_ShapeTanimoto>  (793) 
0.246

>  <ROCS_ColorTanimoto>  (793) 
0.413

$$$$
EN300_15407
     RDKit          3D

 16 16  0  0  0  0  0  0  0  0999 V2000
   33.4344   14.6539    9.1246 C   0  0  0  0  0  0  0  0  0  0  0  0
   33.7491   13.5508    7.7655 S   0  0  0  0  0  6  0  0  0  0  0  0
   33.3870   12.2769    8.2523 O   0  0  0  0  0  0  0  0  0  0  0  0
   33.2345   13.9673    6.4865 O   0  0  0  0  0  0  0  0  0  0  0  0
   35.4056   13.6912    7.5882 N   0  0  0  0  0  0  0  0  0  0  0  0
   36.2150   14.0593    8.6075 C   0  0  0  0  0  0  0  0  0  0  0  0
   35.8835   13.2355    9.8372 C   0  0  0  0  0  0  0  0  0  0  0  0
   36.9837   12.7215   10.7555 C   0  0  0  0  0  0  0  0  0  0  0  0
   36.7862   11.3753   11.6562 C   0  0  0  0  0  0  0  0  0  0  0  0
   38.1728   11.4684   12.4007 C   0  0  0  0  0  0  0  0  0  0  0  0
   39.0067   12.5949   12.0140 C   0  0  0  0  0  0  0  0  0  0  0  0
   40.2717   12.4626   12.9277 C   0  0  0  0  0  0  0  0  0  0  0  0
   40.2683   11.8499   13.9900 O   0  0  0  0  0  0  0  0  0  0  0  0
   41.5298   13.1676   12.5088 C   0  0  0  0  0  0  0  0  0  0  0  0
   42.6034   12.0298   11.6837 Cl  0  0  0  0  0  0  0  0  0  0  0  0
   38.4469   13.6233   10.8350 S   0  0  0  0  0  0  0  0  0  0  0  0
  1  2  1  0
  2  3  2  0
  2  4  2  0
  2  5  1  0
  5  6  1  0
  6  7  1  0
  7  8  1  0
  8  9  2  0
  9 10  1  0
 10 11  2  0
 11 12  1  0
 12 13  2  0
 12 14  1  0
 14 15  1  0
 11 16  1  0
 16  8  1  0
A    1
 C1 
A    2
 S1 
A    3
 O1 
A    4
 O2 
A    5
 N1 
A    6
 C2 
A    7
 C3 
A    8
 C4 
A    9
 C5 
A   10
 C6 
A   11
 C7 
A   12
 C8 
A   13
 O3 
A   14
 C9 
A   15
CL1 
A   16
 S2 
M  END
>  <ref_pdb>  (794) 
Ax0310a

>  <ref_mols>  (794) 
Ax0446a,Ax1080a,Ax0812a,Ax0719a,Ax1140a,Ax0528a,Ax0310a

>  <original SMILES>  (794) 
CS(=O)(=O)NCCc1ccc(C(=O)CCl)s1

>  <rationale>  (794) 
info info set:sulfonimide_whole;hbond:G127; hydroph_interaction:V84+L100; 

>  <experiment>  (794) 
sulfonimide_whole

>  <cluster_label>  (794) 
3

>  <cluster_rank>  (794) 
451

>  <N_interactions>  (794) 
4

>  <∆∆G>  (794) 
-4.923441

>  <comRMSD>  (794) 
0.846983

>  <ROCS_TanimotoCombo>  (794) 
0.333

>  <ROCS_ShapeTanimoto>  (794) 
0.193

>  <ROCS_ColorTanimoto>  (794) 
0.14

$$$$
Z1416190753
     RDKit          3D

 14 16  0  0  0  0  0  0  0  0999 V2000
   29.3582    9.2660    9.1535 F   0  0  0  0  0  0  0  0  0  0  0  0
   29.6710   10.2586    8.3116 C   0  0  0  0  0  0  0  0  0  0  0  0
   28.6825   11.3600    8.0508 C   0  0  0  0  0  0  0  0  0  0  0  0
   28.9703   12.4095    7.1672 C   0  0  0  0  0  0  0  0  0  0  0  0
   30.1956   12.4661    6.5050 C   0  0  0  0  0  0  0  0  0  0  0  0
   31.2098   11.3568    6.7662 C   0  0  0  0  0  0  0  0  0  0  0  0
   30.8977   10.2994    7.6525 C   0  0  0  0  0  0  0  0  0  0  0  0
   31.9439    9.3741    7.7459 N   0  0  0  0  0  0  0  0  0  0  0  0
   32.7321    9.6795    6.5313 C   0  0  0  0  0  0  0  0  0  0  0  0
   32.5984   11.1730    6.2239 C   0  0  0  0  0  0  0  0  0  0  0  0
   33.4453   12.2856    6.9345 C   0  0  0  0  0  0  0  0  0  0  0  0
   34.6152   12.6784    6.0067 C   0  0  0  0  0  0  0  0  0  0  0  0
   34.5825   11.6194    4.9524 C   0  0  0  0  0  0  0  0  0  0  0  0
   33.0670   11.4279    4.7773 C   0  0  0  0  0  0  0  0  0  0  0  0
  1  2  1  0
  2  3  2  0
  3  4  1  0
  4  5  2  0
  5  6  1  0
  6  7  2  0
  7  8  1  0
  8  9  1  0
  9 10  1  0
 10 11  1  0
 11 12  1  0
 12 13  1  0
 13 14  1  0
  7  2  1  0
 14 10  1  0
 10  6  1  0
A    1
 F1 
A    2
 C1 
A    3
 C2 
A    4
 C3 
A    5
 C4 
A    6
 C5 
A    7
 C6 
A    8
 N1 
A    9
 C7 
A   10
 C8 
A   11
 C9 
A   12
 C10
A   13
 C11
A   14
 C12
M  END
>  <ref_pdb>  (795) 
Ax0310a

>  <ref_mols>  (795) 
Ax0446a,Ax1080a,Ax0812a,Ax0719a,Ax1140a,Ax0528a,Ax0310a

>  <original SMILES>  (795) 
Fc1cccc2c1NCC21CCCC1

>  <rationale>  (795) 
info info set:3d;hbond:T126; hydroph_interaction:P107; 

>  <experiment>  (795) 
3d

>  <cluster_label>  (795) 
3

>  <cluster_rank>  (795) 
452

>  <N_interactions>  (795) 
3

>  <∆∆G>  (795) 
-1.961794

>  <comRMSD>  (795) 
0.715027

>  <ROCS_TanimotoCombo>  (795) 
0.309

>  <ROCS_ShapeTanimoto>  (795) 
0.188

>  <ROCS_ColorTanimoto>  (795) 
0.12

$$$$
EN300_1116110
     RDKit          3D

 14 14  0  0  0  0  0  0  0  0999 V2000
   28.6519   15.6307    7.5716 C   0  0  0  0  0  0  0  0  0  0  0  0
   29.4062   15.5874    8.7393 O   0  0  0  0  0  0  0  0  0  0  0  0
   28.9108   14.5498    9.5421 C   0  0  0  0  0  0  0  0  0  0  0  0
   28.5301   13.3937    8.6451 C   0  0  0  0  0  0  0  0  0  0  0  0
   29.8342   13.0760    7.9043 C   0  0  0  0  0  0  0  0  0  0  0  0
   30.1530   11.6868    8.1384 N   0  0  0  0  0  0  0  0  0  0  0  0
   31.1639   11.0904    7.3784 C   0  0  0  0  0  0  0  0  0  0  0  0
   32.0709   11.8759    6.3919 C   0  0  0  0  0  0  0  0  0  0  0  0
   33.1070   11.1715    5.6113 C   0  0  0  0  0  0  0  0  0  0  0  0
   33.2578    9.8097    5.7673 C   0  0  0  0  0  0  0  0  0  0  0  0
   34.4674    9.0229    4.8329 Cl  0  0  0  0  0  0  0  0  0  0  0  0
   32.4339    9.1018    6.6709 C   0  0  0  0  0  0  0  0  0  0  0  0
   31.4240    9.7014    7.4527 C   0  0  0  0  0  0  0  0  0  0  0  0
   30.6612    8.8844    8.3315 N   0  0  0  0  0  0  0  0  0  0  0  0
  1  2  1  0
  2  3  1  0
  3  4  1  0
  4  5  1  0
  5  6  1  0
  6  7  1  0
  7  8  2  0
  8  9  1  0
  9 10  2  0
 10 11  1  0
 10 12  1  0
 12 13  2  0
 13 14  1  0
 13  7  1  0
A    1
 C1 
A    2
 O1 
A    3
 C2 
A    4
 C3 
A    5
 C4 
A    6
 N1 
A    7
 C5 
A    8
 C6 
A    9
 C7 
A   10
 C8 
A   11
CL1 
A   12
 C9 
A   13
 C10
A   14
 N2 
M  END
>  <ref_pdb>  (796) 
Ax0310a

>  <ref_mols>  (796) 
Ax0446a,Ax1080a,Ax0812a,Ax0719a,Ax1140a,Ax0528a,Ax0310a

>  <original SMILES>  (796) 
COCCCNc1ccc(Cl)cc1N

>  <rationale>  (796) 
info info set:bb_densepocket2;hbond:S87+S105+S125; hydroph_interaction:P107; 

>  <experiment>  (796) 
bb_densepocket2

>  <cluster_label>  (796) 
3

>  <cluster_rank>  (796) 
453

>  <N_interactions>  (796) 
4

>  <∆∆G>  (796) 
-6.500189

>  <comRMSD>  (796) 
0.6644

>  <ROCS_TanimotoCombo>  (796) 
0.625

>  <ROCS_ShapeTanimoto>  (796) 
0.226

>  <ROCS_ColorTanimoto>  (796) 
0.399

$$$$
EN300_252928
     RDKit          3D

 14 15  0  0  0  0  0  0  0  0999 V2000
   29.0762   13.8784    9.3686 N   0  0  0  0  0  0  0  0  0  0  0  0
   30.3128   13.5543    8.2931 S   0  0  0  0  0  6  0  0  0  0  0  0
   31.5524   14.0577    8.8464 O   0  0  0  0  0  0  0  0  0  0  0  0
   29.7976   13.9526    7.0146 O   0  0  0  0  0  0  0  0  0  0  0  0
   30.2907   11.7910    8.1855 C   0  0  0  0  0  0  0  0  0  0  0  0
   31.3876   11.1658    7.4348 C   0  0  0  0  0  0  0  0  0  0  0  0
   31.3540    9.6781    7.5024 C   0  0  0  0  0  0  0  0  0  0  0  0
   32.4239    9.0223    6.7161 C   0  0  0  0  0  0  0  0  0  0  0  0
   33.4457    9.8414    5.9263 C   0  0  0  0  0  0  0  0  0  0  0  0
   33.3781   11.2214    5.9772 C   0  0  0  0  0  0  0  0  0  0  0  0
   32.2976   11.9439    6.7637 C   0  0  0  0  0  0  0  0  0  0  0  0
   34.5071   11.8177    5.1533 C   0  0  0  0  0  0  0  0  0  0  0  0
   35.3294   10.6747    4.8146 O   0  0  0  0  0  0  0  0  0  0  0  0
   34.6176    9.4808    5.0111 C   0  0  0  0  0  0  0  0  0  0  0  0
  1  2  1  0
  2  3  2  0
  2  4  2  0
  2  5  1  0
  5  6  1  0
  6  7  2  0
  7  8  1  0
  8  9  2  0
  9 10  1  0
 10 11  2  0
 10 12  1  0
 12 13  1  0
 13 14  1  0
 11  6  1  0
 14  9  1  0
A    1
 N1 
A    2
 S1 
A    3
 O1 
A    4
 O2 
A    5
 C1 
A    6
 C2 
A    7
 C3 
A    8
 C4 
A    9
 C5 
A   10
 C6 
A   11
 C7 
A   12
 C8 
A   13
 O3 
A   14
 C9 
M  END
>  <ref_pdb>  (797) 
Ax0310a

>  <ref_mols>  (797) 
Ax0446a,Ax1080a,Ax0812a,Ax0719a,Ax1140a,Ax0528a,Ax0310a

>  <original SMILES>  (797) 
NS(=O)(=O)Cc1ccc2c(c1)COC2

>  <rationale>  (797) 
info info set:sulfonimide_whole;hbond:S87+S125; 

>  <experiment>  (797) 
sulfonimide_whole

>  <cluster_label>  (797) 
3

>  <cluster_rank>  (797) 
454

>  <N_interactions>  (797) 
2

>  <∆∆G>  (797) 
-5.413967

>  <comRMSD>  (797) 
0.745613

>  <ROCS_TanimotoCombo>  (797) 
0.346

>  <ROCS_ShapeTanimoto>  (797) 
0.178

>  <ROCS_ColorTanimoto>  (797) 
0.168

$$$$
EN300_218793
     RDKit          3D

 14 14  0  0  0  0  0  0  0  0999 V2000
   33.0267   12.5022    4.2899 N   0  0  0  0  0  0  0  0  0  0  0  0
   33.3877   12.4109    5.6076 C   0  0  0  0  0  0  0  0  0  0  0  0
   34.4888   13.1752    6.0879 O   0  0  0  0  0  0  0  0  0  0  0  0
   32.5492   11.4877    6.4150 C   0  0  0  0  0  0  0  0  0  0  0  0
   32.7970    9.9647    6.2670 C   0  0  0  0  0  0  0  0  0  0  0  0
   31.9882    8.9749    7.0527 C   0  0  0  0  0  0  0  0  0  0  0  0
   30.9660    9.5178    7.9374 C   0  0  0  0  0  0  0  0  0  0  0  0
   30.7486   10.8826    8.0644 C   0  0  0  0  0  0  0  0  0  0  0  0
   31.5563   11.9538    7.2933 C   0  0  0  0  0  0  0  0  0  0  0  0
   31.3316   13.3119    7.4573 C   0  0  0  0  0  0  0  0  0  0  0  0
   31.9093   13.9741    9.0212 S   0  0  0  0  0  6  0  0  0  0  0  0
   30.5077   13.7567    9.8748 N   0  0  0  0  0  0  0  0  0  0  0  0
   31.9224   15.3883    9.3014 O   0  0  0  0  0  0  0  0  0  0  0  0
   33.0598   13.1839    9.3800 O   0  0  0  0  0  0  0  0  0  0  0  0
  1  2  1  0
  2  3  2  0
  2  4  1  0
  4  5  2  0
  5  6  1  0
  6  7  2  0
  7  8  1  0
  8  9  2  0
  9 10  1  0
 10 11  1  0
 11 12  1  0
 11 13  2  0
 11 14  2  0
  9  4  1  0
A    1
 N1 
A    2
 C1 
A    3
 O1 
A    4
 C2 
A    5
 C3 
A    6
 C4 
A    7
 C5 
A    8
 C6 
A    9
 C7 
A   10
 C8 
A   11
 S1 
A   12
 N2 
A   13
 O2 
A   14
 O3 
M  END
>  <ref_pdb>  (798) 
Ax0310a

>  <ref_mols>  (798) 
Ax0446a,Ax1080a,Ax0812a,Ax0719a,Ax1140a,Ax0528a,Ax0310a

>  <original SMILES>  (798) 
NC(=O)c1ccccc1CS(N)(=O)=O

>  <rationale>  (798) 
info info set:sulfonimide_whole;hbond:S87+S125+G127; 

>  <experiment>  (798) 
sulfonimide_whole

>  <cluster_label>  (798) 
3

>  <cluster_rank>  (798) 
455

>  <N_interactions>  (798) 
3

>  <∆∆G>  (798) 
-5.404339

>  <comRMSD>  (798) 
0.41359

>  <ROCS_TanimotoCombo>  (798) 
0.344

>  <ROCS_ShapeTanimoto>  (798) 
0.199

>  <ROCS_ColorTanimoto>  (798) 
0.145

$$$$
Z1134990361
     RDKit          3D

 18 19  0  0  0  0  0  0  0  0999 V2000
   29.6269   13.7485    4.8847 C   0  0  0  0  0  0  0  0  0  0  0  0
   30.2646   13.1299    5.9991 O   0  0  0  0  0  0  0  0  0  0  0  0
   29.6128   13.6631    7.1315 C   0  0  0  0  0  0  0  0  0  0  0  0
   28.1884   14.0600    7.0400 C   0  0  0  0  0  0  0  0  0  0  0  0
   27.5922   14.5815    8.1592 C   0  0  0  0  0  0  0  0  0  0  0  0
   28.2656   14.7361    9.3434 C   0  0  0  0  0  0  0  0  0  0  0  0
   27.6396   15.2327   10.4290 C   0  0  0  0  0  0  0  0  0  0  0  0
   29.5970   14.3666    9.4117 C   0  0  0  0  0  0  0  0  0  0  0  0
   30.3137   13.8330    8.3463 C   0  0  0  0  0  0  0  0  0  0  0  0
   31.6330   13.4904    8.4613 C   0  0  0  0  0  0  0  0  0  0  0  0
   31.9475   12.2865    7.7763 N   0  0  0  0  0  0  0  0  0  0  0  0
   31.1389   11.1814    7.9446 C   0  0  0  0  0  0  0  0  0  0  0  0
   31.4682   10.0615    7.3419 C   0  0  0  0  0  0  0  0  0  0  0  0
   32.6559   10.0643    6.5243 C   0  0  0  0  0  0  0  0  0  0  0  0
   33.1238    8.8259    6.0288 C   0  0  0  0  0  0  0  0  0  0  0  0
   33.3188   11.1435    6.2232 C   0  0  0  0  0  0  0  0  0  0  0  0
   32.8596   12.4053    6.7456 C   0  0  0  0  0  0  0  0  0  0  0  0
   33.3060   13.4358    6.2656 O   0  0  0  0  0  0  0  0  0  0  0  0
  1  2  1  0
  2  3  1  0
  3  4  2  0
  4  5  1  0
  5  6  2  0
  6  7  1  0
  6  8  1  0
  8  9  2  0
  9 10  1  0
 10 11  1  0
 11 12  1  0
 12 13  2  0
 13 14  1  0
 14 15  1  0
 14 16  2  0
 16 17  1  0
 17 18  2  0
  9  3  1  0
 17 11  1  0
A    1
 C1 
A    2
 O1 
A    3
 C2 
A    4
 C3 
A    5
 C4 
A    6
 C5 
A    7
 C6 
A    8
 C7 
A    9
 C8 
A   10
 C9 
A   11
 N1 
A   12
 C10
A   13
 C11
A   14
 C12
A   15
 C13
A   16
 C14
A   17
 C15
A   18
 O2 
M  END
>  <ref_pdb>  (799) 
Ax0310a

>  <ref_mols>  (799) 
Ax0446a,Ax1080a,Ax0812a,Ax0719a,Ax1140a,Ax0528a,Ax0310a

>  <original SMILES>  (799) 
COc1ccc(C)cc1Cn1ccc(C)cc1=O

>  <rationale>  (799) 
info info set:3d;hydroph_interaction:Y89+Y90; 

>  <experiment>  (799) 
3d

>  <cluster_label>  (799) 
3

>  <cluster_rank>  (799) 
456

>  <N_interactions>  (799) 
2

>  <∆∆G>  (799) 
-7.121381

>  <comRMSD>  (799) 
0.642198

>  <ROCS_TanimotoCombo>  (799) 
0.335

>  <ROCS_ShapeTanimoto>  (799) 
0.218

>  <ROCS_ColorTanimoto>  (799) 
0.116

$$$$
EN300_50288
     RDKit          3D

 14 15  0  0  0  0  0  0  0  0999 V2000
   29.4324   13.8151    9.2632 N   0  0  0  0  0  0  0  0  0  0  0  0
   30.5297   13.2863    8.1063 S   0  0  0  0  0  6  0  0  0  0  0  0
   29.9429   13.6984    6.8590 O   0  0  0  0  0  0  0  0  0  0  0  0
   31.8103   13.7559    8.5835 O   0  0  0  0  0  0  0  0  0  0  0  0
   30.3889   11.5703    8.1601 C   0  0  0  0  0  0  0  0  0  0  0  0
   31.4373   10.8459    7.3528 C   0  0  0  0  0  0  0  0  0  0  0  0
   31.2221    9.5514    7.1662 N   0  0  0  0  0  0  0  0  0  0  0  0
   32.2479    9.0882    6.3860 O   0  0  0  0  0  0  0  0  0  0  0  0
   33.0815   10.1032    6.1273 C   0  0  0  0  0  0  0  0  0  0  0  0
   34.3654   10.0530    5.2911 C   0  0  0  0  0  0  0  0  0  0  0  0
   35.1651   11.3604    5.1534 C   0  0  0  0  0  0  0  0  0  0  0  0
   34.6751   12.4952    5.7917 C   0  0  0  0  0  0  0  0  0  0  0  0
   33.5012   12.5081    6.5368 C   0  0  0  0  0  0  0  0  0  0  0  0
   32.6333   11.2590    6.7297 C   0  0  0  0  0  0  0  0  0  0  0  0
  1  2  1  0
  2  3  2  0
  2  4  2  0
  2  5  1  0
  5  6  1  0
  6  7  2  0
  7  8  1  0
  8  9  1  0
  9 10  2  0
 10 11  1  0
 11 12  2  0
 12 13  1  0
 13 14  2  0
 14  6  1  0
 14  9  1  0
A    1
 N1 
A    2
 S1 
A    3
 O1 
A    4
 O2 
A    5
 C1 
A    6
 C2 
A    7
 N2 
A    8
 O3 
A    9
 C3 
A   10
 C4 
A   11
 C5 
A   12
 C6 
A   13
 C7 
A   14
 C8 
M  END
>  <ref_pdb>  (800) 
Ax0310a

>  <ref_mols>  (800) 
Ax0446a,Ax1080a,Ax0812a,Ax0719a,Ax1140a,Ax0528a,Ax0310a

>  <original SMILES>  (800) 
NS(=O)(=O)Cc1noc2ccccc12

>  <rationale>  (800) 
info info set:sulfonimide_whole;hbond:S87+S125; 

>  <experiment>  (800) 
sulfonimide_whole

>  <cluster_label>  (800) 
3

>  <cluster_rank>  (800) 
457

>  <N_interactions>  (800) 
2

>  <∆∆G>  (800) 
-3.894187

>  <comRMSD>  (800) 
0.739372

>  <ROCS_TanimotoCombo>  (800) 
0.351

>  <ROCS_ShapeTanimoto>  (800) 
0.189

>  <ROCS_ColorTanimoto>  (800) 
0.162

$$$$
Z228585282
     RDKit          3D

 17 18  0  0  0  0  0  0  0  0999 V2000
   36.6814   13.5749    5.7051 C   0  0  0  0  0  0  0  0  0  0  0  0
   35.3915   13.5899    6.4443 C   0  0  0  0  0  0  0  0  0  0  0  0
   34.2364   13.2366    5.8141 N   0  0  0  0  0  0  0  0  0  0  0  0
   33.2741   13.3621    6.7919 N   0  0  0  0  0  0  0  0  0  0  0  0
   31.9175   13.0127    6.4554 C   0  0  0  0  0  0  0  0  0  0  0  0
   31.8203   11.6657    6.7647 C   0  0  0  0  0  0  0  0  0  0  0  0
   32.7313   10.7525    6.2469 C   0  0  0  0  0  0  0  0  0  0  0  0
   32.6304    9.4145    6.5707 C   0  0  0  0  0  0  0  0  0  0  0  0
   31.6188    8.9951    7.4235 C   0  0  0  0  0  0  0  0  0  0  0  0
   30.7138    9.9064    7.9376 C   0  0  0  0  0  0  0  0  0  0  0  0
   30.8029   11.2510    7.6044 C   0  0  0  0  0  0  0  0  0  0  0  0
   29.6665   12.3842    8.2186 Cl  0  0  0  0  0  0  0  0  0  0  0  0
   33.7696   13.8035    8.0011 C   0  0  0  0  0  0  0  0  0  0  0  0
   33.0996   14.1199    9.3393 C   0  0  0  0  0  0  0  0  0  0  0  0
   35.1048   13.9079    7.7580 C   0  0  0  0  0  0  0  0  0  0  0  0
   36.0706   14.3150    8.8382 C   0  0  0  0  0  0  0  0  0  0  0  0
   37.3165   13.6416    8.7302 O   0  0  0  0  0  0  0  0  0  0  0  0
  1  2  1  0
  2  3  2  0
  3  4  1  0
  4  5  1  0
  5  6  1  0
  6  7  2  0
  7  8  1  0
  8  9  2  0
  9 10  1  0
 10 11  2  0
 11 12  1  0
  4 13  1  0
 13 14  1  0
 13 15  2  0
 15 16  1  0
 16 17  1  0
 15  2  1  0
 11  6  1  0
A    1
 C1 
A    2
 C2 
A    3
 N1 
A    4
 N2 
A    5
 C3 
A    6
 C4 
A    7
 C5 
A    8
 C6 
A    9
 C7 
A   10
 C8 
A   11
 C9 
A   12
CL1 
A   13
 C10
A   14
 C11
A   15
 C12
A   16
 C13
A   17
 O1 
M  END
>  <ref_pdb>  (801) 
Ax0310a

>  <ref_mols>  (801) 
Ax0446a,Ax1080a,Ax0812a,Ax0719a,Ax1140a,Ax0528a,Ax0310a

>  <original SMILES>  (801) 
Cc1nn(Cc2ccccc2Cl)c(C)c1CO

>  <rationale>  (801) 
info info set:3d;hbond:E85; hydroph_interaction:T126+E85; 

>  <experiment>  (801) 
3d

>  <cluster_label>  (801) 
3

>  <cluster_rank>  (801) 
458

>  <N_interactions>  (801) 
3

>  <∆∆G>  (801) 
-7.268454

>  <comRMSD>  (801) 
0.451038

>  <ROCS_TanimotoCombo>  (801) 
0.323

>  <ROCS_ShapeTanimoto>  (801) 
0.199

>  <ROCS_ColorTanimoto>  (801) 
0.124

$$$$
EN300_136408
     RDKit          3D

 13 13  0  0  0  0  0  0  0  0999 V2000
   33.9590   11.6681    4.4424 C   0  0  0  0  0  0  0  0  0  0  0  0
   33.2109   10.9097    5.4819 C   0  0  0  0  0  0  0  0  0  0  0  0
   33.2163    9.3746    5.7145 C   0  0  0  0  0  0  0  0  0  0  0  0
   32.4319    9.0240    6.7310 N   0  0  0  0  0  0  0  0  0  0  0  0
   31.9276   10.2207    7.1738 N   0  0  0  0  0  0  0  0  0  0  0  0
   31.0659   10.2289    8.2526 C   0  0  0  0  0  0  0  0  0  0  0  0
   30.3667   11.1981    8.5188 O   0  0  0  0  0  0  0  0  0  0  0  0
   31.1623    8.9724    8.9539 O   0  0  0  0  0  0  0  0  0  0  0  0
   29.9065    8.3685    9.0940 C   0  0  0  0  0  0  0  0  0  0  0  0
   29.8570    6.9421    9.1904 C   0  0  0  0  0  0  0  0  0  0  0  0
   29.1174    8.8194    8.0735 C   0  0  0  0  0  0  0  0  0  0  0  0
   29.2360    8.6880   10.2146 C   0  0  0  0  0  0  0  0  0  0  0  0
   32.3636   11.3392    6.4604 C   0  0  0  0  0  0  0  0  0  0  0  0
  1  2  1  0
  2  3  1  0
  3  4  2  0
  4  5  1  0
  5  6  1  0
  6  7  2  0
  6  8  1  0
  8  9  1  0
  9 10  1  0
  9 11  1  0
  9 12  1  0
  5 13  1  0
 13  2  2  0
A    1
 C1 
A    2
 C2 
A    3
 C3 
A    4
 N1 
A    5
 N2 
A    6
 C4 
A    7
 O1 
A    8
 O2 
A    9
 C5 
A   10
 C6 
A   11
 C7 
A   12
 C8 
A   13
 C9 
M  END
>  <ref_pdb>  (802) 
Ax0310a

>  <ref_mols>  (802) 
Ax0446a,Ax1080a,Ax0812a,Ax0719a,Ax1140a,Ax0528a,Ax0310a

>  <original SMILES>  (802) 
Cc1cnn(C(=O)OC(C)(C)C)c1

>  <rationale>  (802) 
info info set:bb_densepocket2;hydroph_interaction:P107+V124+D109; 

>  <experiment>  (802) 
bb_densepocket2

>  <cluster_label>  (802) 
3

>  <cluster_rank>  (802) 
459

>  <N_interactions>  (802) 
4

>  <∆∆G>  (802) 
-1.314793

>  <comRMSD>  (802) 
0.453937

>  <ROCS_TanimotoCombo>  (802) 
0.616

>  <ROCS_ShapeTanimoto>  (802) 
0.203

>  <ROCS_ColorTanimoto>  (802) 
0.413

$$$$
EN300_6512976
     RDKit          3D

 17 18  0  0  0  0  0  0  0  0999 V2000
   40.1336   14.4189   11.7068 C   0  0  0  0  0  0  0  0  0  0  0  0
   38.9934   13.7732   12.2725 O   0  0  0  0  0  0  0  0  0  0  0  0
   39.2764   12.7331   13.1025 C   0  0  0  0  0  0  0  0  0  0  0  0
   39.9645   12.7590   14.1071 O   0  0  0  0  0  0  0  0  0  0  0  0
   38.6737   11.6629   12.6005 C   0  0  2  0  0  0  0  0  0  0  0  0
   39.0965   11.4575   11.2935 C   0  0  0  0  0  0  0  0  0  0  0  0
   38.2894   12.1098   10.3762 C   0  0  0  0  0  0  0  0  0  0  0  0
   38.6007   12.4092    8.8981 C   0  0  0  0  0  0  0  0  0  0  0  0
   37.5083   13.1200    8.0695 C   0  0  0  0  0  0  0  0  0  0  0  0
   36.2016   13.4486    8.8337 C   0  0  0  0  0  0  0  0  0  0  0  0
   34.7376   14.0959    8.0540 S   0  0  0  0  0  6  0  0  0  0  0  0
   35.2377   15.2780    7.0180 N   0  0  0  0  0  0  0  0  0  0  0  0
   33.8692   14.6353    9.0742 O   0  0  0  0  0  0  0  0  0  0  0  0
   34.2219   13.0550    7.1789 O   0  0  0  0  0  0  0  0  0  0  0  0
   36.0392   13.1898   10.1675 C   0  0  0  0  0  0  0  0  0  0  0  0
   37.1204   12.4749   10.9837 C   0  0  0  0  0  0  0  0  0  0  0  0
   37.1785   12.0372   12.4230 C   0  0  0  0  0  0  0  0  0  0  0  0
  1  2  1  0
  2  3  1  0
  3  4  2  0
  5  3  1  6
  5  6  1  0
  6  7  1  0
  7  8  2  0
  8  9  1  0
  9 10  2  0
 10 11  1  0
 11 12  1  0
 11 13  2  0
 11 14  2  0
 10 15  1  0
 15 16  2  0
 16 17  1  0
 17  5  1  0
 16  7  1  0
A    1
 C1 
A    2
 O1 
A    3
 C2 
A    4
 O2 
A    5
 C3 
A    6
 C4 
A    7
 C5 
A    8
 C6 
A    9
 C7 
A   10
 C8 
A   11
 S1 
A   12
 N1 
A   13
 O3 
A   14
 O4 
A   15
 C9 
A   16
 C10
A   17
 C11
M  END
>  <ref_pdb>  (803) 
Ax0310a

>  <ref_mols>  (803) 
Ax0446a,Ax1080a,Ax0812a,Ax0719a,Ax1140a,Ax0528a,Ax0310a

>  <original SMILES>  (803) 
COC(=O)[C@@H]1Cc2ccc(S(N)(=O)=O)cc2C1

>  <rationale>  (803) 
info info set:sulfonimide_joint;hbond:G127+E85; hydroph_interaction:V84+E85+L131; 

>  <experiment>  (803) 
sulfonimide_joint

>  <cluster_label>  (803) 
3

>  <cluster_rank>  (803) 
460

>  <N_interactions>  (803) 
5

>  <∆∆G>  (803) 
-4.460736

>  <comRMSD>  (803) 
0.945648

>  <ROCS_TanimotoCombo>  (803) 
0.306

>  <ROCS_ShapeTanimoto>  (803) 
0.17

>  <ROCS_ColorTanimoto>  (803) 
0.136

$$$$
EN300_801367
     RDKit          3D

 18 19  0  0  0  0  0  0  0  0999 V2000
   35.9703    7.2557    4.6871 C   0  0  0  0  0  0  0  0  0  0  0  0
   34.8390    7.9185    3.9283 C   0  0  0  0  0  0  0  0  0  0  0  0
   34.1347    9.2362    4.4613 C   0  0  0  0  0  0  0  0  0  0  0  0
   34.7166   10.1313    3.4069 C   0  0  0  0  0  0  0  0  0  0  0  0
   34.4224   11.6273    3.3005 C   0  0  0  0  0  0  0  0  0  0  0  0
   33.4335   11.9178    4.4946 C   0  0  0  0  0  0  0  0  0  0  0  0
   32.9216   11.0425    5.4500 C   0  0  0  0  0  0  0  0  0  0  0  0
   32.0539   11.6242    6.3691 C   0  0  0  0  0  0  0  0  0  0  0  0
   31.4211   10.8157    7.4241 C   0  0  0  0  0  0  0  0  0  0  0  0
   30.5834   11.5586    8.2349 O   0  0  0  0  0  0  0  0  0  0  0  0
   31.7609    9.4675    7.4196 C   0  0  0  0  0  0  0  0  0  0  0  0
   31.2712    8.5372    8.3123 C   0  0  0  0  0  0  0  0  0  0  0  0
   30.1256    8.6432    9.0532 C   0  0  0  0  0  0  0  0  0  0  0  0
   30.0097    7.9488   10.3532 C   0  0  0  0  0  0  0  0  0  0  0  0
   29.2347    9.8519    8.9104 C   0  0  0  0  0  0  0  0  0  0  0  0
   29.2693    7.6181    8.5680 C   0  0  0  0  0  0  0  0  0  0  0  0
   32.6437    8.9152    6.5027 N   0  0  0  0  0  0  0  0  0  0  0  0
   33.2262    9.6663    5.5093 C   0  0  0  0  0  0  0  0  0  0  0  0
  1  2  1  0
  2  3  1  0
  3  4  2  0
  4  5  1  0
  5  6  2  0
  6  7  1  0
  7  8  2  0
  8  9  1  0
  9 10  1  0
  9 11  2  0
 11 12  1  0
 12 13  1  0
 13 14  1  0
 13 15  1  0
 13 16  1  0
 11 17  1  0
 17 18  2  0
 18  3  1  0
 18  7  1  0
A    1
 C1 
A    2
 C2 
A    3
 C3 
A    4
 C4 
A    5
 C5 
A    6
 C6 
A    7
 C7 
A    8
 C8 
A    9
 C9 
A   10
 O1 
A   11
 C10
A   12
 C11
A   13
 C12
A   14
 C13
A   15
 C14
A   16
 C15
A   17
 N1 
A   18
 C16
M  END
>  <ref_pdb>  (804) 
Ax0310a

>  <ref_mols>  (804) 
Ax0446a,Ax1080a,Ax0812a,Ax0719a,Ax1140a,Ax0528a,Ax0310a

>  <original SMILES>  (804) 
CCc1cccc2cc(O)c(CC(C)(C)C)nc12

>  <rationale>  (804) 
info info set:bb_densepocket2;hbond:S125+G127; hydroph_interaction:P107+V124+D109; 

>  <experiment>  (804) 
bb_densepocket2

>  <cluster_label>  (804) 
3

>  <cluster_rank>  (804) 
461

>  <N_interactions>  (804) 
5

>  <∆∆G>  (804) 
-5.520116

>  <comRMSD>  (804) 
0.892527

>  <ROCS_TanimotoCombo>  (804) 
0.612

>  <ROCS_ShapeTanimoto>  (804) 
0.243

>  <ROCS_ColorTanimoto>  (804) 
0.369

$$$$
EN300_123359
     RDKit          3D

 16 16  0  0  0  0  0  0  0  0999 V2000
   28.8894   13.8979    9.5522 N   0  0  0  0  0  0  0  0  0  0  0  0
   29.9750   14.0600    8.6029 C   0  0  0  0  0  0  0  0  0  0  0  0
   31.3186   14.3553    9.0092 O   0  0  0  0  0  0  0  0  0  0  0  0
   29.5722   13.8947    7.1086 C   0  0  0  0  0  0  0  0  0  0  0  0
   30.5555   13.5389    6.4522 O   0  0  0  0  0  0  0  0  0  0  0  0
   30.8923   12.3262    6.8298 C   0  0  0  0  0  0  0  0  0  0  0  0
   29.9552   11.6484    7.7983 C   0  0  0  0  0  0  0  0  0  0  0  0
   30.2962   10.2786    8.2384 C   0  0  0  0  0  0  0  0  0  0  0  0
   31.4496    9.5985    7.7683 C   0  0  0  0  0  0  0  0  0  0  0  0
   31.4135    8.1626    8.4719 Cl  0  0  0  0  0  0  0  0  0  0  0  0
   32.4773   10.1523    6.8136 C   0  0  0  0  0  0  0  0  0  0  0  0
   32.1803   11.5492    6.3588 C   0  0  0  0  0  0  0  0  0  0  0  0
   33.3428   12.3103    5.2750 S   0  0  0  0  0  6  0  0  0  0  0  0
   34.7038   11.3136    5.3279 N   0  0  0  0  0  0  0  0  0  0  0  0
   32.8872   12.2173    3.9104 O   0  0  0  0  0  0  0  0  0  0  0  0
   33.7760   13.5424    5.8836 O   0  0  0  0  0  0  0  0  0  0  0  0
  1  2  1  0
  2  3  2  0
  2  4  1  0
  4  5  1  0
  5  6  1  0
  6  7  2  0
  7  8  1  0
  8  9  2  0
  9 10  1  0
  9 11  1  0
 11 12  2  0
 12 13  1  0
 13 14  1  0
 13 15  2  0
 13 16  2  0
 12  6  1  0
A    1
 N1 
A    2
 C1 
A    3
 O1 
A    4
 C2 
A    5
 O2 
A    6
 C3 
A    7
 C4 
A    8
 C5 
A    9
 C6 
A   10
CL1 
A   11
 C7 
A   12
 C8 
A   13
 S1 
A   14
 N2 
A   15
 O3 
A   16
 O4 
M  END
>  <ref_pdb>  (805) 
Ax0310a

>  <ref_mols>  (805) 
Ax0446a,Ax1080a,Ax0812a,Ax0719a,Ax1140a,Ax0528a,Ax0310a

>  <original SMILES>  (805) 
NC(=O)COc1ccc(Cl)cc1S(N)(=O)=O

>  <rationale>  (805) 
info info set:sulfonimide_whole;hbond:S87+G127; 

>  <experiment>  (805) 
sulfonimide_whole

>  <cluster_label>  (805) 
3

>  <cluster_rank>  (805) 
462

>  <N_interactions>  (805) 
2

>  <∆∆G>  (805) 
-3.648604

>  <comRMSD>  (805) 
0.67256

>  <ROCS_TanimotoCombo>  (805) 
0.375

>  <ROCS_ShapeTanimoto>  (805) 
0.214

>  <ROCS_ColorTanimoto>  (805) 
0.16

$$$$
Z437590718
     RDKit          3D

 18 20  0  0  0  0  0  0  0  0999 V2000
   34.2197   10.2050    5.3160 C   0  0  0  0  0  0  0  0  0  0  0  0
   33.0903    9.9100    6.2091 C   0  0  0  0  0  0  0  0  0  0  0  0
   32.7198    8.6578    6.3747 N   0  0  0  0  0  0  0  0  0  0  0  0
   31.6453    8.6345    7.2181 O   0  0  0  0  0  0  0  0  0  0  0  0
   31.3764    9.9701    7.5447 C   0  0  0  0  0  0  0  0  0  0  0  0
   30.3542   10.3651    8.3210 N   0  0  0  0  0  0  0  0  0  0  0  0
   30.3045   11.7795    8.5128 C   0  0  0  0  0  0  0  0  0  0  0  0
   31.2407   12.5997    8.0035 C   0  0  0  0  0  0  0  0  0  0  0  0
   31.0324   13.8710    8.3975 C   0  0  0  0  0  0  0  0  0  0  0  0
   31.8444   14.4325    9.1361 O   0  0  0  0  0  0  0  0  0  0  0  0
   29.9081   14.3837    7.9504 N   0  0  0  0  0  0  0  0  0  0  0  0
   29.3107   15.4628    8.7521 C   0  0  0  0  0  0  0  0  0  0  0  0
   28.0461   15.1819    9.0601 C   0  0  0  0  0  0  0  0  0  0  0  0
   27.2334   14.7552    7.6182 S   0  0  0  0  0  0  0  0  0  0  0  0
   27.9949   13.2268    7.2272 C   0  0  0  0  0  0  0  0  0  0  0  0
   29.2510   13.7103    6.8172 C   0  0  0  0  0  0  0  0  0  0  0  0
   32.2655   12.1627    7.1855 C   0  0  0  0  0  0  0  0  0  0  0  0
   32.3079   10.7916    6.9475 C   0  0  0  0  0  0  0  0  0  0  0  0
  1  2  1  0
  2  3  2  0
  3  4  1  0
  4  5  1  0
  5  6  2  0
  6  7  1  0
  7  8  2  0
  8  9  1  0
  9 10  2  0
  9 11  1  0
 11 12  1  0
 12 13  1  0
 13 14  1  0
 14 15  1  0
 15 16  1  0
  8 17  1  0
 17 18  2  0
 18  2  1  0
 18  5  1  0
 16 11  1  0
A    1
 C1 
A    2
 C2 
A    3
 N1 
A    4
 O1 
A    5
 C3 
A    6
 N2 
A    7
 C4 
A    8
 C5 
A    9
 C6 
A   10
 O2 
A   11
 N3 
A   12
 C7 
A   13
 C8 
A   14
 S1 
A   15
 C9 
A   16
 C10
A   17
 C11
A   18
 C12
M  END
>  <ref_pdb>  (806) 
Ax0310a

>  <ref_mols>  (806) 
Ax0446a,Ax1080a,Ax0812a,Ax0719a,Ax1140a,Ax0528a,Ax0310a

>  <original SMILES>  (806) 
Cc1noc2ncc(C(=O)N3CCSCC3)cc12

>  <rationale>  (806) 
info info set:3d;hbond:S87; 

>  <experiment>  (806) 
3d

>  <cluster_label>  (806) 
3

>  <cluster_rank>  (806) 
463

>  <N_interactions>  (806) 
1

>  <∆∆G>  (806) 
-0.882789

>  <comRMSD>  (806) 
0.931734

>  <ROCS_TanimotoCombo>  (806) 
0.367

>  <ROCS_ShapeTanimoto>  (806) 
0.209

>  <ROCS_ColorTanimoto>  (806) 
0.158

$$$$
EN300_176774
     RDKit          3D

 10 10  0  0  0  0  0  0  0  0999 V2000
   34.6200   10.1034    3.2009 C   0  0  0  0  0  0  0  0  0  0  0  0
   35.0912    9.4856    4.5116 C   0  0  0  0  0  0  0  0  0  0  0  0
   33.9822    8.8516    5.1991 N   0  0  0  0  0  0  0  0  0  0  0  0
   33.0829    9.6044    5.9716 C   0  0  0  0  0  0  0  0  0  0  0  0
   33.1734   11.1595    5.6816 C   0  0  0  0  0  0  0  0  0  0  0  0
   32.0509   11.6978    6.6390 C   0  0  0  0  0  0  0  0  0  0  0  0
   31.1473   11.0021    7.5640 C   0  0  0  0  0  0  0  0  0  0  0  0
   30.2013   11.7075    8.3094 N   0  0  0  0  0  0  0  0  0  0  0  0
   31.3435    9.6421    7.5870 C   0  0  0  0  0  0  0  0  0  0  0  0
   32.2519    8.9773    6.8440 N   0  0  0  0  0  0  0  0  0  0  0  0
  1  2  1  0
  2  3  1  0
  3  4  1  0
  4  5  2  0
  5  6  1  0
  6  7  2  0
  7  8  1  0
  7  9  1  0
  9 10  2  0
 10  4  1  0
A    1
 C1 
A    2
 C2 
A    3
 N1 
A    4
 C3 
A    5
 C4 
A    6
 C5 
A    7
 C6 
A    8
 N2 
A    9
 C7 
A   10
 N3 
M  END
>  <ref_pdb>  (807) 
Ax0310a

>  <ref_mols>  (807) 
Ax0446a,Ax1080a,Ax0812a,Ax0719a,Ax1140a,Ax0528a,Ax0310a

>  <original SMILES>  (807) 
CCNc1ccc(N)cn1

>  <rationale>  (807) 
info info set:bb_densepocket2;hbond:S105+S125; 

>  <experiment>  (807) 
bb_densepocket2

>  <cluster_label>  (807) 
3

>  <cluster_rank>  (807) 
464

>  <N_interactions>  (807) 
2

>  <∆∆G>  (807) 
-4.151659

>  <comRMSD>  (807) 
0.403349

>  <ROCS_TanimotoCombo>  (807) 
0.636

>  <ROCS_ShapeTanimoto>  (807) 
0.201

>  <ROCS_ColorTanimoto>  (807) 
0.435

$$$$
Z57464510
     RDKit          3D

 18 19  0  0  0  0  0  0  0  0999 V2000
   35.0438   12.1845    5.5249 C   0  0  0  0  0  0  0  0  0  0  0  0
   34.3436   10.9561    5.3572 O   0  0  0  0  0  0  0  0  0  0  0  0
   33.2072   10.8520    6.2189 C   0  0  0  0  0  0  0  0  0  0  0  0
   32.6422   12.0944    6.8099 C   0  0  0  0  0  0  0  0  0  0  0  0
   31.4457   11.9092    7.7092 C   0  0  0  0  0  0  0  0  0  0  0  0
   30.8217   13.4636    8.3716 S   0  0  0  0  0  6  0  0  0  0  0  0
   31.9992   14.1958    8.1801 O   0  0  0  0  0  0  0  0  0  0  0  0
   30.3613   13.4311    9.6909 O   0  0  0  0  0  0  0  0  0  0  0  0
   29.5031   13.7134    7.3199 N   0  0  0  0  0  0  0  0  0  0  0  0
   28.4035   12.8826    7.7974 C   0  0  0  0  0  0  0  0  0  0  0  0
   28.0561   13.4827    9.0509 C   0  0  0  0  0  0  0  0  0  0  0  0
   27.6406   14.8116    9.0157 C   0  0  0  0  0  0  0  0  0  0  0  0
   28.6740   15.5240    8.4945 C   0  0  0  0  0  0  0  0  0  0  0  0
   28.8128   15.0203    7.2414 C   0  0  0  0  0  0  0  0  0  0  0  0
   30.9084   10.6436    7.9679 C   0  0  0  0  0  0  0  0  0  0  0  0
   31.5055    9.5145    7.3677 C   0  0  0  0  0  0  0  0  0  0  0  0
   32.6221    9.6540    6.5216 C   0  0  0  0  0  0  0  0  0  0  0  0
   33.1661    8.6069    5.9759 F   0  0  0  0  0  0  0  0  0  0  0  0
  1  2  1  0
  2  3  1  0
  3  4  2  0
  4  5  1  0
  5  6  1  0
  6  7  2  0
  6  8  2  0
  6  9  1  0
  9 10  1  0
 10 11  1  0
 11 12  1  0
 12 13  1  0
 13 14  1  0
  5 15  2  0
 15 16  1  0
 16 17  2  0
 17 18  1  0
 17  3  1  0
 14  9  1  0
A    1
 C1 
A    2
 O1 
A    3
 C2 
A    4
 C3 
A    5
 C4 
A    6
 S1 
A    7
 O2 
A    8
 O3 
A    9
 N1 
A   10
 C5 
A   11
 C6 
A   12
 C7 
A   13
 C8 
A   14
 C9 
A   15
 C10
A   16
 C11
A   17
 C12
A   18
 F1 
M  END
>  <ref_pdb>  (808) 
Ax0310a

>  <ref_mols>  (808) 
Ax0446a,Ax1080a,Ax0812a,Ax0719a,Ax1140a,Ax0528a,Ax0310a

>  <original SMILES>  (808) 
COc1cc(S(=O)(=O)N2CCCCC2)ccc1F

>  <rationale>  (808) 
info info set:3d;halogenbond:S105; hbond:S87; hydroph_interaction:Y89+Y90; 

>  <experiment>  (808) 
3d

>  <cluster_label>  (808) 
3

>  <cluster_rank>  (808) 
465

>  <N_interactions>  (808) 
4

>  <∆∆G>  (808) 
-0.379444

>  <comRMSD>  (808) 
0.509247

>  <ROCS_TanimotoCombo>  (808) 
0.33

>  <ROCS_ShapeTanimoto>  (808) 
0.217

>  <ROCS_ColorTanimoto>  (808) 
0.113

$$$$
EN300_803368
     RDKit          3D

 13 13  0  0  0  0  0  0  0  0999 V2000
   28.8889   12.1248    7.2083 C   0  0  0  0  0  0  0  0  0  0  0  0
   30.2772   11.7754    7.6790 C   0  0  0  0  0  0  0  0  0  0  0  0
   30.6229   12.3627    8.8664 O   0  0  0  0  0  0  0  0  0  0  0  0
   31.5606   13.2982    8.6370 C   0  0  0  0  0  0  0  0  0  0  0  0
   31.5577   14.3460    9.7834 C   0  0  0  0  0  0  0  0  0  0  0  0
   31.3212   10.9643    7.0518 C   0  0  0  0  0  0  0  0  0  0  0  0
   32.2118   11.7729    6.1383 C   0  0  0  0  0  0  0  0  0  0  0  0
   33.2936   10.9802    5.4615 C   0  0  0  0  0  0  0  0  0  0  0  0
   33.3930    9.6402    5.7134 C   0  0  0  0  0  0  0  0  0  0  0  0
   34.4983    8.8876    4.9908 C   0  0  0  0  0  0  0  0  0  0  0  0
   32.5023    8.9142    6.6218 N   0  0  0  0  0  0  0  0  0  0  0  0
   31.5212    9.5822    7.2433 C   0  0  0  0  0  0  0  0  0  0  0  0
   30.6962    8.8148    8.0984 N   0  0  0  0  0  0  0  0  0  0  0  0
  1  2  2  0
  2  3  1  0
  3  4  1  0
  4  5  1  0
  2  6  1  0
  6  7  2  0
  7  8  1  0
  8  9  2  0
  9 10  1  0
  9 11  1  0
 11 12  2  0
 12 13  1  0
 12  6  1  0
A    1
 C1 
A    2
 C2 
A    3
 O1 
A    4
 C3 
A    5
 C4 
A    6
 C5 
A    7
 C6 
A    8
 C7 
A    9
 C8 
A   10
 C9 
A   11
 N1 
A   12
 C10
A   13
 N2 
M  END
>  <ref_pdb>  (809) 
Ax0310a

>  <ref_mols>  (809) 
Ax0446a,Ax1080a,Ax0812a,Ax0719a,Ax1140a,Ax0528a,Ax0310a

>  <original SMILES>  (809) 
C=C(OCC)c1ccc(C)nc1N

>  <rationale>  (809) 
info info set:bb_densepocket2;hbond:S105+G127; hydroph_interaction:P107+T126+V84; 

>  <experiment>  (809) 
bb_densepocket2

>  <cluster_label>  (809) 
3

>  <cluster_rank>  (809) 
466

>  <N_interactions>  (809) 
6

>  <∆∆G>  (809) 
-3.669486

>  <comRMSD>  (809) 
0.907297

>  <ROCS_TanimotoCombo>  (809) 
0.617

>  <ROCS_ShapeTanimoto>  (809) 
0.233

>  <ROCS_ColorTanimoto>  (809) 
0.384

$$$$
EN300_790270
     RDKit          3D

 13 13  0  0  0  0  0  0  0  0999 V2000
   30.1500    8.8736    8.9955 C   0  0  0  0  0  0  0  0  0  0  0  0
   31.2907    8.5948    8.1164 C   0  0  0  0  0  0  0  0  0  0  0  0
   31.8302    9.6284    7.1980 C   0  0  0  0  0  0  0  0  0  0  0  0
   32.7779    9.1867    6.3060 N   0  0  0  0  0  0  0  0  0  0  0  0
   33.3372   10.0468    5.4064 C   0  0  0  0  0  0  0  0  0  0  0  0
   34.4359    9.6186    4.3357 C   0  0  0  0  0  0  0  0  0  0  0  0
   35.3633    8.1567    4.6809 Cl  0  0  0  0  0  0  0  0  0  0  0  0
   33.9810    9.3006    2.6210 Cl  0  0  0  0  0  0  0  0  0  0  0  0
   35.6246   10.9434    4.1722 Cl  0  0  0  0  0  0  0  0  0  0  0  0
   32.9809   11.3522    5.3817 N   0  0  0  0  0  0  0  0  0  0  0  0
   32.0549   11.8387    6.2413 C   0  0  0  0  0  0  0  0  0  0  0  0
   31.2946   11.0486    7.3197 C   0  0  0  0  0  0  0  0  0  0  0  0
   30.3288   11.6254    8.1649 N   0  0  0  0  0  0  0  0  0  0  0  0
  1  2  1  0
  2  3  1  0
  3  4  2  0
  4  5  1  0
  5  6  1  0
  6  7  1  0
  6  8  1  0
  6  9  1  0
  5 10  2  0
 10 11  1  0
 11 12  2  0
 12 13  1  0
 12  3  1  0
A    1
 C1 
A    2
 C2 
A    3
 C3 
A    4
 N1 
A    5
 C4 
A    6
 C5 
A    7
CL1 
A    8
CL2 
A    9
CL3 
A   10
 N2 
A   11
 C6 
A   12
 C7 
A   13
 N3 
M  END
>  <ref_pdb>  (810) 
Ax0310a

>  <ref_mols>  (810) 
Ax0446a,Ax1080a,Ax0812a,Ax0719a,Ax1140a,Ax0528a,Ax0310a

>  <original SMILES>  (810) 
CCc1nc(C(Cl)(Cl)Cl)ncc1N

>  <rationale>  (810) 
info info set:bb_densepocket2;hbond:S125; hydroph_interaction:V124; 

>  <experiment>  (810) 
bb_densepocket2

>  <cluster_label>  (810) 
3

>  <cluster_rank>  (810) 
467

>  <N_interactions>  (810) 
2

>  <∆∆G>  (810) 
-2.720288

>  <comRMSD>  (810) 
0.960602

>  <ROCS_TanimotoCombo>  (810) 
0.635

>  <ROCS_ShapeTanimoto>  (810) 
0.224

>  <ROCS_ColorTanimoto>  (810) 
0.411

$$$$
EN300_6739995
     RDKit          3D

 17 17  0  0  0  0  0  0  0  0999 V2000
   34.2980   14.5980    4.6287 C   0  0  0  0  0  0  0  0  0  0  0  0
   33.6271   13.3158    4.3532 C   0  0  0  0  0  0  0  0  0  0  0  0
   33.9923   12.3893    3.3566 C   0  0  0  0  0  0  0  0  0  0  0  0
   32.1293   13.6139    4.1714 C   0  0  0  0  0  0  0  0  0  0  0  0
   33.6899   12.6044    5.5895 O   0  0  0  0  0  0  0  0  0  0  0  0
   33.1797   11.3648    5.7207 C   0  0  0  0  0  0  0  0  0  0  0  0
   33.2249   10.3906    4.7645 O   0  0  0  0  0  0  0  0  0  0  0  0
   32.5937   11.1989    6.9506 N   0  0  0  0  0  0  0  0  0  0  0  0
   31.7959    9.9540    7.1984 C   0  0  0  0  0  0  0  0  0  0  0  0
   30.6530   10.0908    8.1380 C   0  0  0  0  0  0  0  0  0  0  0  0
   30.1040   11.3549    8.1529 C   0  0  0  0  0  0  0  0  0  0  0  0
   30.9512   12.5547    8.3480 C   0  0  2  0  0  0  0  0  0  0  0  0
   29.9424   13.9271    8.1033 S   0  0  0  0  0  6  0  0  0  0  0  0
   28.6022   13.5021    9.0067 N   0  0  0  0  0  0  0  0  0  0  0  0
   29.5453   13.9573    6.7224 O   0  0  0  0  0  0  0  0  0  0  0  0
   30.5567   14.9771    8.8773 O   0  0  0  0  0  0  0  0  0  0  0  0
   32.3098   12.4755    7.6477 C   0  0  0  0  0  0  0  0  0  0  0  0
  1  2  1  0
  2  3  1  0
  2  4  1  0
  2  5  1  0
  5  6  1  0
  6  7  2  0
  6  8  1  0
  8  9  1  0
  9 10  1  0
 10 11  1  0
 11 12  1  0
 12 13  1  6
 13 14  1  0
 13 15  2  0
 13 16  2  0
 12 17  1  0
 17  8  1  0
A    1
 C1 
A    2
 C2 
A    3
 C3 
A    4
 C4 
A    5
 O1 
A    6
 C5 
A    7
 O2 
A    8
 N1 
A    9
 C6 
A   10
 C7 
A   11
 C8 
A   12
 C9 
A   13
 S1 
A   14
 N2 
A   15
 O3 
A   16
 O4 
A   17
 C10
M  END
>  <ref_pdb>  (811) 
Ax0310a

>  <ref_mols>  (811) 
Ax0446a,Ax1080a,Ax0812a,Ax0719a,Ax1140a,Ax0528a,Ax0310a

>  <original SMILES>  (811) 
CC(C)(C)OC(=O)N1CCC[C@H](S(N)(=O)=O)C1

>  <rationale>  (811) 
info info set:sulfonimide_whole;hbond:S87+S125; hydroph_interaction:P107; 

>  <experiment>  (811) 
sulfonimide_whole

>  <cluster_label>  (811) 
3

>  <cluster_rank>  (811) 
468

>  <N_interactions>  (811) 
3

>  <∆∆G>  (811) 
-3.279108

>  <comRMSD>  (811) 
0.950261

>  <ROCS_TanimotoCombo>  (811) 
0.341

>  <ROCS_ShapeTanimoto>  (811) 
0.182

>  <ROCS_ColorTanimoto>  (811) 
0.159

$$$$
EN300_283831
     RDKit          3D

 13 13  0  0  0  0  0  0  0  0999 V2000
   34.5021   15.0594    8.9470 N   0  0  0  0  0  0  0  0  0  0  0  0
   33.4415   13.8383    8.5319 S   0  0  0  0  0  6  0  0  0  0  0  0
   32.1051   14.2896    8.8623 O   0  0  0  0  0  0  0  0  0  0  0  0
   34.0441   12.7428    9.1756 O   0  0  0  0  0  0  0  0  0  0  0  0
   33.5569   13.5975    6.7605 C   0  0  0  0  0  0  0  0  0  0  0  0
   32.3328   12.9416    6.1810 C   0  0  0  0  0  0  0  0  0  0  0  0
   32.0786   11.6573    6.6041 C   0  0  0  0  0  0  0  0  0  0  0  0
   32.9003   10.6332    6.1798 C   0  0  0  0  0  0  0  0  0  0  0  0
   32.6365    9.3622    6.6166 C   0  0  0  0  0  0  0  0  0  0  0  0
   31.5491    9.0647    7.4998 C   0  0  0  0  0  0  0  0  0  0  0  0
   30.7245   10.0925    7.9264 C   0  0  0  0  0  0  0  0  0  0  0  0
   31.0071   11.3817    7.4564 C   0  0  0  0  0  0  0  0  0  0  0  0
   30.2128   12.3871    7.8423 F   0  0  0  0  0  0  0  0  0  0  0  0
  1  2  1  0
  2  3  2  0
  2  4  2  0
  2  5  1  0
  5  6  1  0
  6  7  1  0
  7  8  2  0
  8  9  1  0
  9 10  2  0
 10 11  1  0
 11 12  2  0
 12 13  1  0
 12  7  1  0
A    1
 N1 
A    2
 S1 
A    3
 O1 
A    4
 O2 
A    5
 C1 
A    6
 C2 
A    7
 C3 
A    8
 C4 
A    9
 C5 
A   10
 C6 
A   11
 C7 
A   12
 C8 
A   13
 F1 
M  END
>  <ref_pdb>  (812) 
Ax0310a

>  <ref_mols>  (812) 
Ax0446a,Ax1080a,Ax0812a,Ax0719a,Ax1140a,Ax0528a,Ax0310a

>  <original SMILES>  (812) 
NS(=O)(=O)CCc1ccccc1F

>  <rationale>  (812) 
info info set:sulfonimide_whole;hbond:S87+G127+E85; 

>  <experiment>  (812) 
sulfonimide_whole

>  <cluster_label>  (812) 
3

>  <cluster_rank>  (812) 
469

>  <N_interactions>  (812) 
3

>  <∆∆G>  (812) 
-5.328983

>  <comRMSD>  (812) 
0.448426

>  <ROCS_TanimotoCombo>  (812) 
0.344

>  <ROCS_ShapeTanimoto>  (812) 
0.192

>  <ROCS_ColorTanimoto>  (812) 
0.151

$$$$
EN300_3487718
     RDKit          3D

 13 14  0  0  0  0  0  0  0  0999 V2000
   29.3755   12.0912    8.3500 N   0  0  0  0  0  0  0  0  0  0  0  0
   30.6897   12.8090    7.6490 S   0  0  0  0  0  6  0  0  0  0  0  0
   31.4025   13.5512    8.6757 O   0  0  0  0  0  0  0  0  0  0  0  0
   30.1394   13.4635    6.4844 O   0  0  0  0  0  0  0  0  0  0  0  0
   31.6459   11.4270    7.0897 C   0  0  0  0  0  0  0  0  0  0  0  0
   31.3529   10.0384    7.5141 C   0  0  0  0  0  0  0  0  0  0  0  0
   32.1417    9.0942    7.0030 N   0  0  0  0  0  0  0  0  0  0  0  0
   32.9635    9.8911    6.2297 N   0  0  0  0  0  0  0  0  0  0  0  0
   32.7146   11.2640    6.2625 C   0  0  0  0  0  0  0  0  0  0  0  0
   33.5670   12.1561    5.4704 C   0  0  0  0  0  0  0  0  0  0  0  0
   34.2393   11.5855    4.4114 C   0  0  0  0  0  0  0  0  0  0  0  0
   34.8451   10.4026    4.8919 C   0  0  0  0  0  0  0  0  0  0  0  0
   34.0383    9.3697    5.4068 C   0  0  0  0  0  0  0  0  0  0  0  0
  1  2  1  0
  2  3  2  0
  2  4  2  0
  2  5  1  0
  5  6  1  0
  6  7  2  0
  7  8  1  0
  8  9  1  0
  9 10  1  0
 10 11  1  0
 11 12  1  0
 12 13  1  0
  9  5  2  0
 13  8  1  0
A    1
 N1 
A    2
 S1 
A    3
 O1 
A    4
 O2 
A    5
 C1 
A    6
 C2 
A    7
 N2 
A    8
 N3 
A    9
 C3 
A   10
 C4 
A   11
 C5 
A   12
 C6 
A   13
 C7 
M  END
>  <ref_pdb>  (813) 
Ax0310a

>  <ref_mols>  (813) 
Ax0446a,Ax1080a,Ax0812a,Ax0719a,Ax1140a,Ax0528a,Ax0310a

>  <original SMILES>  (813) 
NS(=O)(=O)c1cnn2c1CCCC2

>  <rationale>  (813) 
info info set:sulfonimide_whole;hbond:S87+S125; 

>  <experiment>  (813) 
sulfonimide_whole

>  <cluster_label>  (813) 
3

>  <cluster_rank>  (813) 
470

>  <N_interactions>  (813) 
2

>  <∆∆G>  (813) 
-4.911244

>  <comRMSD>  (813) 
0.505096

>  <ROCS_TanimotoCombo>  (813) 
0.343

>  <ROCS_ShapeTanimoto>  (813) 
0.191

>  <ROCS_ColorTanimoto>  (813) 
0.152

$$$$
Z3464816551
     RDKit          3D

 20 22  0  0  0  0  0  0  0  0999 V2000
   28.9728   16.9289    8.4286 C   0  0  0  0  0  0  0  0  0  0  0  0
   28.9992   15.5066    8.6787 C   0  0  0  0  0  0  0  0  0  0  0  0
   27.7944   15.0568    8.1554 O   0  0  0  0  0  0  0  0  0  0  0  0
   27.7027   13.8103    8.5570 C   0  0  0  0  0  0  0  0  0  0  0  0
   29.0458   13.1907    8.3463 C   0  0  0  0  0  0  0  0  0  0  0  0
   29.1994   12.0053    7.4148 C   0  0  0  0  0  0  0  0  0  0  0  0
   30.7291   11.8148    7.5947 C   0  0  0  0  0  0  0  0  0  0  0  0
   31.6421   10.8134    6.9821 C   0  0  0  0  0  0  0  0  0  0  0  0
   31.7254    9.4026    7.4723 C   0  0  0  0  0  0  0  0  0  0  0  0
   30.8643    8.9860    8.6418 C   0  0  0  0  0  0  0  0  0  0  0  0
   29.6330    8.2084    8.4583 C   0  0  0  0  0  0  0  0  0  0  0  0
   32.6084    8.6742    6.7796 O   0  0  0  0  0  0  0  0  0  0  0  0
   33.1180    9.5712    5.8455 C   0  0  0  0  0  0  0  0  0  0  0  0
   34.0887    9.2351    4.9030 C   0  0  0  0  0  0  0  0  0  0  0  0
   34.5025   10.3098    3.9996 C   0  0  0  0  0  0  0  0  0  0  0  0
   33.9499   11.5875    4.0934 C   0  0  0  0  0  0  0  0  0  0  0  0
   32.9885   11.8765    5.0522 C   0  0  0  0  0  0  0  0  0  0  0  0
   32.5603   10.8748    5.9352 C   0  0  0  0  0  0  0  0  0  0  0  0
   31.2745   12.8181    8.4974 N   0  0  0  0  0  0  0  0  0  0  0  0
   30.2082   13.6065    8.9274 O   0  0  0  0  0  0  0  0  0  0  0  0
  1  2  1  0
  2  3  1  0
  3  4  1  0
  4  5  1  0
  5  6  2  0
  6  7  1  0
  7  8  1  0
  8  9  2  0
  9 10  1  0
 10 11  1  0
  9 12  1  0
 12 13  1  0
 13 14  2  0
 14 15  1  0
 15 16  2  0
 16 17  1  0
 17 18  2  0
  7 19  2  0
 19 20  1  0
 20  5  1  0
 18  8  1  0
 18 13  1  0
A    1
 C1 
A    2
 C2 
A    3
 O1 
A    4
 C3 
A    5
 C4 
A    6
 C5 
A    7
 C6 
A    8
 C7 
A    9
 C8 
A   10
 C9 
A   11
 C10
A   12
 O2 
A   13
 C11
A   14
 C12
A   15
 C13
A   16
 C14
A   17
 C15
A   18
 C16
A   19
 N1 
A   20
 O3 
M  END
>  <ref_pdb>  (814) 
Ax0310a

>  <ref_mols>  (814) 
Ax0446a,Ax1080a,Ax0812a,Ax0719a,Ax1140a,Ax0528a,Ax0310a

>  <original SMILES>  (814) 
CCOCc1cc(-c2c(CC)oc3ccccc23)no1

>  <rationale>  (814) 
info info set:screening_pocket;hbond:S87+G127; hydroph_interaction:P107+Y89+Y90+V124; 

>  <experiment>  (814) 
screening_pocket

>  <cluster_label>  (814) 
3

>  <cluster_rank>  (814) 
471

>  <N_interactions>  (814) 
7

>  <∆∆G>  (814) 
-5.489888

>  <comRMSD>  (814) 
0.653609

>  <ROCS_TanimotoCombo>  (814) 
0.631

>  <ROCS_ShapeTanimoto>  (814) 
0.289

>  <ROCS_ColorTanimoto>  (814) 
0.342

$$$$
EN300_39914102
     RDKit          3D

 15 16  0  0  0  0  0  0  0  0999 V2000
   36.6516   11.5359    4.1598 C   0  0  0  0  0  0  0  0  0  0  0  0
   35.8486   10.3574    4.2518 O   0  0  0  0  0  0  0  0  0  0  0  0
   34.7391   10.4955    5.0331 C   0  0  0  0  0  0  0  0  0  0  0  0
   34.2877   11.9244    5.1935 C   0  0  0  0  0  0  0  0  0  0  0  0
   33.0806   12.3275    6.0128 C   0  0  0  0  0  0  0  0  0  0  0  0
   32.4293   11.2812    6.6182 N   0  0  0  0  0  0  0  0  0  0  0  0
   31.3904   11.4069    7.3599 C   0  0  0  0  0  0  0  0  0  0  0  0
   30.5938   12.8750    7.7282 S   0  0  0  0  0  6  0  0  0  0  0  0
   29.1448   12.5578    8.4805 N   0  0  0  0  0  0  0  0  0  0  0  0
   31.4285   13.5786    8.6743 O   0  0  0  0  0  0  0  0  0  0  0  0
   30.2281   13.4218    6.4443 O   0  0  0  0  0  0  0  0  0  0  0  0
   31.0172    9.9876    7.8315 C   0  0  0  0  0  0  0  0  0  0  0  0
   31.8818    9.0395    7.3197 N   0  0  0  0  0  0  0  0  0  0  0  0
   32.7500    9.8730    6.5594 C   0  0  0  0  0  0  0  0  0  0  0  0
   33.9816    9.5069    5.6889 C   0  0  0  0  0  0  0  0  0  0  0  0
  1  2  1  0
  2  3  1  0
  3  4  1  0
  4  5  2  0
  5  6  1  0
  6  7  1  0
  7  8  1  0
  8  9  1  0
  8 10  2  0
  8 11  2  0
  7 12  2  0
 12 13  1  0
 13 14  2  0
 14 15  1  0
 15  3  2  0
 14  6  1  0
A    1
 C1 
A    2
 O1 
A    3
 C2 
A    4
 C3 
A    5
 C4 
A    6
 N1 
A    7
 C5 
A    8
 S1 
A    9
 N2 
A   10
 O2 
A   11
 O3 
A   12
 C6 
A   13
 N3 
A   14
 C7 
A   15
 C8 
M  END
>  <ref_pdb>  (815) 
Ax0310a

>  <ref_mols>  (815) 
Ax0446a,Ax1080a,Ax0812a,Ax0719a,Ax1140a,Ax0528a,Ax0310a

>  <original SMILES>  (815) 
COc1ccn2c(S(N)(=O)=O)cnc2c1

>  <rationale>  (815) 
info info set:sulfonimide_whole;hbond:S87+S125; 

>  <experiment>  (815) 
sulfonimide_whole

>  <cluster_label>  (815) 
3

>  <cluster_rank>  (815) 
472

>  <N_interactions>  (815) 
2

>  <∆∆G>  (815) 
-4.94383

>  <comRMSD>  (815) 
0.415835

>  <ROCS_TanimotoCombo>  (815) 
0.352

>  <ROCS_ShapeTanimoto>  (815) 
0.201

>  <ROCS_ColorTanimoto>  (815) 
0.151

$$$$
EN300_27106045
     RDKit          3D

 15 16  0  0  0  0  0  0  0  0999 V2000
   29.3387   13.2055    8.7241 N   0  0  0  0  0  0  0  0  0  0  0  0
   30.6388   13.2859    7.6635 S   0  0  0  0  0  6  0  0  0  0  0  0
   30.0205   13.6568    6.4133 O   0  0  0  0  0  0  0  0  0  0  0  0
   31.6221   14.0454    8.3929 O   0  0  0  0  0  0  0  0  0  0  0  0
   31.1734   11.6149    7.5269 C   0  0  0  0  0  0  0  0  0  0  0  0
   30.2968   10.5873    8.4651 S   0  0  0  0  0  0  0  0  0  0  0  0
   31.2210    9.3463    7.9373 C   0  0  0  0  0  0  0  0  0  0  0  0
   30.7213    7.9320    8.6592 Cl  0  0  0  0  0  0  0  0  0  0  0  0
   32.1866    9.5692    7.0724 N   0  0  0  0  0  0  0  0  0  0  0  0
   32.1483   10.9378    6.8268 C   0  0  0  0  0  0  0  0  0  0  0  0
   33.1378   11.4883    5.8637 C   0  0  0  0  0  0  0  0  0  0  0  0
   34.0039   10.5207    5.2947 O   0  0  0  0  0  0  0  0  0  0  0  0
   35.1007   11.3019    4.8289 C   0  0  0  0  0  0  0  0  0  0  0  0
   35.1001   12.5269    5.5602 C   0  0  0  0  0  0  0  0  0  0  0  0
   33.9884   12.4736    6.4668 O   0  0  0  0  0  0  0  0  0  0  0  0
  1  2  1  0
  2  3  2  0
  2  4  2  0
  2  5  1  0
  5  6  1  0
  6  7  1  0
  7  8  1  0
  7  9  2  0
  9 10  1  0
 10 11  1  0
 11 12  1  0
 12 13  1  0
 13 14  1  0
 14 15  1  0
 10  5  2  0
 15 11  1  0
A    1
 N1 
A    2
 S1 
A    3
 O1 
A    4
 O2 
A    5
 C1 
A    6
 S2 
A    7
 C2 
A    8
CL1 
A    9
 N2 
A   10
 C3 
A   11
 C4 
A   12
 O3 
A   13
 C5 
A   14
 C6 
A   15
 O4 
M  END
>  <ref_pdb>  (816) 
Ax0310a

>  <ref_mols>  (816) 
Ax0446a,Ax1080a,Ax0812a,Ax0719a,Ax1140a,Ax0528a,Ax0310a

>  <original SMILES>  (816) 
NS(=O)(=O)c1sc(Cl)nc1C1OCCO1

>  <rationale>  (816) 
info info set:sulfonimide_whole;hbond:S87+S125+G127; 

>  <experiment>  (816) 
sulfonimide_whole

>  <cluster_label>  (816) 
3

>  <cluster_rank>  (816) 
473

>  <N_interactions>  (816) 
3

>  <∆∆G>  (816) 
-2.684038

>  <comRMSD>  (816) 
0.587479

>  <ROCS_TanimotoCombo>  (816) 
0.347

>  <ROCS_ShapeTanimoto>  (816) 
0.198

>  <ROCS_ColorTanimoto>  (816) 
0.149

$$$$
EN300_33051270
     RDKit          3D

 13 14  0  0  0  0  0  0  0  0999 V2000
   34.8793    8.8810    3.6083 C   0  0  0  0  0  0  0  0  0  0  0  0
   34.7020    8.6830    5.0250 N   0  0  0  0  0  0  0  0  0  0  0  0
   33.7239    9.4841    5.5723 C   0  0  0  0  0  0  0  0  0  0  0  0
   33.6626   10.9856    5.2100 C   0  0  0  0  0  0  0  0  0  0  0  0
   32.5401   11.7303    5.8944 C   0  0  0  0  0  0  0  0  0  0  0  0
   31.7336   10.7864    6.7893 C   0  0  0  0  0  0  0  0  0  0  0  0
   30.7042   11.7442    7.3407 C   0  0  0  0  0  0  0  0  0  0  0  0
   29.8005   11.2230    8.3852 C   0  0  0  0  0  0  0  0  0  0  0  0
   30.2032    9.6650    8.6531 C   0  0  0  0  0  0  0  0  0  0  0  0
   29.7293    9.0966    9.6202 O   0  0  0  0  0  0  0  0  0  0  0  0
   31.0251    8.9297    7.8571 N   0  0  0  0  0  0  0  0  0  0  0  0
   31.9092    9.5041    7.0009 C   0  0  0  0  0  0  0  0  0  0  0  0
   32.8848    8.8262    6.4162 N   0  0  0  0  0  0  0  0  0  0  0  0
  1  2  1  0
  2  3  1  0
  3  4  2  0
  4  5  1  0
  5  6  2  0
  6  7  1  0
  7  8  2  0
  8  9  1  0
  9 10  2  0
  9 11  1  0
 11 12  1  0
 12 13  2  0
 13  3  1  0
 12  6  1  0
A    1
 C1 
A    2
 N1 
A    3
 C2 
A    4
 C3 
A    5
 C4 
A    6
 C5 
A    7
 C6 
A    8
 C7 
A    9
 C8 
A   10
 O1 
A   11
 N2 
A   12
 C9 
A   13
 N3 
M  END
>  <ref_pdb>  (817) 
Ax0310a

>  <ref_mols>  (817) 
Ax0446a,Ax1080a,Ax0812a,Ax0719a,Ax1140a,Ax0528a,Ax0310a

>  <original SMILES>  (817) 
CNc1ccc2ccc(=O)[nH]c2n1

>  <rationale>  (817) 
info info set:bb_densepocket2;hbond:S105; hydroph_interaction:P107; 

>  <experiment>  (817) 
bb_densepocket2

>  <cluster_label>  (817) 
3

>  <cluster_rank>  (817) 
474

>  <N_interactions>  (817) 
4

>  <∆∆G>  (817) 
-2.760488

>  <comRMSD>  (817) 
0.761137

>  <ROCS_TanimotoCombo>  (817) 
0.616

>  <ROCS_ShapeTanimoto>  (817) 
0.235

>  <ROCS_ColorTanimoto>  (817) 
0.381

$$$$
EN300_27698910
     RDKit          3D

 16 16  0  0  0  0  0  0  0  0999 V2000
   27.8190   14.6149    9.7537 C   0  0  0  0  0  0  0  0  0  0  0  0
   28.8494   14.5417    8.7021 C   0  0  0  0  0  0  0  0  0  0  0  0
   28.5551   15.2098    7.3899 C   0  0  0  0  0  0  0  0  0  0  0  0
   30.1691   14.9677    9.3539 C   0  0  0  0  0  0  0  0  0  0  0  0
   28.8918   13.1435    8.4409 O   0  0  0  0  0  0  0  0  0  0  0  0
   29.8514   12.6761    7.6323 C   0  0  0  0  0  0  0  0  0  0  0  0
   30.4755   13.3417    6.8237 O   0  0  0  0  0  0  0  0  0  0  0  0
   30.0613   11.2626    7.8472 N   0  0  0  0  0  0  0  0  0  0  0  0
   31.3115   10.7634    7.7182 C   0  0  1  0  0  0  0  0  0  0  0  0
   31.8234   10.3686    6.4654 C   0  0  0  0  0  0  0  0  0  0  0  0
   33.0713   10.7379    6.5467 C   0  0  1  0  0  0  0  0  0  0  0  0
   33.9785   11.5614    5.2093 S   0  0  0  0  0  6  0  0  0  0  0  0
   33.2245   11.2906    3.7568 N   0  0  0  0  0  0  0  0  0  0  0  0
   33.9341   12.9859    5.4073 O   0  0  0  0  0  0  0  0  0  0  0  0
   35.2522   10.8834    5.0726 O   0  0  0  0  0  0  0  0  0  0  0  0
   32.4807   11.8216    7.4972 C   0  0  0  0  0  0  0  0  0  0  0  0
  1  2  1  0
  2  3  1  0
  2  4  1  0
  2  5  1  0
  5  6  1  0
  6  7  2  0
  6  8  1  0
  9  8  1  6
  9 10  1  0
 10 11  1  0
 11 12  1  6
 12 13  1  0
 12 14  2  0
 12 15  2  0
 11 16  1  0
 16  9  1  0
A    1
 C1 
A    2
 C2 
A    3
 C3 
A    4
 C4 
A    5
 O1 
A    6
 C5 
A    7
 O2 
A    8
 N1 
A    9
 C6 
A   10
 C7 
A   11
 C8 
A   12
 S1 
A   13
 N2 
A   14
 O3 
A   15
 O4 
A   16
 C9 
M  END
>  <ref_pdb>  (818) 
Ax0310a

>  <ref_mols>  (818) 
Ax0446a,Ax1080a,Ax0812a,Ax0719a,Ax1140a,Ax0528a,Ax0310a

>  <original SMILES>  (818) 
CC(C)(C)OC(=O)N[C@H]1C[C@@H](S(N)(=O)=O)C1

>  <rationale>  (818) 
info info set:sulfonimide_whole;hbond:S87; hydroph_interaction:P107+Y89+Y90; 

>  <experiment>  (818) 
sulfonimide_whole

>  <cluster_label>  (818) 
3

>  <cluster_rank>  (818) 
475

>  <N_interactions>  (818) 
5

>  <∆∆G>  (818) 
-2.459796

>  <comRMSD>  (818) 
0.600496

>  <ROCS_TanimotoCombo>  (818) 
0.336

>  <ROCS_ShapeTanimoto>  (818) 
0.196

>  <ROCS_ColorTanimoto>  (818) 
0.14

$$$$
EN300_8674290
     RDKit          3D

 14 14  0  0  0  0  0  0  0  0999 V2000
   28.8313   14.6595    8.3753 C   0  0  0  0  0  0  0  0  0  0  0  0
   28.8336   13.1687    8.0092 C   0  0  0  0  0  0  0  0  0  0  0  0
   30.1364   12.7201    7.5306 O   0  0  0  0  0  0  0  0  0  0  0  0
   30.5179   11.4716    7.9313 C   0  0  0  0  0  0  0  0  0  0  0  0
   30.0274   10.8532    8.8279 O   0  0  0  0  0  0  0  0  0  0  0  0
   31.6201   10.8502    7.1391 C   0  0  0  0  0  0  0  0  0  0  0  0
   32.4256   11.6686    6.4096 N   0  0  0  0  0  0  0  0  0  0  0  0
   33.3744   11.0171    5.7259 C   0  0  0  0  0  0  0  0  0  0  0  0
   34.4245   12.0019    4.7943 Cl  0  0  0  0  0  0  0  0  0  0  0  0
   33.4949    9.4752    5.7902 C   0  0  0  0  0  0  0  0  0  0  0  0
   34.4792    8.7813    5.0689 N   0  0  0  0  0  0  0  0  0  0  0  0
   32.6495    8.7728    6.5470 N   0  0  0  0  0  0  0  0  0  0  0  0
   31.7127    9.4513    7.2304 C   0  0  0  0  0  0  0  0  0  0  0  0
   30.8551    8.6645    8.0222 N   0  0  0  0  0  0  0  0  0  0  0  0
  1  2  1  0
  2  3  1  0
  3  4  1  0
  4  5  2  0
  4  6  1  0
  6  7  2  0
  7  8  1  0
  8  9  1  0
  8 10  2  0
 10 11  1  0
 10 12  1  0
 12 13  2  0
 13 14  1  0
 13  6  1  0
A    1
 C1 
A    2
 C2 
A    3
 O1 
A    4
 C3 
A    5
 O2 
A    6
 C4 
A    7
 N1 
A    8
 C5 
A    9
CL1 
A   10
 C6 
A   11
 N2 
A   12
 N3 
A   13
 C7 
A   14
 N4 
M  END
>  <ref_pdb>  (819) 
Ax0310a

>  <ref_mols>  (819) 
Ax0446a,Ax1080a,Ax0812a,Ax0719a,Ax1140a,Ax0528a,Ax0310a

>  <original SMILES>  (819) 
CCOC(=O)c1nc(Cl)c(N)nc1N

>  <rationale>  (819) 
info info set:bb_densepocket2;hbond:S105+G127; 

>  <experiment>  (819) 
bb_densepocket2

>  <cluster_label>  (819) 
3

>  <cluster_rank>  (819) 
476

>  <N_interactions>  (819) 
3

>  <∆∆G>  (819) 
-3.072156

>  <comRMSD>  (819) 
0.512044

>  <ROCS_TanimotoCombo>  (819) 
0.639

>  <ROCS_ShapeTanimoto>  (819) 
0.258

>  <ROCS_ColorTanimoto>  (819) 
0.381

$$$$
Z1509616486
     RDKit          3D

 15 16  0  0  0  0  0  0  0  0999 V2000
   34.1903    9.7804    5.3609 C   0  0  0  0  0  0  0  0  0  0  0  0
   33.2905   10.3910    6.3326 N   0  0  0  0  0  0  0  0  0  0  0  0
   32.3675    9.4747    6.9933 C   0  0  0  0  0  0  0  0  0  0  0  0
   32.4953    8.0804    7.0937 O   0  0  0  0  0  0  0  0  0  0  0  0
   31.2110   10.2683    7.5419 C   0  0  0  0  0  0  0  0  0  0  0  0
   30.2859    9.1362    7.9352 C   0  0  0  0  0  0  0  0  0  0  0  0
   28.9657    9.4398    8.4822 C   0  0  0  0  0  0  0  0  0  0  0  0
   28.6950   10.9907    8.5759 C   0  0  0  0  0  0  0  0  0  0  0  0
   29.7247   11.8834    8.1721 C   0  0  0  0  0  0  0  0  0  0  0  0
   30.9641   11.5360    7.6729 C   0  0  0  0  0  0  0  0  0  0  0  0
   32.1105   12.4459    7.2274 C   0  0  0  0  0  0  0  0  0  0  0  0
   32.6103   13.2830    8.4169 C   0  0  0  0  0  0  0  0  0  0  0  0
   31.3628   13.2991    6.2743 C   0  0  0  0  0  0  0  0  0  0  0  0
   33.2912   11.7858    6.4812 C   0  0  0  0  0  0  0  0  0  0  0  0
   34.1930   12.4872    6.0249 O   0  0  0  0  0  0  0  0  0  0  0  0
  1  2  1  0
  2  3  1  0
  3  4  2  0
  3  5  1  0
  5  6  2  0
  6  7  1  0
  7  8  2  0
  8  9  1  0
  9 10  2  0
 10 11  1  0
 11 12  1  0
 11 13  1  0
 11 14  1  0
 14 15  2  0
 14  2  1  0
 10  5  1  0
A    1
 C1 
A    2
 N1 
A    3
 C2 
A    4
 O1 
A    5
 C3 
A    6
 C4 
A    7
 C5 
A    8
 C6 
A    9
 C7 
A   10
 C8 
A   11
 C9 
A   12
 C10
A   13
 C11
A   14
 C12
A   15
 O2 
M  END
>  <ref_pdb>  (820) 
Ax0310a

>  <ref_mols>  (820) 
Ax0446a,Ax1080a,Ax0812a,Ax0719a,Ax1140a,Ax0528a,Ax0310a

>  <original SMILES>  (820) 
CN1C(=O)c2ccccc2C(C)(C)C1=O

>  <rationale>  (820) 
info info set:3d;

>  <experiment>  (820) 
3d

>  <cluster_label>  (820) 
3

>  <cluster_rank>  (820) 
477

>  <N_interactions>  (820) 
0

>  <∆∆G>  (820) 
-6.871051

>  <comRMSD>  (820) 
0.725476

>  <ROCS_TanimotoCombo>  (820) 
0.333

>  <ROCS_ShapeTanimoto>  (820) 
0.211

>  <ROCS_ColorTanimoto>  (820) 
0.122

$$$$
EN300_6489320
     RDKit          3D

 15 16  0  0  0  0  0  0  0  0999 V2000
   28.5270   13.8750    9.7266 N   0  0  0  0  0  0  0  0  0  0  0  0
   29.5497   14.3884    8.5189 S   0  0  0  0  0  6  0  0  0  0  0  0
   30.8278   14.6293    9.1553 O   0  0  0  0  0  0  0  0  0  0  0  0
   28.8320   15.4524    7.8647 O   0  0  0  0  0  0  0  0  0  0  0  0
   29.7386   12.9746    7.4029 C   0  0  0  0  0  0  0  0  0  0  0  0
   31.0746   12.3310    7.7371 C   0  0  1  0  0  0  0  0  0  0  0  0
   30.9800   10.8656    7.6946 C   0  0  0  0  0  0  0  0  0  0  0  0
   31.8465   10.1285    6.6073 C   0  0  0  0  0  0  0  0  0  0  0  0
   32.5354   11.4739    6.0886 C   0  0  0  0  0  0  0  0  0  0  0  0
   33.8225   11.2208    6.4032 C   0  0  0  0  0  0  0  0  0  0  0  0
   34.3841   10.2161    5.3303 C   0  0  0  0  0  0  0  0  0  0  0  0
   35.1612   11.0140    4.4918 O   0  0  0  0  0  0  0  0  0  0  0  0
   34.4026   12.2032    4.3880 C   0  0  0  0  0  0  0  0  0  0  0  0
   32.8853   11.8476    4.6222 C   0  0  0  0  0  0  0  0  0  0  0  0
   32.0791   12.6568    6.7804 O   0  0  0  0  0  0  0  0  0  0  0  0
  1  2  1  0
  2  3  2  0
  2  4  2  0
  2  5  1  0
  6  5  1  6
  6  7  1  0
  7  8  1  0
  8  9  1  0
  9 10  1  0
 10 11  1  0
 11 12  1  0
 12 13  1  0
 13 14  1  0
  9 15  1  0
 15  6  1  0
 14  9  1  0
A    1
 N1 
A    2
 S1 
A    3
 O1 
A    4
 O2 
A    5
 C1 
A    6
 C2 
A    7
 C3 
A    8
 C4 
A    9
 C5 
A   10
 C6 
A   11
 C7 
A   12
 O3 
A   13
 C8 
A   14
 C9 
A   15
 O4 
M  END
>  <ref_pdb>  (821) 
Ax0310a

>  <ref_mols>  (821) 
Ax0446a,Ax1080a,Ax0812a,Ax0719a,Ax1140a,Ax0528a,Ax0310a

>  <original SMILES>  (821) 
NS(=O)(=O)C[C@H]1CCC2(CCOCC2)O1

>  <rationale>  (821) 
info info set:sulfonimide_whole;hbond:S87+S125; 

>  <experiment>  (821) 
sulfonimide_whole

>  <cluster_label>  (821) 
3

>  <cluster_rank>  (821) 
478

>  <N_interactions>  (821) 
2

>  <∆∆G>  (821) 
-0.756502

>  <comRMSD>  (821) 
0.989391

>  <ROCS_TanimotoCombo>  (821) 
0.368

>  <ROCS_ShapeTanimoto>  (821) 
0.197

>  <ROCS_ColorTanimoto>  (821) 
0.171

$$$$
Z4105194714
     RDKit          3D

 23 25  0  0  0  0  0  0  0  0999 V2000
   30.0721    8.3449    8.4660 C   0  0  0  0  0  0  0  0  0  0  0  0
   30.3454    9.7571    8.3132 C   0  0  0  0  0  0  0  0  0  0  0  0
   31.2929   10.0616    7.4293 N   0  0  0  0  0  0  0  0  0  0  0  0
   32.2904    9.2018    7.0952 N   0  0  0  0  0  0  0  0  0  0  0  0
   33.0056    9.9198    6.2177 C   0  0  0  0  0  0  0  0  0  0  0  0
   32.4715   11.1651    5.9998 C   0  0  0  0  0  0  0  0  0  0  0  0
   31.3432   11.2275    6.7971 C   0  0  0  0  0  0  0  0  0  0  0  0
   30.3878   12.3002    6.9464 C   0  0  0  0  0  0  0  0  0  0  0  0
   30.1908   13.0521    5.9994 O   0  0  0  0  0  0  0  0  0  0  0  0
   29.6722   12.4498    8.0762 N   0  0  0  0  0  0  0  0  0  0  0  0
   28.4704   13.2899    8.1379 C   0  0  1  0  0  0  0  0  0  0  0  0
   28.3790   14.1582    9.2731 C   0  0  0  0  0  0  0  0  0  0  0  0
   29.2346   15.1420    8.9888 C   0  0  1  0  0  0  0  0  0  0  0  0
   30.5766   14.9797    9.4331 C   0  0  0  0  0  0  0  0  0  0  0  0
   30.9780   15.7446   10.5017 N   0  0  0  0  0  0  0  0  0  0  0  0
   31.4162   14.2260    8.9455 O   0  0  0  0  0  0  0  0  0  0  0  0
   28.7607   14.6737    7.5382 C   0  0  0  0  0  0  0  0  0  0  0  0
   33.1787   12.0457    5.0506 C   0  0  0  0  0  0  0  0  0  0  0  0
   34.6285   12.0394    5.4627 C   0  0  2  0  0  0  0  0  0  0  0  0
   35.5628   12.7520    4.4996 C   0  0  0  0  0  0  0  0  0  0  0  0
   35.1890   10.6772    5.4487 O   0  0  0  0  0  0  0  0  0  0  0  0
   34.2731    9.5329    5.5070 C   0  0  2  0  0  0  0  0  0  0  0  0
   34.3204    9.0342    4.0812 C   0  0  0  0  0  0  0  0  0  0  0  0
  1  2  1  0
  2  3  1  0
  3  4  1  0
  4  5  2  0
  5  6  1  0
  6  7  2  0
  7  8  1  0
  8  9  2  0
  8 10  1  0
 11 10  1  1
 11 12  1  0
 12 13  1  0
 13 14  1  6
 14 15  1  0
 14 16  2  0
 13 17  1  0
  6 18  1  0
 18 19  1  0
 19 20  1  6
 19 21  1  0
 21 22  1  0
 22 23  1  6
  7  3  1  0
 17 11  1  0
 22  5  1  0
A    1
 C1 
A    2
 C2 
A    3
 N1 
A    4
 N2 
A    5
 C3 
A    6
 C4 
A    7
 C5 
A    8
 C6 
A    9
 O1 
A   10
 N3 
A   11
 C7 
A   12
 C8 
A   13
 C9 
A   14
 C10
A   15
 N4 
A   16
 O2 
A   17
 C11
A   18
 C12
A   19
 C13
A   20
 C14
A   21
 O3 
A   22
 C15
A   23
 C16
M  END
>  <ref_pdb>  (822) 
Ax0310a

>  <ref_mols>  (822) 
Ax0446a,Ax1080a,Ax0812a,Ax0719a,Ax1140a,Ax0528a,Ax0310a

>  <original SMILES>  (822) 
CCn1nc2c(c1C(=O)N[C@H]1C[C@@H](C(N)=O)C1)C[C@H](C)O[C@@H]2C

>  <rationale>  (822) 
info info set:screening_whole;hbond:S87+S125; hydroph_interaction:P107+Y90+V124; 

>  <experiment>  (822) 
screening_whole

>  <cluster_label>  (822) 
3

>  <cluster_rank>  (822) 
479

>  <N_interactions>  (822) 
5

>  <∆∆G>  (822) 
-4.111161

>  <comRMSD>  (822) 
0.731768

>  <ROCS_TanimotoCombo>  (822) 
0.464

>  <ROCS_ShapeTanimoto>  (822) 
0.255

>  <ROCS_ColorTanimoto>  (822) 
0.209

$$$$
Z119914894
     RDKit          3D

 17 18  0  0  0  0  0  0  0  0999 V2000
   35.7665   14.7358    8.8679 C   0  0  0  0  0  0  0  0  0  0  0  0
   34.8713   13.7391    9.2243 N   0  0  0  0  0  0  0  0  0  0  0  0
   33.4735   14.1335    9.2289 C   0  0  0  0  0  0  0  0  0  0  0  0
   32.5821   15.1751   10.2625 S   0  0  0  0  0  0  0  0  0  0  0  0
   31.0727   14.9237    9.5406 N   0  0  0  0  0  0  0  0  0  0  0  0
   31.1839   14.0848    8.5015 C   0  0  0  0  0  0  0  0  0  0  0  0
   30.0158   13.7818    7.8085 C   0  0  0  0  0  0  0  0  0  0  0  0
   32.5326   13.6166    8.2375 C   0  0  0  0  0  0  0  0  0  0  0  0
   33.0035   12.7944    7.2565 C   0  0  0  0  0  0  0  0  0  0  0  0
   33.8601   13.1332    6.4366 O   0  0  0  0  0  0  0  0  0  0  0  0
   32.4354   11.6034    7.2713 N   0  0  0  0  0  0  0  0  0  0  0  0
   31.0844   11.6027    7.7438 C   0  0  0  0  0  0  0  0  0  0  0  0
   30.6918   10.3930    8.1569 C   0  0  0  0  0  0  0  0  0  0  0  0
   31.1800    9.3197    7.5147 C   0  0  0  0  0  0  0  0  0  0  0  0
   31.3704    8.1474    8.2570 C   0  0  0  0  0  0  0  0  0  0  0  0
   32.3308    9.4786    6.4729 C   0  0  0  0  0  0  0  0  0  0  0  0
   32.7652   10.7457    6.1930 C   0  0  0  0  0  0  0  0  0  0  0  0
  1  2  1  0
  2  3  1  0
  3  4  1  0
  4  5  1  0
  5  6  2  0
  6  7  1  0
  6  8  1  0
  8  9  1  0
  9 10  2  0
  9 11  1  0
 11 12  1  0
 12 13  1  0
 13 14  1  0
 14 15  1  0
 14 16  1  0
 16 17  1  0
  8  3  2  0
 17 11  1  0
A    1
 C1 
A    2
 N1 
A    3
 C2 
A    4
 S1 
A    5
 N2 
A    6
 C3 
A    7
 C4 
A    8
 C5 
A    9
 C6 
A   10
 O1 
A   11
 N3 
A   12
 C7 
A   13
 C8 
A   14
 C9 
A   15
 C10
A   16
 C11
A   17
 C12
M  END
>  <ref_pdb>  (823) 
Ax0310a

>  <ref_mols>  (823) 
Ax0446a,Ax1080a,Ax0812a,Ax0719a,Ax1140a,Ax0528a,Ax0310a

>  <original SMILES>  (823) 
CNc1snc(C)c1C(=O)N1CCC(C)CC1

>  <rationale>  (823) 
info info set:3d;hbond:S87+G127; 

>  <experiment>  (823) 
3d

>  <cluster_label>  (823) 
3

>  <cluster_rank>  (823) 
480

>  <N_interactions>  (823) 
3

>  <∆∆G>  (823) 
-3.88947

>  <comRMSD>  (823) 
0.851965

>  <ROCS_TanimotoCombo>  (823) 
0.331

>  <ROCS_ShapeTanimoto>  (823) 
0.19

>  <ROCS_ColorTanimoto>  (823) 
0.141

$$$$
EN300_1294893
     RDKit          3D

 13 13  0  0  0  0  0  0  0  0999 V2000
   28.9109    9.3748    9.1363 C   0  0  0  0  0  0  0  0  0  0  0  0
   30.3279    9.1654    8.8578 C   0  0  0  0  0  0  0  0  0  0  0  0
   30.6404    8.7893    7.5910 C   0  0  0  0  0  0  0  0  0  0  0  0
   30.8531    8.0056    9.5186 C   0  0  0  0  0  0  0  0  0  0  0  0
   31.1161   10.2687    8.8265 O   0  0  0  0  0  0  0  0  0  0  0  0
   31.7051   10.5492    7.6769 C   0  0  0  0  0  0  0  0  0  0  0  0
   32.5082    9.5194    7.0032 N   0  0  0  0  0  0  0  0  0  0  0  0
   33.2137    9.7784    5.7605 C   0  0  0  0  0  0  0  0  0  0  0  0
   34.0448    8.8040    5.0523 O   0  0  0  0  0  0  0  0  0  0  0  0
   33.0842   11.2044    5.1371 C   0  0  0  0  0  0  0  0  0  0  0  0
   32.1933   12.1658    5.9602 C   0  0  0  0  0  0  0  0  0  0  0  0
   31.4970   11.8045    7.2597 C   0  0  0  0  0  0  0  0  0  0  0  0
   30.6906   12.6899    8.0077 N   0  0  0  0  0  0  0  0  0  0  0  0
  1  2  1  0
  2  3  1  0
  2  4  1  0
  2  5  1  0
  5  6  1  0
  6  7  2  0
  7  8  1  0
  8  9  1  0
  8 10  2  0
 10 11  1  0
 11 12  2  0
 12 13  1  0
 12  6  1  0
A    1
 C1 
A    2
 C2 
A    3
 C3 
A    4
 C4 
A    5
 O1 
A    6
 C5 
A    7
 N1 
A    8
 C6 
A    9
 O2 
A   10
 C7 
A   11
 C8 
A   12
 C9 
A   13
 N2 
M  END
>  <ref_pdb>  (824) 
Ax0310a

>  <ref_mols>  (824) 
Ax0446a,Ax1080a,Ax0812a,Ax0719a,Ax1140a,Ax0528a,Ax0310a

>  <original SMILES>  (824) 
CC(C)(C)Oc1nc(O)ccc1N

>  <rationale>  (824) 
info info set:bb_densepocket2;hbond:S125; hydroph_interaction:P107; 

>  <experiment>  (824) 
bb_densepocket2

>  <cluster_label>  (824) 
3

>  <cluster_rank>  (824) 
481

>  <N_interactions>  (824) 
2

>  <∆∆G>  (824) 
-2.310714

>  <comRMSD>  (824) 
0.94198

>  <ROCS_TanimotoCombo>  (824) 
0.637

>  <ROCS_ShapeTanimoto>  (824) 
0.226

>  <ROCS_ColorTanimoto>  (824) 
0.411

$$$$
Z800018726
     RDKit          3D

 16 17  0  0  0  0  0  0  0  0999 V2000
   31.7148   15.9434    9.9535 N   0  0  0  0  0  0  0  0  0  0  0  0
   31.1201   14.7412    9.5702 C   0  0  0  0  0  0  0  0  0  0  0  0
   29.6197   14.6353    9.4026 C   0  0  0  0  0  0  0  0  0  0  0  0
   29.2609   13.2889    9.0556 N   0  0  0  0  0  0  0  0  0  0  0  0
   29.8891   12.6628    8.0119 C   0  0  0  0  0  0  0  0  0  0  0  0
   30.2553   13.2397    7.0007 O   0  0  0  0  0  0  0  0  0  0  0  0
   30.0383   11.2830    8.1898 C   0  0  0  0  0  0  0  0  0  0  0  0
   31.0939   10.6617    7.6384 C   0  0  0  0  0  0  0  0  0  0  0  0
   32.1933   11.2351    7.1279 C   0  0  0  0  0  0  0  0  0  0  0  0
   32.5996   12.5692    7.0846 C   0  0  0  0  0  0  0  0  0  0  0  0
   33.8077   12.7844    6.3648 C   0  0  0  0  0  0  0  0  0  0  0  0
   34.5121   11.7698    5.7293 C   0  0  0  0  0  0  0  0  0  0  0  0
   34.0722   10.4766    5.8085 C   0  0  0  0  0  0  0  0  0  0  0  0
   32.9184   10.1302    6.5396 C   0  0  0  0  0  0  0  0  0  0  0  0
   32.4161    8.9445    6.7080 N   0  0  0  0  0  0  0  0  0  0  0  0
   31.2192    9.1894    7.5595 C   0  0  0  0  0  0  0  0  0  0  0  0
  1  2  3  0
  2  3  1  0
  3  4  1  0
  4  5  1  0
  5  6  2  0
  5  7  1  0
  7  8  1  0
  8  9  2  0
  9 10  1  0
 10 11  2  0
 11 12  1  0
 12 13  2  0
 13 14  1  0
 14 15  2  0
 15 16  1  0
 16  8  1  0
 14  9  1  0
A    1
 N1 
A    2
 C1 
A    3
 C2 
A    4
 N2 
A    5
 C3 
A    6
 O1 
A    7
 C4 
A    8
 C5 
A    9
 C6 
A   10
 C7 
A   11
 C8 
A   12
 C9 
A   13
 C10
A   14
 C11
A   15
 N3 
A   16
 C12
M  END
>  <ref_pdb>  (825) 
Ax0310a

>  <ref_mols>  (825) 
Ax0446a,Ax1080a,Ax0812a,Ax0719a,Ax1140a,Ax0528a,Ax0310a

>  <original SMILES>  (825) 
N#CCNC(=O)CC1=c2ccccc2=NC1

>  <rationale>  (825) 
info info set:3d;hbond:S87+S125; 

>  <experiment>  (825) 
3d

>  <cluster_label>  (825) 
3

>  <cluster_rank>  (825) 
482

>  <N_interactions>  (825) 
2

>  <∆∆G>  (825) 
-0.056019

>  <comRMSD>  (825) 
0.931962

>  <ROCS_TanimotoCombo>  (825) 
0.366

>  <ROCS_ShapeTanimoto>  (825) 
0.201

>  <ROCS_ColorTanimoto>  (825) 
0.166

$$$$
EN300_801303
     RDKit          3D

 16 17  0  0  0  0  0  0  0  0999 V2000
   28.7322    8.9723    8.2767 C   0  0  0  0  0  0  0  0  0  0  0  0
   30.1770    8.9131    8.2997 C   0  0  0  0  0  0  0  0  0  0  0  0
   30.6305    7.5923    8.4452 C   0  0  0  0  0  0  0  0  0  0  0  0
   30.2330    9.2720    9.5996 C   0  0  0  0  0  0  0  0  0  0  0  0
   31.1632    9.7716    7.5278 C   0  0  0  0  0  0  0  0  0  0  0  0
   32.0441    8.9862    6.8249 N   0  0  0  0  0  0  0  0  0  0  0  0
   33.0030    9.6684    6.0226 C   0  0  0  0  0  0  0  0  0  0  0  0
   34.0895    9.1026    5.0799 C   0  0  0  0  0  0  0  0  0  0  0  0
   35.0603    9.8921    4.2656 C   0  0  0  0  0  0  0  0  0  0  0  0
   36.1659    9.0185    3.2753 Cl  0  0  0  0  0  0  0  0  0  0  0  0
   35.0609   11.3858    4.3101 C   0  0  0  0  0  0  0  0  0  0  0  0
   33.9788   11.9634    5.2413 C   0  0  0  0  0  0  0  0  0  0  0  0
   33.1380   11.1906    5.9315 C   0  0  0  0  0  0  0  0  0  0  0  0
   32.1359   11.9254    6.7691 C   0  0  0  0  0  0  0  0  0  0  0  0
   31.1739   11.2104    7.5341 C   0  0  0  0  0  0  0  0  0  0  0  0
   30.2689   11.9409    8.2641 O   0  0  0  0  0  0  0  0  0  0  0  0
  1  2  1  0
  2  3  1  0
  2  4  1  0
  2  5  1  0
  5  6  2  0
  6  7  1  0
  7  8  2  0
  8  9  1  0
  9 10  1  0
  9 11  2  0
 11 12  1  0
 12 13  2  0
 13 14  1  0
 14 15  2  0
 15 16  1  0
 15  5  1  0
 13  7  1  0
A    1
 C1 
A    2
 C2 
A    3
 C3 
A    4
 C4 
A    5
 C5 
A    6
 N1 
A    7
 C6 
A    8
 C7 
A    9
 C8 
A   10
CL1 
A   11
 C9 
A   12
 C10
A   13
 C11
A   14
 C12
A   15
 C13
A   16
 O1 
M  END
>  <ref_pdb>  (826) 
Ax0310a

>  <ref_mols>  (826) 
Ax0446a,Ax1080a,Ax0812a,Ax0719a,Ax1140a,Ax0528a,Ax0310a

>  <original SMILES>  (826) 
CC(C)(C)c1nc2cc(Cl)ccc2cc1O

>  <rationale>  (826) 
info info set:bb_densepocket2;hbond:S125; hydroph_interaction:D109; 

>  <experiment>  (826) 
bb_densepocket2

>  <cluster_label>  (826) 
3

>  <cluster_rank>  (826) 
483

>  <N_interactions>  (826) 
2

>  <∆∆G>  (826) 
-4.708273

>  <comRMSD>  (826) 
0.571293

>  <ROCS_TanimotoCombo>  (826) 
0.616

>  <ROCS_ShapeTanimoto>  (826) 
0.269

>  <ROCS_ColorTanimoto>  (826) 
0.347

$$$$
EN300_11702970
     RDKit          3D

 16 16  0  0  0  0  0  0  0  0999 V2000
   28.1290   13.9841    6.8819 C   0  0  0  0  0  0  0  0  0  0  0  0
   28.8318   13.1728    7.9778 C   0  0  0  0  0  0  0  0  0  0  0  0
   27.9420   11.9910    8.3216 C   0  0  0  0  0  0  0  0  0  0  0  0
   29.0661   14.0328    9.2292 C   0  0  0  0  0  0  0  0  0  0  0  0
   30.0765   12.5840    7.5016 O   0  0  0  0  0  0  0  0  0  0  0  0
   30.4622   11.3697    7.9526 C   0  0  0  0  0  0  0  0  0  0  0  0
   29.9922   10.7378    8.8517 O   0  0  0  0  0  0  0  0  0  0  0  0
   31.5561   10.7988    7.1872 C   0  0  0  0  0  0  0  0  0  0  0  0
   32.3570   11.6571    6.4937 N   0  0  0  0  0  0  0  0  0  0  0  0
   33.3313   11.0494    5.7993 C   0  0  0  0  0  0  0  0  0  0  0  0
   34.3673   12.0894    4.9119 Cl  0  0  0  0  0  0  0  0  0  0  0  0
   33.5036    9.4954    5.8015 C   0  0  0  0  0  0  0  0  0  0  0  0
   34.4862    8.8085    5.0941 N   0  0  0  0  0  0  0  0  0  0  0  0
   32.6599    8.7564    6.5278 N   0  0  0  0  0  0  0  0  0  0  0  0
   31.6772    9.4112    7.2323 C   0  0  0  0  0  0  0  0  0  0  0  0
   30.8062    8.6085    7.9876 N   0  0  0  0  0  0  0  0  0  0  0  0
  1  2  1  0
  2  3  1  0
  2  4  1  0
  2  5  1  0
  5  6  1  0
  6  7  2  0
  6  8  1  0
  8  9  2  0
  9 10  1  0
 10 11  1  0
 10 12  2  0
 12 13  1  0
 12 14  1  0
 14 15  2  0
 15 16  1  0
 15  8  1  0
A    1
 C1 
A    2
 C2 
A    3
 C3 
A    4
 C4 
A    5
 O1 
A    6
 C5 
A    7
 O2 
A    8
 C6 
A    9
 N1 
A   10
 C7 
A   11
CL1 
A   12
 C8 
A   13
 N2 
A   14
 N3 
A   15
 C9 
A   16
 N4 
M  END
>  <ref_pdb>  (827) 
Ax0310a

>  <ref_mols>  (827) 
Ax0446a,Ax1080a,Ax0812a,Ax0719a,Ax1140a,Ax0528a,Ax0310a

>  <original SMILES>  (827) 
CC(C)(C)OC(=O)c1nc(Cl)c(N)nc1N

>  <rationale>  (827) 
info info set:bb_densepocket2;hbond:S105+G127; 

>  <experiment>  (827) 
bb_densepocket2

>  <cluster_label>  (827) 
3

>  <cluster_rank>  (827) 
484

>  <N_interactions>  (827) 
3

>  <∆∆G>  (827) 
-5.529049

>  <comRMSD>  (827) 
0.472045

>  <ROCS_TanimotoCombo>  (827) 
0.617

>  <ROCS_ShapeTanimoto>  (827) 
0.266

>  <ROCS_ColorTanimoto>  (827) 
0.351

$$$$
EN300_1268916
     RDKit          3D

 12 12  0  0  0  0  0  0  0  0999 V2000
   34.3604    8.9166    4.9206 C   0  0  0  0  0  0  0  0  0  0  0  0
   33.3206    9.6632    5.7806 C   0  0  0  0  0  0  0  0  0  0  0  0
   33.1808   11.0590    5.2661 C   0  0  0  0  0  0  0  0  0  0  0  0
   32.0672   11.9030    6.2184 S   0  0  0  0  0  0  0  0  0  0  0  0
   31.8551   10.4857    7.1801 C   0  0  0  0  0  0  0  0  0  0  0  0
   30.8851   10.6608    8.3407 C   0  0  0  0  0  0  0  0  0  0  0  0
   30.6350   11.9938    8.7351 O   0  0  0  0  0  0  0  0  0  0  0  0
   30.2674    9.4290    8.8439 C   0  0  0  0  0  0  0  0  0  0  0  0
   28.8387    9.5364    9.0947 C   0  0  0  0  0  0  0  0  0  0  0  0
   30.3258    8.6208    7.7490 C   0  0  0  0  0  0  0  0  0  0  0  0
   30.8211    8.2600    9.5614 C   0  0  0  0  0  0  0  0  0  0  0  0
   32.5763    9.3431    6.8296 N   0  0  0  0  0  0  0  0  0  0  0  0
  1  2  1  0
  2  3  2  0
  3  4  1  0
  4  5  1  0
  5  6  1  0
  6  7  2  0
  6  8  1  0
  8  9  1  0
  8 10  1  0
  8 11  1  0
  5 12  2  0
 12  2  1  0
A    1
 C1 
A    2
 C2 
A    3
 C3 
A    4
 S1 
A    5
 C4 
A    6
 C5 
A    7
 O1 
A    8
 C6 
A    9
 C7 
A   10
 C8 
A   11
 C9 
A   12
 N1 
M  END
>  <ref_pdb>  (828) 
Ax0310a

>  <ref_mols>  (828) 
Ax0446a,Ax1080a,Ax0812a,Ax0719a,Ax1140a,Ax0528a,Ax0310a

>  <original SMILES>  (828) 
Cc1csc(C(=O)C(C)(C)C)n1

>  <rationale>  (828) 
info info set:bb_densepocket2;hbond:S125+G127; 

>  <experiment>  (828) 
bb_densepocket2

>  <cluster_label>  (828) 
3

>  <cluster_rank>  (828) 
485

>  <N_interactions>  (828) 
2

>  <∆∆G>  (828) 
-3.404955

>  <comRMSD>  (828) 
0.862815

>  <ROCS_TanimotoCombo>  (828) 
0.623

>  <ROCS_ShapeTanimoto>  (828) 
0.183

>  <ROCS_ColorTanimoto>  (828) 
0.44

$$$$
Z166861020
     RDKit          3D

 25 28  0  0  0  0  0  0  0  0999 V2000
   34.7886   14.3927    9.2653 C   0  0  0  0  0  0  0  0  0  0  0  0
   33.3380   14.6333    9.4217 C   0  0  0  0  0  0  0  0  0  0  0  0
   32.6410   15.6845    9.9908 C   0  0  0  0  0  0  0  0  0  0  0  0
   31.2670   15.5679    9.9786 N   0  0  0  0  0  0  0  0  0  0  0  0
   30.9419   14.4500    9.4051 C   0  0  0  0  0  0  0  0  0  0  0  0
   29.7264   13.8887    9.1841 N   0  0  0  0  0  0  0  0  0  0  0  0
   28.7701   14.4028    8.3446 C   0  0  0  0  0  0  0  0  0  0  0  0
   28.7117   15.4670    7.7513 O   0  0  0  0  0  0  0  0  0  0  0  0
   27.6748   13.5661    8.1659 C   0  0  0  0  0  0  0  0  0  0  0  0
   27.8849   12.3803    7.4809 C   0  0  0  0  0  0  0  0  0  0  0  0
   29.1183   11.7269    7.8868 N   0  0  0  0  0  0  0  0  0  0  0  0
   29.0823   10.5157    8.5503 C   0  0  0  0  0  0  0  0  0  0  0  0
   29.9482    9.5720    8.4443 N   0  0  0  0  0  0  0  0  0  0  0  0
   30.9488    9.9097    7.6097 C   0  0  0  0  0  0  0  0  0  0  0  0
   32.1192    8.8104    7.1323 S   0  0  0  0  0  0  0  0  0  0  0  0
   32.9253    9.9656    6.1816 C   0  0  0  0  0  0  0  0  0  0  0  0
   32.3193   11.1767    6.2174 C   0  0  0  0  0  0  0  0  0  0  0  0
   31.1653   11.1360    7.0249 C   0  0  0  0  0  0  0  0  0  0  0  0
   30.2763   12.1418    7.2605 C   0  0  0  0  0  0  0  0  0  0  0  0
   30.4844   13.2862    6.8957 O   0  0  0  0  0  0  0  0  0  0  0  0
   32.8641   12.3395    5.4591 C   0  0  0  0  0  0  0  0  0  0  0  0
   34.3852   12.2919    5.5447 C   0  0  0  0  0  0  0  0  0  0  0  0
   34.9489   10.9598    5.0111 C   0  0  0  0  0  0  0  0  0  0  0  0
   34.1486    9.6798    5.3809 C   0  0  0  0  0  0  0  0  0  0  0  0
   32.2281   13.5048    8.8306 S   0  0  0  0  0  0  0  0  0  0  0  0
  1  2  1  0
  2  3  2  0
  3  4  1  0
  4  5  2  0
  5  6  1  0
  6  7  1  0
  7  8  2  0
  7  9  1  0
  9 10  1  0
 10 11  1  0
 11 12  1  0
 12 13  2  0
 13 14  1  0
 14 15  1  0
 15 16  1  0
 16 17  2  0
 17 18  1  0
 18 19  1  0
 19 20  2  0
 17 21  1  0
 21 22  1  0
 22 23  1  0
 23 24  1  0
  5 25  1  0
 25  2  1  0
 19 11  1  0
 18 14  2  0
 24 16  1  0
A    1
 C1 
A    2
 C2 
A    3
 C3 
A    4
 N1 
A    5
 C4 
A    6
 N2 
A    7
 C5 
A    8
 O1 
A    9
 C6 
A   10
 C7 
A   11
 N3 
A   12
 C8 
A   13
 N4 
A   14
 C9 
A   15
 S1 
A   16
 C10
A   17
 C11
A   18
 C12
A   19
 C13
A   20
 O2 
A   21
 C14
A   22
 C15
A   23
 C16
A   24
 C17
A   25
 S2 
M  END
>  <ref_pdb>  (829) 
Ax0310a

>  <ref_mols>  (829) 
Ax0446a,Ax1080a,Ax0812a,Ax0719a,Ax1140a,Ax0528a,Ax0310a

>  <original SMILES>  (829) 
Cc1cnc(NC(=O)CCn2cnc3sc4c(c3c2=O)CCCC4)s1

>  <rationale>  (829) 
info info set:screening_whole;hbond:S87+S105+S125; hydroph_interaction:P107+V84; 

>  <experiment>  (829) 
screening_whole

>  <cluster_label>  (829) 
3

>  <cluster_rank>  (829) 
486

>  <N_interactions>  (829) 
5

>  <∆∆G>  (829) 
-6.28987

>  <comRMSD>  (829) 
0.809571

>  <ROCS_TanimotoCombo>  (829) 
0.458

>  <ROCS_ShapeTanimoto>  (829) 
0.257

>  <ROCS_ColorTanimoto>  (829) 
0.201

$$$$
EN300_211051
     RDKit          3D

 13 14  0  0  0  0  0  0  0  0999 V2000
   28.6913   13.4609    9.2335 N   0  0  0  0  0  0  0  0  0  0  0  0
   29.8931   14.0979    8.2676 S   0  0  0  0  0  6  0  0  0  0  0  0
   30.8048   14.8501    9.1120 O   0  0  0  0  0  0  0  0  0  0  0  0
   29.1247   14.7031    7.2106 O   0  0  0  0  0  0  0  0  0  0  0  0
   30.8160   12.7285    7.5847 C   0  0  0  0  0  0  0  0  0  0  0  0
   31.7786   12.9418    6.5668 C   0  0  0  0  0  0  0  0  0  0  0  0
   32.4907   11.8693    6.0579 C   0  0  0  0  0  0  0  0  0  0  0  0
   32.2159   10.6320    6.5860 C   0  0  0  0  0  0  0  0  0  0  0  0
   32.7661    9.4121    6.2780 N   0  0  0  0  0  0  0  0  0  0  0  0
   32.1897    8.4836    7.0495 N   0  0  0  0  0  0  0  0  0  0  0  0
   31.2890    9.0602    7.8383 N   0  0  0  0  0  0  0  0  0  0  0  0
   31.2895   10.3929    7.5680 C   0  0  0  0  0  0  0  0  0  0  0  0
   30.5619   11.4509    8.0880 C   0  0  0  0  0  0  0  0  0  0  0  0
  1  2  1  0
  2  3  2  0
  2  4  2  0
  2  5  1  0
  5  6  2  0
  6  7  1  0
  7  8  2  0
  8  9  1  0
  9 10  1  0
 10 11  2  0
 11 12  1  0
 12 13  2  0
 13  5  1  0
 12  8  1  0
A    1
 N1 
A    2
 S1 
A    3
 O1 
A    4
 O2 
A    5
 C1 
A    6
 C2 
A    7
 C3 
A    8
 C4 
A    9
 N2 
A   10
 N3 
A   11
 N4 
A   12
 C5 
A   13
 C6 
M  END
>  <ref_pdb>  (830) 
Ax0310a

>  <ref_mols>  (830) 
Ax0446a,Ax1080a,Ax0812a,Ax0719a,Ax1140a,Ax0528a,Ax0310a

>  <original SMILES>  (830) 
NS(=O)(=O)c1ccc2[nH]nnc2c1

>  <rationale>  (830) 
info info set:sulfonimide_whole;hbond:S87+S125; hydroph_interaction:P107; 

>  <experiment>  (830) 
sulfonimide_whole

>  <cluster_label>  (830) 
3

>  <cluster_rank>  (830) 
487

>  <N_interactions>  (830) 
3

>  <∆∆G>  (830) 
-4.604028

>  <comRMSD>  (830) 
0.454114

>  <ROCS_TanimotoCombo>  (830) 
0.337

>  <ROCS_ShapeTanimoto>  (830) 
0.193

>  <ROCS_ColorTanimoto>  (830) 
0.144

$$$$
Z2222823437
     RDKit          3D

 20 21  0  0  0  0  0  0  0  0999 V2000
   33.0682   13.0346    5.4529 C   0  0  0  0  0  0  0  0  0  0  0  0
   33.0811   11.5419    5.6802 C   0  0  0  0  0  0  0  0  0  0  0  0
   33.8804   10.7383    4.9681 N   0  0  0  0  0  0  0  0  0  0  0  0
   33.7755    9.4257    5.2849 C   0  0  0  0  0  0  0  0  0  0  0  0
   34.4872    8.6437    4.6668 O   0  0  0  0  0  0  0  0  0  0  0  0
   32.9967    8.8613    6.1804 N   0  0  0  0  0  0  0  0  0  0  0  0
   32.1600    9.6839    6.9246 C   0  0  0  0  0  0  0  0  0  0  0  0
   31.3467    8.9403    7.8769 O   0  0  0  0  0  0  0  0  0  0  0  0
   32.1345   11.0518    6.7504 C   0  0  0  0  0  0  0  0  0  0  0  0
   31.3530   11.9575    7.4403 N   0  0  0  0  0  0  0  0  0  0  0  0
   30.4140   11.4605    8.1510 C   0  0  0  0  0  0  0  0  0  0  0  0
   30.5817   10.2721    8.9160 O   0  0  0  0  0  0  0  0  0  0  0  0
   29.0463   12.0735    8.0799 C   0  0  0  0  0  0  0  0  0  0  0  0
   28.8980   13.4791    7.9397 C   0  0  0  0  0  0  0  0  0  0  0  0
   29.4631   14.5266    8.7490 C   0  0  0  0  0  0  0  0  0  0  0  0
   28.9459   15.6072    8.1904 N   0  0  0  0  0  0  0  0  0  0  0  0
   29.0832   16.9155    8.5153 C   0  0  0  0  0  0  0  0  0  0  0  0
   28.1671   15.3696    7.1504 N   0  0  0  0  0  0  0  0  0  0  0  0
   28.1199   14.1022    7.0035 C   0  0  0  0  0  0  0  0  0  0  0  0
   27.1768   13.4008    5.8048 Cl  0  0  0  0  0  0  0  0  0  0  0  0
  1  2  1  0
  2  3  2  0
  3  4  1  0
  4  5  1  0
  4  6  2  0
  6  7  1  0
  7  8  1  0
  7  9  2  0
  9 10  1  0
 10 11  1  0
 11 12  2  0
 11 13  1  0
 13 14  1  0
 14 15  2  0
 15 16  1  0
 16 17  1  0
 16 18  1  0
 18 19  2  0
 19 20  1  0
  9  2  1  0
 19 14  1  0
A    1
 C1 
A    2
 C2 
A    3
 N1 
A    4
 C3 
A    5
 O1 
A    6
 N2 
A    7
 C4 
A    8
 O2 
A    9
 C5 
A   10
 N3 
A   11
 C6 
A   12
 O3 
A   13
 C7 
A   14
 C8 
A   15
 C9 
A   16
 N4 
A   17
 C10
A   18
 N5 
A   19
 C11
A   20
CL1 
M  END
>  <ref_pdb>  (831) 
Ax0310a

>  <ref_mols>  (831) 
Ax0446a,Ax1080a,Ax0812a,Ax0719a,Ax1140a,Ax0528a,Ax0310a

>  <original SMILES>  (831) 
Cc1nc(O)nc(O)c1NC(=O)Cc1cn(C)nc1Cl

>  <rationale>  (831) 
info info set:screening_pocket;hbond:S87+S105+G127; pistack:H21; 

>  <experiment>  (831) 
screening_pocket

>  <cluster_label>  (831) 
3

>  <cluster_rank>  (831) 
488

>  <N_interactions>  (831) 
4

>  <∆∆G>  (831) 
-1.20333

>  <comRMSD>  (831) 
0.994496

>  <ROCS_TanimotoCombo>  (831) 
0.7

>  <ROCS_ShapeTanimoto>  (831) 
0.258

>  <ROCS_ColorTanimoto>  (831) 
0.442

$$$$
EN300_1654854
     RDKit          3D

 14 14  0  0  0  0  0  0  0  0999 V2000
   30.1325    8.9116    8.9209 C   0  0  0  0  0  0  0  0  0  0  0  0
   31.0557    9.6217    7.9848 C   0  0  0  0  0  0  0  0  0  0  0  0
   31.9212    8.7083    7.2298 C   0  0  0  0  0  0  0  0  0  0  0  0
   32.9365    9.1673    6.2367 C   0  0  0  0  0  0  0  0  0  0  0  0
   33.0084   10.6855    6.0722 C   0  0  0  0  0  0  0  0  0  0  0  0
   34.1518   10.5789    4.9910 C   0  0  0  0  0  0  0  0  0  0  0  0
   35.3502   11.3649    5.2311 N   0  0  0  0  0  0  0  0  0  0  0  0
   32.1255   11.7263    6.8389 C   0  0  0  0  0  0  0  0  0  0  0  0
   31.0811   11.1838    7.8476 C   0  0  0  0  0  0  0  0  0  0  0  0
   30.2308   12.0135    8.5690 N   0  0  0  0  0  0  0  0  0  0  0  0
   30.3179   13.6366    8.2045 S   0  0  0  0  0  6  0  0  0  0  0  0
   28.7146   14.2172    8.7177 C   0  0  0  0  0  0  0  0  0  0  0  0
   30.3318   13.5705    6.7630 O   0  0  0  0  0  0  0  0  0  0  0  0
   31.3496   14.2958    8.9769 O   0  0  0  0  0  0  0  0  0  0  0  0
  1  2  1  0
  2  3  2  0
  3  4  1  0
  4  5  2  0
  5  6  1  0
  6  7  3  0
  5  8  1  0
  8  9  2  0
  9 10  1  0
 10 11  1  0
 11 12  1  0
 11 13  2  0
 11 14  2  0
  9  2  1  0
A    1
 C1 
A    2
 C2 
A    3
 C3 
A    4
 C4 
A    5
 C5 
A    6
 C6 
A    7
 N1 
A    8
 C7 
A    9
 C8 
A   10
 N2 
A   11
 S1 
A   12
 C9 
A   13
 O1 
A   14
 O2 
M  END
>  <ref_pdb>  (832) 
Ax0310a

>  <ref_mols>  (832) 
Ax0446a,Ax1080a,Ax0812a,Ax0719a,Ax1140a,Ax0528a,Ax0310a

>  <original SMILES>  (832) 
Cc1ccc(C#N)cc1NS(C)(=O)=O

>  <rationale>  (832) 
info info set:sulfonimide_whole;hbond:S87+S125+G127; hydroph_interaction:V124; 

>  <experiment>  (832) 
sulfonimide_whole

>  <cluster_label>  (832) 
3

>  <cluster_rank>  (832) 
489

>  <N_interactions>  (832) 
4

>  <∆∆G>  (832) 
-8.786951

>  <comRMSD>  (832) 
0.744991

>  <ROCS_TanimotoCombo>  (832) 
0.331

>  <ROCS_ShapeTanimoto>  (832) 
0.193

>  <ROCS_ColorTanimoto>  (832) 
0.138

$$$$
EN300_6476896
     RDKit          3D

 17 17  0  0  0  0  0  0  0  0999 V2000
   26.8379   13.9881    5.6949 C   0  0  0  0  0  0  0  0  0  0  0  0
   27.8428   14.3899    7.1082 S   0  0  0  0  0  6  0  0  0  0  0  0
   27.0424   14.4373    8.3044 O   0  0  0  0  0  0  0  0  0  0  0  0
   28.7832   15.4518    6.8428 O   0  0  0  0  0  0  0  0  0  0  0  0
   28.7326   12.8892    7.0679 C   0  0  0  0  0  0  0  0  0  0  0  0
   29.5483   12.7175    8.2840 C   0  0  0  0  0  0  0  0  0  0  0  0
   29.9987   11.4258    8.4677 N   0  0  0  0  0  0  0  0  0  0  0  0
   30.9729   11.1397    7.6713 C   0  0  0  0  0  0  0  0  0  0  0  0
   31.7710   12.1639    6.8361 C   0  0  0  0  0  0  0  0  0  0  0  0
   32.8529   11.7237    5.9655 C   0  0  0  0  0  0  0  0  0  0  0  0
   33.1917   10.2588    5.8811 C   0  0  0  0  0  0  0  0  0  0  0  0
   34.3497    9.8732    4.9444 C   0  0  0  0  0  0  0  0  0  0  0  0
   34.6265    8.5665    4.6630 N   0  0  0  0  0  0  0  0  0  0  0  0
   35.0396   10.7474    4.4358 O   0  0  0  0  0  0  0  0  0  0  0  0
   32.4672    9.3044    6.6390 C   0  0  0  0  0  0  0  0  0  0  0  0
   31.4090    9.6500    7.5046 C   0  0  0  0  0  0  0  0  0  0  0  0
   30.7019    8.6744    8.2513 N   0  0  0  0  0  0  0  0  0  0  0  0
  1  2  1  0
  2  3  2  0
  2  4  2  0
  2  5  1  0
  5  6  1  0
  6  7  1  0
  7  8  1  0
  8  9  2  0
  9 10  1  0
 10 11  2  0
 11 12  1  0
 12 13  1  0
 12 14  2  0
 11 15  1  0
 15 16  2  0
 16 17  1  0
 16  8  1  0
A    1
 C1 
A    2
 S1 
A    3
 O1 
A    4
 O2 
A    5
 C2 
A    6
 C3 
A    7
 N1 
A    8
 C4 
A    9
 C5 
A   10
 C6 
A   11
 C7 
A   12
 C8 
A   13
 N2 
A   14
 O3 
A   15
 C9 
A   16
 C10
A   17
 N3 
M  END
>  <ref_pdb>  (833) 
Ax0310a

>  <ref_mols>  (833) 
Ax0446a,Ax1080a,Ax0812a,Ax0719a,Ax1140a,Ax0528a,Ax0310a

>  <original SMILES>  (833) 
CS(=O)(=O)CCNc1ccc(C(N)=O)cc1N

>  <rationale>  (833) 
info info set:bb_densepocket2;hbond:S105+S125; 

>  <experiment>  (833) 
bb_densepocket2

>  <cluster_label>  (833) 
3

>  <cluster_rank>  (833) 
490

>  <N_interactions>  (833) 
3

>  <∆∆G>  (833) 
-8.157413

>  <comRMSD>  (833) 
0.334244

>  <ROCS_TanimotoCombo>  (833) 
0.625

>  <ROCS_ShapeTanimoto>  (833) 
0.257

>  <ROCS_ColorTanimoto>  (833) 
0.368

$$$$
EN300_1697869
     RDKit          3D

 14 14  0  0  0  0  0  0  0  0999 V2000
   34.5381    8.5574    3.3209 C   0  0  0  0  0  0  0  0  0  0  0  0
   33.9070    9.7588    3.7226 O   0  0  0  0  0  0  0  0  0  0  0  0
   34.1202   10.1736    4.9985 C   0  0  0  0  0  0  0  0  0  0  0  0
   35.2089   10.6125    5.3207 O   0  0  0  0  0  0  0  0  0  0  0  0
   33.0096   10.1041    6.0459 C   0  0  0  0  0  0  0  0  0  0  0  0
   32.2905   11.1685    6.4291 C   0  0  0  0  0  0  0  0  0  0  0  0
   31.2967   10.7796    7.4195 C   0  0  0  0  0  0  0  0  0  0  0  0
   30.2898   11.5383    8.1088 C   0  0  0  0  0  0  0  0  0  0  0  0
   30.3851   13.2432    8.1093 S   0  0  0  0  0  6  0  0  0  0  0  0
   29.1225   13.7363    9.1996 N   0  0  0  0  0  0  0  0  0  0  0  0
   30.1013   13.6434    6.7539 O   0  0  0  0  0  0  0  0  0  0  0  0
   31.7180   13.7728    8.5592 O   0  0  0  0  0  0  0  0  0  0  0  0
   31.4907    9.4494    7.5936 O   0  0  0  0  0  0  0  0  0  0  0  0
   32.5454    9.0348    6.7447 N   0  0  0  0  0  0  0  0  0  0  0  0
  1  2  1  0
  2  3  1  0
  3  4  2  0
  3  5  1  0
  5  6  1  0
  6  7  2  0
  7  8  1  0
  8  9  1  0
  9 10  1  0
  9 11  2  0
  9 12  2  0
  7 13  1  0
 13 14  1  0
 14  5  2  0
A    1
 C1 
A    2
 O1 
A    3
 C2 
A    4
 O2 
A    5
 C3 
A    6
 C4 
A    7
 C5 
A    8
 C6 
A    9
 S1 
A   10
 N1 
A   11
 O3 
A   12
 O4 
A   13
 O5 
A   14
 N2 
M  END
>  <ref_pdb>  (834) 
Ax0310a

>  <ref_mols>  (834) 
Ax0446a,Ax1080a,Ax0812a,Ax0719a,Ax1140a,Ax0528a,Ax0310a

>  <original SMILES>  (834) 
COC(=O)c1cc(CS(N)(=O)=O)on1

>  <rationale>  (834) 
info info set:sulfonimide_whole;hbond:S87+S125; hydroph_interaction:P107; 

>  <experiment>  (834) 
sulfonimide_whole

>  <cluster_label>  (834) 
3

>  <cluster_rank>  (834) 
491

>  <N_interactions>  (834) 
3

>  <∆∆G>  (834) 
-3.950854

>  <comRMSD>  (834) 
0.669179

>  <ROCS_TanimotoCombo>  (834) 
0.352

>  <ROCS_ShapeTanimoto>  (834) 
0.175

>  <ROCS_ColorTanimoto>  (834) 
0.177

$$$$
EN300_801383
     RDKit          3D

 18 19  0  0  0  0  0  0  0  0999 V2000
   33.9003   14.2211    4.5937 C   0  0  0  0  0  0  0  0  0  0  0  0
   32.9118   13.2349    4.3593 O   0  0  0  0  0  0  0  0  0  0  0  0
   33.3578   11.9504    4.4030 C   0  0  0  0  0  0  0  0  0  0  0  0
   34.3450   11.4037    3.4193 C   0  0  0  0  0  0  0  0  0  0  0  0
   34.6681    9.9704    3.6946 C   0  0  0  0  0  0  0  0  0  0  0  0
   34.1109    9.0426    4.8307 C   0  0  0  0  0  0  0  0  0  0  0  0
   33.1938    9.7994    5.5995 C   0  0  0  0  0  0  0  0  0  0  0  0
   32.6340    9.0698    6.5865 N   0  0  0  0  0  0  0  0  0  0  0  0
   31.7356    9.5997    7.4131 C   0  0  0  0  0  0  0  0  0  0  0  0
   31.2089    8.5914    8.3794 C   0  0  0  0  0  0  0  0  0  0  0  0
   29.7773    8.7878    8.7339 C   0  0  0  0  0  0  0  0  0  0  0  0
   28.9800   10.0683    8.6367 C   0  0  0  0  0  0  0  0  0  0  0  0
   29.3465    8.6358   10.0837 C   0  0  0  0  0  0  0  0  0  0  0  0
   29.1485    7.5669    8.5083 C   0  0  0  0  0  0  0  0  0  0  0  0
   31.3455   10.9356    7.3407 C   0  0  0  0  0  0  0  0  0  0  0  0
   30.4506   11.6434    8.1231 O   0  0  0  0  0  0  0  0  0  0  0  0
   31.9091   11.6870    6.3351 C   0  0  0  0  0  0  0  0  0  0  0  0
   32.8365   11.1498    5.4252 C   0  0  0  0  0  0  0  0  0  0  0  0
  1  2  1  0
  2  3  1  0
  3  4  2  0
  4  5  1  0
  5  6  2  0
  6  7  1  0
  7  8  2  0
  8  9  1  0
  9 10  1  0
 10 11  1  0
 11 12  1  0
 11 13  1  0
 11 14  1  0
  9 15  2  0
 15 16  1  0
 15 17  1  0
 17 18  2  0
 18  3  1  0
 18  7  1  0
A    1
 C1 
A    2
 O1 
A    3
 C2 
A    4
 C3 
A    5
 C4 
A    6
 C5 
A    7
 C6 
A    8
 N1 
A    9
 C7 
A   10
 C8 
A   11
 C9 
A   12
 C10
A   13
 C11
A   14
 C12
A   15
 C13
A   16
 O2 
A   17
 C14
A   18
 C15
M  END
>  <ref_pdb>  (835) 
Ax0310a

>  <ref_mols>  (835) 
Ax0446a,Ax1080a,Ax0812a,Ax0719a,Ax1140a,Ax0528a,Ax0310a

>  <original SMILES>  (835) 
COc1cccc2nc(CC(C)(C)C)c(O)cc12

>  <rationale>  (835) 
info info set:bb_densepocket2;hbond:S125+G127; hydroph_interaction:P107+V124+D109; 

>  <experiment>  (835) 
bb_densepocket2

>  <cluster_label>  (835) 
3

>  <cluster_rank>  (835) 
492

>  <N_interactions>  (835) 
5

>  <∆∆G>  (835) 
-4.63368

>  <comRMSD>  (835) 
0.773634

>  <ROCS_TanimotoCombo>  (835) 
0.613

>  <ROCS_ShapeTanimoto>  (835) 
0.244

>  <ROCS_ColorTanimoto>  (835) 
0.369

$$$$
Z1449601486
     RDKit          3D

 17 18  0  0  0  0  0  0  0  0999 V2000
   30.2530    8.4509    8.9600 C   0  0  0  0  0  0  0  0  0  0  0  0
   30.9923    9.4224    8.0794 C   0  0  0  0  0  0  0  0  0  0  0  0
   30.6790   10.8456    8.1953 C   0  0  0  0  0  0  0  0  0  0  0  0
   31.5078   11.6877    7.2796 C   0  0  0  0  0  0  0  0  0  0  0  0
   31.2639   13.1241    7.3977 C   0  0  0  0  0  0  0  0  0  0  0  0
   30.2953   13.5887    6.8228 O   0  0  0  0  0  0  0  0  0  0  0  0
   32.1832   13.7767    8.1985 N   0  0  0  0  0  0  0  0  0  0  0  0
   31.8144   14.5573    9.3655 C   0  0  0  0  0  0  0  0  0  0  0  0
   33.0515   15.3470    9.8442 C   0  0  0  0  0  0  0  0  0  0  0  0
   34.1472   15.3247    9.0168 N   0  0  0  0  0  0  0  0  0  0  0  0
   34.6263   14.0344    8.5345 C   0  0  2  0  0  0  0  0  0  0  0  0
   35.3613   14.1328    7.2070 C   0  0  0  0  0  0  0  0  0  0  0  0
   33.4435   13.1059    8.4069 C   0  0  0  0  0  0  0  0  0  0  0  0
   32.4561   11.2060    6.3863 C   0  0  0  0  0  0  0  0  0  0  0  0
   32.6710    9.8343    6.3483 C   0  0  0  0  0  0  0  0  0  0  0  0
   31.9342    9.0418    7.2008 C   0  0  0  0  0  0  0  0  0  0  0  0
   32.1296    7.8253    7.2068 F   0  0  0  0  0  0  0  0  0  0  0  0
  1  2  1  0
  2  3  2  0
  3  4  1  0
  4  5  1  0
  5  6  2  0
  5  7  1  0
  7  8  1  0
  8  9  1  0
  9 10  1  0
 10 11  1  0
 11 12  1  6
 11 13  1  0
  4 14  2  0
 14 15  1  0
 15 16  2  0
 16 17  1  0
 16  2  1  0
 13  7  1  0
A    1
 C1 
A    2
 C2 
A    3
 C3 
A    4
 C4 
A    5
 C5 
A    6
 O1 
A    7
 N1 
A    8
 C6 
A    9
 C7 
A   10
 N2 
A   11
 C8 
A   12
 C9 
A   13
 C10
A   14
 C11
A   15
 C12
A   16
 C13
A   17
 F1 
M  END
>  <ref_pdb>  (836) 
Ax0310a

>  <ref_mols>  (836) 
Ax0446a,Ax1080a,Ax0812a,Ax0719a,Ax1140a,Ax0528a,Ax0310a

>  <original SMILES>  (836) 
Cc1cc(C(=O)N2CCN[C@H](C)C2)ccc1F

>  <rationale>  (836) 
info info set:3d;hbond:S87+E85; hydroph_interaction:P107+V124+E85; 

>  <experiment>  (836) 
3d

>  <cluster_label>  (836) 
3

>  <cluster_rank>  (836) 
493

>  <N_interactions>  (836) 
5

>  <∆∆G>  (836) 
-4.839253

>  <comRMSD>  (836) 
0.72286

>  <ROCS_TanimotoCombo>  (836) 
0.297

>  <ROCS_ShapeTanimoto>  (836) 
0.197

>  <ROCS_ColorTanimoto>  (836) 
0.099

$$$$
EN300_1154636
     RDKit          3D

 15 16  0  0  0  0  0  0  0  0999 V2000
   29.4497    8.1774    8.4846 C   0  0  0  0  0  0  0  0  0  0  0  0
   30.6257    8.8853    9.0235 C   0  0  0  0  0  0  0  0  0  0  0  0
   30.8279   10.2110    8.3561 C   0  0  0  0  0  0  0  0  0  0  0  0
   30.1378   11.1829    8.5963 O   0  0  0  0  0  0  0  0  0  0  0  0
   31.8429   10.3033    7.4688 N   0  0  0  0  0  0  0  0  0  0  0  0
   32.3825    9.1530    6.7609 C   0  0  0  0  0  0  0  0  0  0  0  0
   33.5831    9.6576    6.0026 C   0  0  2  0  0  0  0  0  0  0  0  0
   34.5369    8.8121    5.2980 N   0  0  0  0  0  0  0  0  0  0  0  0
   32.8310   10.4229    5.1300 C   0  0  0  0  0  0  0  0  0  0  0  0
   33.4236   11.2930    6.0434 C   0  0  2  0  0  0  0  0  0  0  0  0
   33.6775   12.3334    4.9672 C   0  0  0  0  0  0  0  0  0  0  0  0
   32.6060   12.5667    4.1774 F   0  0  0  0  0  0  0  0  0  0  0  0
   34.6753   11.9251    4.1499 F   0  0  0  0  0  0  0  0  0  0  0  0
   34.0304   13.5006    5.5318 F   0  0  0  0  0  0  0  0  0  0  0  0
   32.1937   11.6209    6.8960 C   0  0  0  0  0  0  0  0  0  0  0  0
  1  2  1  0
  2  3  1  0
  3  4  2  0
  3  5  1  0
  5  6  1  0
  6  7  1  0
  7  8  1  6
  7  9  1  0
  9 10  1  0
 10 11  1  6
 11 12  1  0
 11 13  1  0
 11 14  1  0
 10 15  1  0
 15  5  1  0
 10  7  1  0
A    1
 C1 
A    2
 C2 
A    3
 C3 
A    4
 O1 
A    5
 N1 
A    6
 C4 
A    7
 C5 
A    8
 N2 
A    9
 C6 
A   10
 C7 
A   11
 C8 
A   12
 F1 
A   13
 F2 
A   14
 F3 
A   15
 C9 
M  END
>  <ref_pdb>  (837) 
Ax0310a

>  <ref_mols>  (837) 
Ax0446a,Ax1080a,Ax0812a,Ax0719a,Ax1140a,Ax0528a,Ax0310a

>  <original SMILES>  (837) 
CCC(=O)N1C[C@@]2(N)C[C@@]2(C(F)(F)F)C1

>  <rationale>  (837) 
info info set:bb_densepocket2;hydroph_interaction:P107+V124; 

>  <experiment>  (837) 
bb_densepocket2

>  <cluster_label>  (837) 
3

>  <cluster_rank>  (837) 
494

>  <N_interactions>  (837) 
2

>  <∆∆G>  (837) 
-2.123459

>  <comRMSD>  (837) 
0.802432

>  <ROCS_TanimotoCombo>  (837) 
0.637

>  <ROCS_ShapeTanimoto>  (837) 
0.225

>  <ROCS_ColorTanimoto>  (837) 
0.412

$$$$
EN300_283802
     RDKit          3D

 13 13  0  0  0  0  0  0  0  0999 V2000
   34.3666   15.0516    8.9960 N   0  0  0  0  0  0  0  0  0  0  0  0
   33.4170   13.7918    8.4362 S   0  0  0  0  0  6  0  0  0  0  0  0
   34.0219   12.7374    9.1492 O   0  0  0  0  0  0  0  0  0  0  0  0
   32.0404   14.1788    8.6918 O   0  0  0  0  0  0  0  0  0  0  0  0
   33.7983   13.6550    6.6828 C   0  0  0  0  0  0  0  0  0  0  0  0
   32.6190   13.0388    5.9250 C   0  0  0  0  0  0  0  0  0  0  0  0
   32.0536   11.7974    6.5858 C   0  0  0  0  0  0  0  0  0  0  0  0
   33.0291   10.7597    6.1003 C   0  0  0  0  0  0  0  0  0  0  0  0
   32.8118    9.3359    6.5466 C   0  0  0  0  0  0  0  0  0  0  0  0
   31.6247    9.0232    7.4791 C   0  0  0  0  0  0  0  0  0  0  0  0
   30.6537   10.1006    7.9547 C   0  0  0  0  0  0  0  0  0  0  0  0
   30.8374   11.5645    7.4987 C   0  0  0  0  0  0  0  0  0  0  0  0
   29.6614   12.7876    8.0496 Cl  0  0  0  0  0  0  0  0  0  0  0  0
  1  2  1  0
  2  3  2  0
  2  4  2  0
  2  5  1  0
  5  6  1  0
  6  7  1  0
  7  8  2  0
  8  9  1  0
  9 10  2  0
 10 11  1  0
 11 12  2  0
 12 13  1  0
 12  7  1  0
A    1
 N1 
A    2
 S1 
A    3
 O1 
A    4
 O2 
A    5
 C1 
A    6
 C2 
A    7
 C3 
A    8
 C4 
A    9
 C5 
A   10
 C6 
A   11
 C7 
A   12
 C8 
A   13
CL1 
M  END
>  <ref_pdb>  (838) 
Ax0310a

>  <ref_mols>  (838) 
Ax0446a,Ax1080a,Ax0812a,Ax0719a,Ax1140a,Ax0528a,Ax0310a

>  <original SMILES>  (838) 
NS(=O)(=O)CCc1ccccc1Cl

>  <rationale>  (838) 
info info set:sulfonimide_whole;hbond:S87+G127+E85; 

>  <experiment>  (838) 
sulfonimide_whole

>  <cluster_label>  (838) 
3

>  <cluster_rank>  (838) 
495

>  <N_interactions>  (838) 
3

>  <∆∆G>  (838) 
-5.655735

>  <comRMSD>  (838) 
0.508304

>  <ROCS_TanimotoCombo>  (838) 
0.342

>  <ROCS_ShapeTanimoto>  (838) 
0.19

>  <ROCS_ColorTanimoto>  (838) 
0.151

$$$$
EN300_1722216
     RDKit          3D

 13 13  0  0  0  0  0  0  0  0999 V2000
   29.7618    8.2008    8.4693 C   0  0  0  0  0  0  0  0  0  0  0  0
   31.1208    8.7393    8.5494 C   0  0  0  0  0  0  0  0  0  0  0  0
   31.7841    9.4983    7.3940 C   0  0  0  0  0  0  0  0  0  0  0  0
   32.7030    8.8223    6.6634 N   0  0  0  0  0  0  0  0  0  0  0  0
   33.3253    9.4809    5.6737 C   0  0  0  0  0  0  0  0  0  0  0  0
   34.2532    8.8036    4.9229 N   0  0  0  0  0  0  0  0  0  0  0  0
   33.1126   10.7533    5.3531 N   0  0  0  0  0  0  0  0  0  0  0  0
   32.1872   11.3631    6.1039 C   0  0  0  0  0  0  0  0  0  0  0  0
   31.4892   10.8000    7.1241 C   0  0  0  0  0  0  0  0  0  0  0  0
   30.4660   11.5023    7.9275 C   0  0  0  0  0  0  0  0  0  0  0  0
   29.9511   10.9278    8.8146 O   0  0  0  0  0  0  0  0  0  0  0  0
   30.2031   12.7661    7.5222 O   0  0  0  0  0  0  0  0  0  0  0  0
   28.9365   13.2467    7.9943 C   0  0  0  0  0  0  0  0  0  0  0  0
  1  2  1  0
  2  3  1  0
  3  4  2  0
  4  5  1  0
  5  6  1  0
  5  7  2  0
  7  8  1  0
  8  9  2  0
  9 10  1  0
 10 11  2  0
 10 12  1  0
 12 13  1  0
  9  3  1  0
A    1
 C1 
A    2
 C2 
A    3
 C3 
A    4
 N1 
A    5
 C4 
A    6
 N2 
A    7
 N3 
A    8
 C5 
A    9
 C6 
A   10
 C7 
A   11
 O1 
A   12
 O2 
A   13
 C8 
M  END
>  <ref_pdb>  (839) 
Ax0310a

>  <ref_mols>  (839) 
Ax0446a,Ax1080a,Ax0812a,Ax0719a,Ax1140a,Ax0528a,Ax0310a

>  <original SMILES>  (839) 
CCc1nc(N)ncc1C(=O)OC

>  <rationale>  (839) 
info info set:bb_densepocket2;hbond:S105; hydroph_interaction:V124; 

>  <experiment>  (839) 
bb_densepocket2

>  <cluster_label>  (839) 
3

>  <cluster_rank>  (839) 
496

>  <N_interactions>  (839) 
2

>  <∆∆G>  (839) 
-4.208907

>  <comRMSD>  (839) 
0.512218

>  <ROCS_TanimotoCombo>  (839) 
0.643

>  <ROCS_ShapeTanimoto>  (839) 
0.245

>  <ROCS_ColorTanimoto>  (839) 
0.398

$$$$
Z45462933
     RDKit          3D

 18 19  0  0  0  0  0  0  0  0999 V2000
   34.3434    8.9355    5.2206 C   0  0  0  0  0  0  0  0  0  0  0  0
   33.2541    9.5272    6.0512 C   0  0  0  0  0  0  0  0  0  0  0  0
   32.3462    8.7872    6.8076 C   0  0  0  0  0  0  0  0  0  0  0  0
   31.3524    9.3583    7.5460 C   0  0  0  0  0  0  0  0  0  0  0  0
   31.2412   10.7185    7.5551 C   0  0  0  0  0  0  0  0  0  0  0  0
   30.1522   11.3455    8.3421 C   0  0  0  0  0  0  0  0  0  0  0  0
   32.1396   11.4495    6.8342 C   0  0  0  0  0  0  0  0  0  0  0  0
   32.0586   13.1782    6.8451 S   0  0  0  0  0  6  0  0  0  0  0  0
   32.9880   13.6379    5.8350 O   0  0  0  0  0  0  0  0  0  0  0  0
   30.6575   13.5078    6.8931 O   0  0  0  0  0  0  0  0  0  0  0  0
   32.7169   13.4617    8.3496 N   0  0  0  0  0  0  0  0  0  0  0  0
   32.0655   14.3863    9.3307 C   0  0  0  0  0  0  0  0  0  0  0  0
   32.9955   15.4629    9.8788 C   0  0  0  0  0  0  0  0  0  0  0  0
   34.3086   15.4890    9.2904 N   0  0  0  0  0  0  0  0  0  0  0  0
   35.0240   14.4092    8.9888 C   0  0  0  0  0  0  0  0  0  0  0  0
   36.2402   14.2942    9.1940 O   0  0  0  0  0  0  0  0  0  0  0  0
   34.1988   13.3252    8.4070 C   0  0  0  0  0  0  0  0  0  0  0  0
   33.1406   10.8821    6.0798 C   0  0  0  0  0  0  0  0  0  0  0  0
  1  2  1  0
  2  3  2  0
  3  4  1  0
  4  5  2  0
  5  6  1  0
  5  7  1  0
  7  8  1  0
  8  9  2  0
  8 10  2  0
  8 11  1  0
 11 12  1  0
 12 13  1  0
 13 14  1  0
 14 15  1  0
 15 16  2  0
 15 17  1  0
  7 18  2  0
 18  2  1  0
 17 11  1  0
A    1
 C1 
A    2
 C2 
A    3
 C3 
A    4
 C4 
A    5
 C5 
A    6
 C6 
A    7
 C7 
A    8
 S1 
A    9
 O1 
A   10
 O2 
A   11
 N1 
A   12
 C8 
A   13
 C9 
A   14
 N2 
A   15
 C10
A   16
 O3 
A   17
 C11
A   18
 C12
M  END
>  <ref_pdb>  (840) 
Ax0310a

>  <ref_mols>  (840) 
Ax0446a,Ax1080a,Ax0812a,Ax0719a,Ax1140a,Ax0528a,Ax0310a

>  <original SMILES>  (840) 
Cc1ccc(C)c(S(=O)(=O)N2CCNC(=O)C2)c1

>  <rationale>  (840) 
info info set:3d;hbond:S87+G127+E85; 

>  <experiment>  (840) 
3d

>  <cluster_label>  (840) 
3

>  <cluster_rank>  (840) 
497

>  <N_interactions>  (840) 
4

>  <∆∆G>  (840) 
-4.147007

>  <comRMSD>  (840) 
0.739366

>  <ROCS_TanimotoCombo>  (840) 
0.313

>  <ROCS_ShapeTanimoto>  (840) 
0.202

>  <ROCS_ColorTanimoto>  (840) 
0.111

$$$$
Z2900814193
     RDKit          3D

 17 18  0  0  0  0  0  0  0  0999 V2000
   28.6946   15.6901    7.3324 C   0  0  0  0  0  0  0  0  0  0  0  0
   29.4866   15.5783    8.4442 O   0  0  0  0  0  0  0  0  0  0  0  0
   28.7918   14.8975    9.3020 C   0  0  0  0  0  0  0  0  0  0  0  0
   28.6780   13.5080    8.7606 C   0  0  0  0  0  0  0  0  0  0  0  0
   28.0596   13.6788   10.1976 C   0  0  0  0  0  0  0  0  0  0  0  0
   27.6703   13.4053    7.6075 C   0  0  0  0  0  0  0  0  0  0  0  0
   30.1309   13.0180    8.5034 C   0  0  0  0  0  0  0  0  0  0  0  0
   30.2058   11.5800    8.3100 N   0  0  0  0  0  0  0  0  0  0  0  0
   31.1868   10.9578    7.5328 C   0  0  0  0  0  0  0  0  0  0  0  0
   31.3171    9.5771    7.6356 C   0  0  0  0  0  0  0  0  0  0  0  0
   32.1903    8.7756    6.9890 N   0  0  0  0  0  0  0  0  0  0  0  0
   32.9975    9.4676    6.1569 C   0  0  0  0  0  0  0  0  0  0  0  0
   33.9843    8.8947    5.3670 N   0  0  0  0  0  0  0  0  0  0  0  0
   34.6613    9.8375    4.6187 C   0  0  0  0  0  0  0  0  0  0  0  0
   34.0878   11.0520    4.9370 C   0  0  0  0  0  0  0  0  0  0  0  0
   32.9921   10.8347    5.9461 C   0  0  0  0  0  0  0  0  0  0  0  0
   32.0588   11.6108    6.6541 C   0  0  0  0  0  0  0  0  0  0  0  0
  1  2  1  0
  2  3  1  0
  3  4  1  0
  4  5  1  0
  4  6  1  0
  4  7  1  0
  7  8  1  0
  8  9  1  0
  9 10  2  0
 10 11  1  0
 11 12  2  0
 12 13  1  0
 13 14  1  0
 14 15  2  0
 15 16  1  0
 16 17  2  0
 17  9  1  0
 16 12  1  0
A    1
 C1 
A    2
 O1 
A    3
 C2 
A    4
 C3 
A    5
 C4 
A    6
 C5 
A    7
 C6 
A    8
 N1 
A    9
 C7 
A   10
 C8 
A   11
 N2 
A   12
 C9 
A   13
 N3 
A   14
 C10
A   15
 C11
A   16
 C12
A   17
 C13
M  END
>  <ref_pdb>  (841) 
Ax0310a

>  <ref_mols>  (841) 
Ax0446a,Ax1080a,Ax0812a,Ax0719a,Ax1140a,Ax0528a,Ax0310a

>  <original SMILES>  (841) 
COCC(C)(C)CNc1cnc2[nH]ccc2c1

>  <rationale>  (841) 
info info set:screening_pocket;hbond:S87+S125; 

>  <experiment>  (841) 
screening_pocket

>  <cluster_label>  (841) 
3

>  <cluster_rank>  (841) 
498

>  <N_interactions>  (841) 
2

>  <∆∆G>  (841) 
-6.831872

>  <comRMSD>  (841) 
0.679867

>  <ROCS_TanimotoCombo>  (841) 
0.7

>  <ROCS_ShapeTanimoto>  (841) 
0.251

>  <ROCS_ColorTanimoto>  (841) 
0.45

$$$$
Z1901462541
     RDKit          3D

 23 26  0  0  0  0  0  0  0  0999 V2000
   32.0721   13.0455    6.7387 C   0  0  0  0  0  0  0  0  0  0  0  0
   32.3281   11.5816    6.5556 C   0  0  0  0  0  0  0  0  0  0  0  0
   31.4808   10.6341    7.3158 C   0  0  0  0  0  0  0  0  0  0  0  0
   30.3688   10.9882    8.2350 C   0  0  0  0  0  0  0  0  0  0  0  0
   30.2152   10.1647    9.1163 O   0  0  0  0  0  0  0  0  0  0  0  0
   29.5961   12.1390    8.0012 N   0  0  0  0  0  0  0  0  0  0  0  0
   28.6219   12.2516    6.9431 C   0  0  0  0  0  0  0  0  0  0  0  0
   27.8933   13.5964    7.1326 C   0  0  0  0  0  0  0  0  0  0  0  0
   28.9529   14.6020    7.2405 C   0  0  1  0  0  0  0  0  0  0  0  0
   28.4696   15.9153    7.3208 O   0  0  0  0  0  0  0  0  0  0  0  0
   28.5525   16.3308    8.6747 C   0  0  0  0  0  0  0  0  0  0  0  0
   29.5800   15.3925    9.3201 C   0  0  0  0  0  0  0  0  0  0  0  0
   29.8871   14.3883    8.4358 C   0  0  1  0  0  0  0  0  0  0  0  0
   29.7000   13.1945    8.9579 C   0  0  0  0  0  0  0  0  0  0  0  0
   31.7148    9.3101    7.1766 C   0  0  0  0  0  0  0  0  0  0  0  0
   30.9891    8.3733    7.8577 O   0  0  0  0  0  0  0  0  0  0  0  0
   32.6569    8.8296    6.3707 N   0  0  0  0  0  0  0  0  0  0  0  0
   33.4212    9.6710    5.6573 C   0  0  0  0  0  0  0  0  0  0  0  0
   34.3860    9.1220    4.8087 C   0  0  0  0  0  0  0  0  0  0  0  0
   35.2125    9.9366    4.0431 C   0  0  0  0  0  0  0  0  0  0  0  0
   35.0929   11.3173    4.1135 C   0  0  0  0  0  0  0  0  0  0  0  0
   34.1417   11.8831    4.9465 C   0  0  0  0  0  0  0  0  0  0  0  0
   33.3140   11.0635    5.7069 C   0  0  0  0  0  0  0  0  0  0  0  0
  1  2  1  0
  2  3  2  0
  3  4  1  0
  4  5  2  0
  4  6  1  0
  6  7  1  0
  7  8  1  0
  9  8  1  1
  9 10  1  0
 10 11  1  0
 11 12  1  0
 13 12  1  1
 13 14  1  0
  3 15  1  0
 15 16  1  0
 15 17  2  0
 17 18  1  0
 18 19  2  0
 19 20  1  0
 20 21  2  0
 21 22  1  0
 22 23  2  0
 23  2  1  0
 14  6  1  0
 23 18  1  0
 13  9  1  0
A    1
 C1 
A    2
 C2 
A    3
 C3 
A    4
 C4 
A    5
 O1 
A    6
 N1 
A    7
 C5 
A    8
 C6 
A    9
 C7 
A   10
 O2 
A   11
 C8 
A   12
 C9 
A   13
 C10
A   14
 C11
A   15
 C12
A   16
 O3 
A   17
 N2 
A   18
 C13
A   19
 C14
A   20
 C15
A   21
 C16
A   22
 C17
A   23
 C18
M  END
>  <ref_pdb>  (842) 
Ax0310a

>  <ref_mols>  (842) 
Ax0446a,Ax1080a,Ax0812a,Ax0719a,Ax1140a,Ax0528a,Ax0310a

>  <original SMILES>  (842) 
Cc1c(C(=O)N2CC[C@H]3OCC[C@H]3C2)c(O)nc2ccccc12

>  <rationale>  (842) 
info info set:screening_pocket;hbond:S105+Y90; hydroph_interaction:Y90; 

>  <experiment>  (842) 
screening_pocket

>  <cluster_label>  (842) 
3

>  <cluster_rank>  (842) 
499

>  <N_interactions>  (842) 
3

>  <∆∆G>  (842) 
-2.308165

>  <comRMSD>  (842) 
0.53188

>  <ROCS_TanimotoCombo>  (842) 
0.643

>  <ROCS_ShapeTanimoto>  (842) 
0.306

>  <ROCS_ColorTanimoto>  (842) 
0.338

$$$$
Z1262618056
     RDKit          3D

 14 14  0  0  0  0  0  0  0  0999 V2000
   35.7458   10.7120    3.9828 C   0  0  0  0  0  0  0  0  0  0  0  0
   35.0588    9.3737    3.7714 C   0  0  0  0  0  0  0  0  0  0  0  0
   34.6235    8.8965    5.0588 N   0  0  0  0  0  0  0  0  0  0  0  0
   33.6161    9.6357    5.6439 C   0  0  0  0  0  0  0  0  0  0  0  0
   33.5355   10.9467    5.4914 N   0  0  0  0  0  0  0  0  0  0  0  0
   32.5175   11.5069    6.1179 C   0  0  0  0  0  0  0  0  0  0  0  0
   31.6296   10.8732    6.8379 N   0  0  0  0  0  0  0  0  0  0  0  0
   31.8211    9.5798    6.9029 C   0  0  0  0  0  0  0  0  0  0  0  0
   30.9678    8.8212    7.5852 N   0  0  0  0  0  0  0  0  0  0  0  0
   30.0369    9.4505    8.4239 C   0  0  0  0  0  0  0  0  0  0  0  0
   30.0902    8.7535    9.6381 C   0  0  0  0  0  0  0  0  0  0  0  0
   29.8592   10.9605    8.3683 C   0  0  0  0  0  0  0  0  0  0  0  0
   28.6840    8.9387    8.2937 C   0  0  0  0  0  0  0  0  0  0  0  0
   32.7834    8.9229    6.3395 N   0  0  0  0  0  0  0  0  0  0  0  0
  1  2  1  0
  2  3  1  0
  3  4  1  0
  4  5  2  0
  5  6  1  0
  6  7  2  0
  7  8  1  0
  8  9  1  0
  9 10  1  0
 10 11  1  0
 10 12  1  0
 10 13  1  0
  8 14  2  0
 14  4  1  0
A    1
 C1 
A    2
 C2 
A    3
 N1 
A    4
 C3 
A    5
 N2 
A    6
 C4 
A    7
 N3 
A    8
 C5 
A    9
 N4 
A   10
 C6 
A   11
 C7 
A   12
 C8 
A   13
 C9 
A   14
 N5 
M  END
>  <ref_pdb>  (843) 
Ax0310a

>  <ref_mols>  (843) 
Ax0446a,Ax1080a,Ax0812a,Ax0719a,Ax1140a,Ax0528a,Ax0310a

>  <original SMILES>  (843) 
CCNc1ncnc(NC(C)(C)C)n1

>  <rationale>  (843) 
info info set:screening_pocket;hbond:S105+G127; hydroph_interaction:V124; 

>  <experiment>  (843) 
screening_pocket

>  <cluster_label>  (843) 
3

>  <cluster_rank>  (843) 
500

>  <N_interactions>  (843) 
4

>  <∆∆G>  (843) 
-3.116415

>  <comRMSD>  (843) 
0.901545

>  <ROCS_TanimotoCombo>  (843) 
0.64

>  <ROCS_ShapeTanimoto>  (843) 
0.221

>  <ROCS_ColorTanimoto>  (843) 
0.418

$$$$
Z1251360027
     RDKit          3D

 14 15  0  0  0  0  0  0  0  0999 V2000
   33.9212   13.2150    9.0802 O   0  0  0  0  0  0  0  0  0  0  0  0
   33.0297   13.7042    8.4166 C   0  0  0  0  0  0  0  0  0  0  0  0
   32.0017   14.4241    8.9464 O   0  0  0  0  0  0  0  0  0  0  0  0
   33.0115   13.4955    6.9289 C   0  0  0  0  0  0  0  0  0  0  0  0
   31.8213   12.8077    6.3443 C   0  0  0  0  0  0  0  0  0  0  0  0
   31.8016   11.4724    6.6754 C   0  0  0  0  0  0  0  0  0  0  0  0
   32.7013   10.6026    6.0757 C   0  0  0  0  0  0  0  0  0  0  0  0
   32.6887    9.2712    6.4233 C   0  0  0  0  0  0  0  0  0  0  0  0
   31.7786    8.8155    7.3694 C   0  0  0  0  0  0  0  0  0  0  0  0
   30.8825    9.6726    7.9675 C   0  0  0  0  0  0  0  0  0  0  0  0
   30.8901   11.0061    7.6195 C   0  0  0  0  0  0  0  0  0  0  0  0
   29.9798   11.8046    8.2383 F   0  0  0  0  0  0  0  0  0  0  0  0
   34.3443   13.0649    6.3039 C   0  0  0  0  0  0  0  0  0  0  0  0
   33.8069   14.4397    6.0076 C   0  0  0  0  0  0  0  0  0  0  0  0
  1  2  2  0
  2  3  1  0
  2  4  1  0
  4  5  1  0
  5  6  1  0
  6  7  2  0
  7  8  1  0
  8  9  2  0
  9 10  1  0
 10 11  2  0
 11 12  1  0
  4 13  1  0
 13 14  1  0
 14  4  1  0
 11  6  1  0
A    1
 O1 
A    2
 C1 
A    3
 O2 
A    4
 C2 
A    5
 C3 
A    6
 C4 
A    7
 C5 
A    8
 C6 
A    9
 C7 
A   10
 C8 
A   11
 C9 
A   12
 F1 
A   13
 C10
A   14
 C11
M  END
>  <ref_pdb>  (844) 
Ax0310a

>  <ref_mols>  (844) 
Ax0446a,Ax1080a,Ax0812a,Ax0719a,Ax1140a,Ax0528a,Ax0310a

>  <original SMILES>  (844) 
O=C(O)C1(Cc2ccccc2F)CC1

>  <rationale>  (844) 
info info set:3d;hbond:S87+G127; hydroph_interaction:P107; 

>  <experiment>  (844) 
3d

>  <cluster_label>  (844) 
3

>  <cluster_rank>  (844) 
501

>  <N_interactions>  (844) 
4

>  <∆∆G>  (844) 
-3.812128

>  <comRMSD>  (844) 
0.534553

>  <ROCS_TanimotoCombo>  (844) 
0.309

>  <ROCS_ShapeTanimoto>  (844) 
0.193

>  <ROCS_ColorTanimoto>  (844) 
0.116

$$$$
Z424694312
     RDKit          3D

 18 19  0  0  0  0  0  0  0  0999 V2000
   32.2529   14.2183    9.2059 C   0  0  0  0  0  0  0  0  0  0  0  0
   30.8204   13.8607    9.5339 C   0  0  0  0  0  0  0  0  0  0  0  0
   29.8192   14.6414    8.9010 N   0  0  0  0  0  0  0  0  0  0  0  0
   29.7334   15.9108    9.0492 C   0  0  0  0  0  0  0  0  0  0  0  0
   28.7247   16.3402    8.3449 N   0  0  0  0  0  0  0  0  0  0  0  0
   28.1535   15.2219    7.7237 N   0  0  0  0  0  0  0  0  0  0  0  0
   28.8689   14.2126    8.1063 C   0  0  0  0  0  0  0  0  0  0  0  0
   28.7425   12.7348    7.7566 C   0  0  0  0  0  0  0  0  0  0  0  0
   30.0392   12.3953    7.2871 N   0  0  0  0  0  0  0  0  0  0  0  0
   30.6038   11.2654    7.8114 C   0  0  0  0  0  0  0  0  0  0  0  0
   30.2493   10.7353    8.8296 O   0  0  0  0  0  0  0  0  0  0  0  0
   31.6782   10.6526    7.0523 C   0  0  0  0  0  0  0  0  0  0  0  0
   32.4672   11.6743    6.2391 C   0  0  0  0  0  0  0  0  0  0  0  0
   33.5625   10.9454    5.4691 C   0  0  0  0  0  0  0  0  0  0  0  0
   33.6735    9.4493    5.6293 C   0  0  0  0  0  0  0  0  0  0  0  0
   32.8824    8.7027    6.4048 N   0  0  0  0  0  0  0  0  0  0  0  0
   31.9213    9.3173    7.0855 C   0  0  0  0  0  0  0  0  0  0  0  0
   31.1897    8.4670    7.8322 O   0  0  0  0  0  0  0  0  0  0  0  0
  1  2  1  0
  2  3  1  0
  3  4  1  0
  4  5  2  0
  5  6  1  0
  6  7  2  0
  7  8  1  0
  8  9  1  0
  9 10  1  0
 10 11  2  0
 10 12  1  0
 12 13  2  0
 13 14  1  0
 14 15  2  0
 15 16  1  0
 16 17  2  0
 17 18  1  0
  7  3  1  0
 17 12  1  0
A    1
 C1 
A    2
 C2 
A    3
 N1 
A    4
 C3 
A    5
 N2 
A    6
 N3 
A    7
 C4 
A    8
 C5 
A    9
 N4 
A   10
 C6 
A   11
 O1 
A   12
 C7 
A   13
 C8 
A   14
 C9 
A   15
 C10
A   16
 N5 
A   17
 C11
A   18
 O2 
M  END
>  <ref_pdb>  (845) 
Ax0310a

>  <ref_mols>  (845) 
Ax0446a,Ax1080a,Ax0812a,Ax0719a,Ax1140a,Ax0528a,Ax0310a

>  <original SMILES>  (845) 
CCn1cnnc1CNC(=O)c1cccnc1O

>  <rationale>  (845) 
info info set:screening_pocket;hbond:S87+Y90; hydroph_interaction:P107+V84; 

>  <experiment>  (845) 
screening_pocket

>  <cluster_label>  (845) 
3

>  <cluster_rank>  (845) 
502

>  <N_interactions>  (845) 
5

>  <∆∆G>  (845) 
-0.191602

>  <comRMSD>  (845) 
0.673663

>  <ROCS_TanimotoCombo>  (845) 
0.656

>  <ROCS_ShapeTanimoto>  (845) 
0.238

>  <ROCS_ColorTanimoto>  (845) 
0.418

$$$$
EN300_120195
     RDKit          3D

 14 15  0  0  0  0  0  0  0  0999 V2000
   34.9143   13.7708    8.3831 N   0  0  0  0  0  0  0  0  0  0  0  0
   33.9813   13.5890    7.0027 S   0  0  0  0  0  6  0  0  0  0  0  0
   34.5794   12.5331    6.2464 O   0  0  0  0  0  0  0  0  0  0  0  0
   33.9268   14.8765    6.3991 O   0  0  0  0  0  0  0  0  0  0  0  0
   32.4308   13.0003    7.6009 C   0  0  0  0  0  0  0  0  0  0  0  0
   31.4226   13.8424    8.3869 C   0  0  0  0  0  0  0  0  0  0  0  0
   30.1620   13.1184    8.7342 C   0  0  0  0  0  0  0  0  0  0  0  0
   30.0230   11.8169    8.3764 C   0  0  0  0  0  0  0  0  0  0  0  0
   30.9789   11.1148    7.7118 C   0  0  0  0  0  0  0  0  0  0  0  0
   32.1578   11.6787    7.3180 C   0  0  0  0  0  0  0  0  0  0  0  0
   33.0983   10.9662    6.6495 O   0  0  0  0  0  0  0  0  0  0  0  0
   32.7280    9.6120    6.3846 C   0  0  0  0  0  0  0  0  0  0  0  0
   31.8067    9.0155    7.4115 C   0  0  0  0  0  0  0  0  0  0  0  0
   30.6608    9.8226    7.4814 O   0  0  0  0  0  0  0  0  0  0  0  0
  1  2  1  0
  2  3  2  0
  2  4  2  0
  2  5  1  0
  5  6  2  0
  6  7  1  0
  7  8  2  0
  8  9  1  0
  9 10  2  0
 10 11  1  0
 11 12  1  0
 12 13  1  0
 13 14  1  0
 10  5  1  0
 14  9  1  0
A    1
 N1 
A    2
 S1 
A    3
 O1 
A    4
 O2 
A    5
 C1 
A    6
 C2 
A    7
 C3 
A    8
 C4 
A    9
 C5 
A   10
 C6 
A   11
 O3 
A   12
 C7 
A   13
 C8 
A   14
 O4 
M  END
>  <ref_pdb>  (846) 
Ax0310a

>  <ref_mols>  (846) 
Ax0446a,Ax1080a,Ax0812a,Ax0719a,Ax1140a,Ax0528a,Ax0310a

>  <original SMILES>  (846) 
NS(=O)(=O)c1cccc2c1OCCO2

>  <rationale>  (846) 
info info set:sulfonimide_whole;hbond:G127+E85; 

>  <experiment>  (846) 
sulfonimide_whole

>  <cluster_label>  (846) 
3

>  <cluster_rank>  (846) 
503

>  <N_interactions>  (846) 
2

>  <∆∆G>  (846) 
-0.822468

>  <comRMSD>  (846) 
0.702487

>  <ROCS_TanimotoCombo>  (846) 
0.334

>  <ROCS_ShapeTanimoto>  (846) 
0.183

>  <ROCS_ColorTanimoto>  (846) 
0.151

$$$$
EN300_228751
     RDKit          3D

 25 27  0  0  0  0  0  0  0  0999 V2000
   28.9120   16.7626    8.3597 C   0  0  0  0  0  0  0  0  0  0  0  0
   28.5786   15.3217    8.5164 C   0  0  0  0  0  0  0  0  0  0  0  0
   29.7385   14.4861    8.4805 N   0  0  0  0  0  0  0  0  0  0  0  0
   30.8846   14.7361    9.2003 N   0  0  0  0  0  0  0  0  0  0  0  0
   31.6754   13.6943    8.8827 C   0  0  0  0  0  0  0  0  0  0  0  0
   30.9928   12.8845    8.0108 C   0  0  0  0  0  0  0  0  0  0  0  0
   31.6137   11.6148    7.5248 C   0  0  0  0  0  0  0  0  0  0  0  0
   30.8616   10.5529    8.1664 C   0  0  0  0  0  0  0  0  0  0  0  0
   31.2150    9.1498    7.9067 C   0  0  0  0  0  0  0  0  0  0  0  0
   30.4119    8.3751    8.6979 C   0  0  0  0  0  0  0  0  0  0  0  0
   29.3653    7.6811    8.2789 F   0  0  0  0  0  0  0  0  0  0  0  0
   29.8400    9.1657    9.5878 F   0  0  0  0  0  0  0  0  0  0  0  0
   31.1224    7.6178    9.5253 F   0  0  0  0  0  0  0  0  0  0  0  0
   32.2015    8.7844    7.0514 N   0  0  0  0  0  0  0  0  0  0  0  0
   32.9357    9.8813    6.4336 C   0  0  0  0  0  0  0  0  0  0  0  0
   34.2046    9.5114    5.3699 S   0  0  0  0  0  0  0  0  0  0  0  0
   34.5889   11.1684    5.1491 C   0  0  0  0  0  0  0  0  0  0  0  0
   35.7105   11.5881    4.3182 C   0  0  0  0  0  0  0  0  0  0  0  0
   35.5089   11.7145    2.9754 N   0  0  0  0  0  0  0  0  0  0  0  0
   36.8354   11.8411    4.7593 O   0  0  0  0  0  0  0  0  0  0  0  0
   33.7242   11.9871    5.8484 C   0  0  0  0  0  0  0  0  0  0  0  0
   33.8468   13.3374    5.7982 N   0  0  0  0  0  0  0  0  0  0  0  0
   32.7664   11.2774    6.5939 C   0  0  0  0  0  0  0  0  0  0  0  0
   29.7803   13.3779    7.7392 C   0  0  0  0  0  0  0  0  0  0  0  0
   28.6677   12.9097    6.8858 C   0  0  0  0  0  0  0  0  0  0  0  0
  1  2  1  0
  2  3  1  0
  3  4  1  0
  4  5  2  0
  5  6  1  0
  6  7  1  0
  7  8  2  0
  8  9  1  0
  9 10  1  0
 10 11  1  0
 10 12  1  0
 10 13  1  0
  9 14  2  0
 14 15  1  0
 15 16  1  0
 16 17  1  0
 17 18  1  0
 18 19  1  0
 18 20  2  0
 17 21  2  0
 21 22  1  0
 21 23  1  0
  6 24  2  0
 24 25  1  0
 24  3  1  0
 23  7  1  0
 23 15  2  0
A    1
 C1 
A    2
 C2 
A    3
 N1 
A    4
 N2 
A    5
 C3 
A    6
 C4 
A    7
 C5 
A    8
 C6 
A    9
 C7 
A   10
 C8 
A   11
 F1 
A   12
 F2 
A   13
 F3 
A   14
 N3 
A   15
 C9 
A   16
 S1 
A   17
 C10
A   18
 C11
A   19
 N4 
A   20
 O1 
A   21
 C12
A   22
 N5 
A   23
 C13
A   24
 C14
A   25
 C15
M  END
>  <ref_pdb>  (847) 
Ax0310a

>  <ref_mols>  (847) 
Ax0446a,Ax1080a,Ax0812a,Ax0719a,Ax1140a,Ax0528a,Ax0310a

>  <original SMILES>  (847) 
CCn1ncc(-c2cc(C(F)(F)F)nc3sc(C(N)=O)c(N)c23)c1C

>  <rationale>  (847) 
info info set:bb_whole;hbond:S87; hydroph_interaction:P107+Y89+Y90; 

>  <experiment>  (847) 
bb_whole

>  <cluster_label>  (847) 
3

>  <cluster_rank>  (847) 
504

>  <N_interactions>  (847) 
5

>  <∆∆G>  (847) 
-2.970389

>  <comRMSD>  (847) 
0.747842

>  <ROCS_TanimotoCombo>  (847) 
0.421

>  <ROCS_ShapeTanimoto>  (847) 
0.261

>  <ROCS_ColorTanimoto>  (847) 
0.16

$$$$
EN300_1760639
     RDKit          3D

 14 15  0  0  0  0  0  0  0  0999 V2000
   28.9037   16.1701    7.4520 O   0  0  0  0  0  0  0  0  0  0  0  0
   29.0294   15.5274    8.4635 C   0  0  0  0  0  0  0  0  0  0  0  0
   28.3034   14.3133    8.8761 C   0  0  0  0  0  0  0  0  0  0  0  0
   29.2401   13.1705    8.8181 C   0  0  0  0  0  0  0  0  0  0  0  0
   29.8324   12.8069    7.4956 C   0  0  0  0  0  0  0  0  0  0  0  0
   30.7236   11.5044    7.3174 C   0  0  0  0  0  0  0  0  0  0  0  0
   30.2910   10.4154    8.2900 C   0  0  0  0  0  0  0  0  0  0  0  0
   31.0911    9.2466    8.0492 N   0  0  0  0  0  0  0  0  0  0  0  0
   31.9607    9.6279    7.0232 C   0  0  0  0  0  0  0  0  0  0  0  0
   32.8587    8.7761    6.5454 N   0  0  0  0  0  0  0  0  0  0  0  0
   33.6719    9.2352    5.5777 C   0  0  0  0  0  0  0  0  0  0  0  0
   33.6562   10.6280    4.9776 C   0  0  0  0  0  0  0  0  0  0  0  0
   32.5795   11.4988    5.5912 C   0  0  0  0  0  0  0  0  0  0  0  0
   31.7682   10.9828    6.5864 C   0  0  0  0  0  0  0  0  0  0  0  0
  1  2  2  0
  2  3  1  0
  3  4  1  0
  4  5  1  0
  5  6  1  0
  6  7  2  0
  7  8  1  0
  8  9  1  0
  9 10  2  0
 10 11  1  0
 11 12  2  0
 12 13  1  0
 13 14  2  0
 14  6  1  0
 14  9  1  0
A    1
 O1 
A    2
 C1 
A    3
 C2 
A    4
 C3 
A    5
 C4 
A    6
 C5 
A    7
 C6 
A    8
 N1 
A    9
 C7 
A   10
 N2 
A   11
 C8 
A   12
 C9 
A   13
 C10
A   14
 C11
M  END
>  <ref_pdb>  (848) 
Ax0310a

>  <ref_mols>  (848) 
Ax0446a,Ax1080a,Ax0812a,Ax0719a,Ax1140a,Ax0528a,Ax0310a

>  <original SMILES>  (848) 
O=CCCCc1c[nH]c2ncccc12

>  <rationale>  (848) 
info info set:bb_densepocket2;hbond:Y90; hydroph_interaction:P107; 

>  <experiment>  (848) 
bb_densepocket2

>  <cluster_label>  (848) 
3

>  <cluster_rank>  (848) 
505

>  <N_interactions>  (848) 
2

>  <∆∆G>  (848) 
-1.427274

>  <comRMSD>  (848) 
0.732745

>  <ROCS_TanimotoCombo>  (848) 
0.648

>  <ROCS_ShapeTanimoto>  (848) 
0.234

>  <ROCS_ColorTanimoto>  (848) 
0.415

$$$$
EN300_170020
     RDKit          3D

 16 16  0  0  0  0  0  0  0  0999 V2000
   34.3224   10.7432    2.8991 C   0  0  0  0  0  0  0  0  0  0  0  0
   33.5034   11.2928    3.9232 O   0  0  0  0  0  0  0  0  0  0  0  0
   33.8225   10.8400    5.1685 C   0  0  0  0  0  0  0  0  0  0  0  0
   34.9237   10.3942    5.4231 O   0  0  0  0  0  0  0  0  0  0  0  0
   32.7185   10.8966    6.2257 C   0  0  0  0  0  0  0  0  0  0  0  0
   32.3507    9.5831    6.8314 C   0  0  0  0  0  0  0  0  0  0  0  0
   32.9908    8.5175    6.4376 F   0  0  0  0  0  0  0  0  0  0  0  0
   31.2663    9.4326    7.8865 C   0  0  0  0  0  0  0  0  0  0  0  0
   30.6269   10.6800    8.2455 C   0  0  0  0  0  0  0  0  0  0  0  0
   31.0810   11.9690    7.5678 C   0  0  0  0  0  0  0  0  0  0  0  0
   30.3293   13.4917    7.9679 S   0  0  0  0  0  6  0  0  0  0  0  0
   28.9897   13.2244    8.9320 N   0  0  0  0  0  0  0  0  0  0  0  0
   29.6917   13.9421    6.7552 O   0  0  0  0  0  0  0  0  0  0  0  0
   31.2496   14.2596    8.7796 O   0  0  0  0  0  0  0  0  0  0  0  0
   32.0767   12.0516    6.6121 C   0  0  0  0  0  0  0  0  0  0  0  0
   32.4182   13.2217    6.0603 F   0  0  0  0  0  0  0  0  0  0  0  0
  1  2  1  0
  2  3  1  0
  3  4  2  0
  3  5  1  0
  5  6  2  0
  6  7  1  0
  6  8  1  0
  8  9  2  0
  9 10  1  0
 10 11  1  0
 11 12  1  0
 11 13  2  0
 11 14  2  0
 10 15  2  0
 15 16  1  0
 15  5  1  0
A    1
 C1 
A    2
 O1 
A    3
 C2 
A    4
 O2 
A    5
 C3 
A    6
 C4 
A    7
 F1 
A    8
 C5 
A    9
 C6 
A   10
 C7 
A   11
 S1 
A   12
 N1 
A   13
 O3 
A   14
 O4 
A   15
 C8 
A   16
 F2 
M  END
>  <ref_pdb>  (849) 
Ax0310a

>  <ref_mols>  (849) 
Ax0446a,Ax1080a,Ax0812a,Ax0719a,Ax1140a,Ax0528a,Ax0310a

>  <original SMILES>  (849) 
COC(=O)c1c(F)ccc(S(N)(=O)=O)c1F

>  <rationale>  (849) 
info info set:sulfonimide_whole;halogenbond:S105; hbond:S87+S125; 

>  <experiment>  (849) 
sulfonimide_whole

>  <cluster_label>  (849) 
3

>  <cluster_rank>  (849) 
506

>  <N_interactions>  (849) 
3

>  <∆∆G>  (849) 
-4.448399

>  <comRMSD>  (849) 
0.492515

>  <ROCS_TanimotoCombo>  (849) 
0.344

>  <ROCS_ShapeTanimoto>  (849) 
0.202

>  <ROCS_ColorTanimoto>  (849) 
0.142

$$$$
EN300_801322
     RDKit          3D

 16 17  0  0  0  0  0  0  0  0999 V2000
   30.6570    7.6042    8.4172 C   0  0  0  0  0  0  0  0  0  0  0  0
   30.2144    8.8974    8.3046 C   0  0  0  0  0  0  0  0  0  0  0  0
   30.2072    9.3590    9.5704 C   0  0  0  0  0  0  0  0  0  0  0  0
   28.7595    8.9210    8.2540 C   0  0  0  0  0  0  0  0  0  0  0  0
   31.1762    9.7710    7.5166 C   0  0  0  0  0  0  0  0  0  0  0  0
   32.1234    9.1014    6.7927 N   0  0  0  0  0  0  0  0  0  0  0  0
   33.0360    9.8061    6.0392 C   0  0  0  0  0  0  0  0  0  0  0  0
   34.0803    9.1332    5.2024 C   0  0  0  0  0  0  0  0  0  0  0  0
   35.0974    9.8441    4.3758 C   0  0  0  0  0  0  0  0  0  0  0  0
   35.0592   11.3451    4.3936 C   0  0  0  0  0  0  0  0  0  0  0  0
   33.9908   12.0729    5.2401 C   0  0  0  0  0  0  0  0  0  0  0  0
   34.0137   13.7948    5.1999 Cl  0  0  0  0  0  0  0  0  0  0  0  0
   33.0374   11.3211    6.0112 C   0  0  0  0  0  0  0  0  0  0  0  0
   32.0355   11.9179    6.7956 C   0  0  0  0  0  0  0  0  0  0  0  0
   31.1193   11.1679    7.5305 C   0  0  0  0  0  0  0  0  0  0  0  0
   30.1739   11.8580    8.2503 O   0  0  0  0  0  0  0  0  0  0  0  0
  1  2  1  0
  2  3  1  0
  2  4  1  0
  2  5  1  0
  5  6  2  0
  6  7  1  0
  7  8  2  0
  8  9  1  0
  9 10  2  0
 10 11  1  0
 11 12  1  0
 11 13  2  0
 13 14  1  0
 14 15  2  0
 15 16  1  0
 15  5  1  0
 13  7  1  0
A    1
 C1 
A    2
 C2 
A    3
 C3 
A    4
 C4 
A    5
 C5 
A    6
 N1 
A    7
 C6 
A    8
 C7 
A    9
 C8 
A   10
 C9 
A   11
 C10
A   12
CL1 
A   13
 C11
A   14
 C12
A   15
 C13
A   16
 O1 
M  END
>  <ref_pdb>  (850) 
Ax0310a

>  <ref_mols>  (850) 
Ax0446a,Ax1080a,Ax0812a,Ax0719a,Ax1140a,Ax0528a,Ax0310a

>  <original SMILES>  (850) 
CC(C)(C)c1nc2cccc(Cl)c2cc1O

>  <rationale>  (850) 
info info set:bb_densepocket2;hbond:S125; 

>  <experiment>  (850) 
bb_densepocket2

>  <cluster_label>  (850) 
3

>  <cluster_rank>  (850) 
507

>  <N_interactions>  (850) 
1

>  <∆∆G>  (850) 
-4.884893

>  <comRMSD>  (850) 
0.580802

>  <ROCS_TanimotoCombo>  (850) 
0.62

>  <ROCS_ShapeTanimoto>  (850) 
0.272

>  <ROCS_ColorTanimoto>  (850) 
0.347

$$$$
EN300_283850
     RDKit          3D

 13 13  0  0  0  0  0  0  0  0999 V2000
   35.0232   14.8287    8.9439 N   0  0  0  0  0  0  0  0  0  0  0  0
   33.6462   13.9437    8.6386 S   0  0  0  0  0  6  0  0  0  0  0  0
   32.4671   14.6335    9.1272 O   0  0  0  0  0  0  0  0  0  0  0  0
   34.0070   12.7144    9.2007 O   0  0  0  0  0  0  0  0  0  0  0  0
   33.7013   13.7247    6.8581 C   0  0  0  0  0  0  0  0  0  0  0  0
   32.3648   13.2549    6.3230 C   0  0  0  0  0  0  0  0  0  0  0  0
   32.1963   11.8153    6.6305 C   0  0  0  0  0  0  0  0  0  0  0  0
   32.9414   10.6785    5.9720 C   0  0  0  0  0  0  0  0  0  0  0  0
   32.7670    9.2154    6.2994 C   0  0  0  0  0  0  0  0  0  0  0  0
   31.7750    8.7997    7.3715 C   0  0  0  0  0  0  0  0  0  0  0  0
   30.9607    9.7980    8.1167 C   0  0  0  0  0  0  0  0  0  0  0  0
   30.1030    9.4360    9.0563 F   0  0  0  0  0  0  0  0  0  0  0  0
   31.2044   11.2368    7.7153 C   0  0  0  0  0  0  0  0  0  0  0  0
  1  2  1  0
  2  3  2  0
  2  4  2  0
  2  5  1  0
  5  6  1  0
  6  7  1  0
  7  8  2  0
  8  9  1  0
  9 10  2  0
 10 11  1  0
 11 12  1  0
 11 13  2  0
 13  7  1  0
A    1
 N1 
A    2
 S1 
A    3
 O1 
A    4
 O2 
A    5
 C1 
A    6
 C2 
A    7
 C3 
A    8
 C4 
A    9
 C5 
A   10
 C6 
A   11
 C7 
A   12
 F1 
A   13
 C8 
M  END
>  <ref_pdb>  (851) 
Ax0310a

>  <ref_mols>  (851) 
Ax0446a,Ax1080a,Ax0812a,Ax0719a,Ax1140a,Ax0528a,Ax0310a

>  <original SMILES>  (851) 
NS(=O)(=O)CCc1cccc(F)c1

>  <rationale>  (851) 
info info set:sulfonimide_whole;hbond:S87+G127+E85; hydroph_interaction:P107; 

>  <experiment>  (851) 
sulfonimide_whole

>  <cluster_label>  (851) 
3

>  <cluster_rank>  (851) 
508

>  <N_interactions>  (851) 
4

>  <∆∆G>  (851) 
-5.264691

>  <comRMSD>  (851) 
0.471623

>  <ROCS_TanimotoCombo>  (851) 
0.337

>  <ROCS_ShapeTanimoto>  (851) 
0.186

>  <ROCS_ColorTanimoto>  (851) 
0.151

$$$$
Z2614150600
     RDKit          3D

 21 24  0  0  0  0  0  0  0  0999 V2000
   29.6672    8.8666    7.7569 F   0  0  0  0  0  0  0  0  0  0  0  0
   30.8551    9.4363    7.8918 C   0  0  0  0  0  0  0  0  0  0  0  0
   30.8838    9.2839    9.1946 F   0  0  0  0  0  0  0  0  0  0  0  0
   31.8281    8.6280    7.2552 O   0  0  0  0  0  0  0  0  0  0  0  0
   32.5635    9.5920    6.6778 C   0  0  0  0  0  0  0  0  0  0  0  0
   33.7953    9.3211    5.9230 C   0  0  0  0  0  0  0  0  0  0  0  0
   34.4780   10.4092    5.4009 C   0  0  0  0  0  0  0  0  0  0  0  0
   33.9706   11.6734    5.6164 C   0  0  0  0  0  0  0  0  0  0  0  0
   32.7832   11.8972    6.3364 C   0  0  0  0  0  0  0  0  0  0  0  0
   32.4116   13.3145    6.4477 C   0  0  0  0  0  0  0  0  0  0  0  0
   31.5858   13.6275    7.5846 N   0  0  0  0  0  0  0  0  0  0  0  0
   32.1299   14.0022    8.8005 N   0  0  0  0  0  0  0  0  0  0  0  0
   31.1199   14.2955    9.6375 N   0  0  0  0  0  0  0  0  0  0  0  0
   29.9486   14.0997    8.9703 C   0  0  0  0  0  0  0  0  0  0  0  0
   30.2376   13.6503    7.6427 C   0  0  0  0  0  0  0  0  0  0  0  0
   29.2183   13.3822    6.7505 C   0  0  0  0  0  0  0  0  0  0  0  0
   28.1488   14.2109    7.0013 C   0  0  0  0  0  0  0  0  0  0  0  0
   27.6375   14.2160    8.4347 C   0  0  0  0  0  0  0  0  0  0  0  0
   28.6516   14.2882    9.4083 C   0  0  0  0  0  0  0  0  0  0  0  0
   32.0703   10.8314    6.8675 C   0  0  0  0  0  0  0  0  0  0  0  0
   30.8825   10.7929    7.5973 O   0  0  0  0  0  0  0  0  0  0  0  0
  1  2  1  0
  2  3  1  0
  2  4  1  0
  4  5  1  0
  5  6  2  0
  6  7  1  0
  7  8  2  0
  8  9  1  0
  9 10  1  0
 10 11  1  0
 11 12  1  0
 12 13  2  0
 13 14  1  0
 14 15  2  0
 15 16  1  0
 16 17  1  0
 17 18  1  0
 18 19  1  0
  9 20  2  0
 20 21  1  0
 21  2  1  0
 20  5  1  0
 15 11  1  0
 19 14  1  0
A    1
 F1 
A    2
 C1 
A    3
 F2 
A    4
 O1 
A    5
 C2 
A    6
 C3 
A    7
 C4 
A    8
 C5 
A    9
 C6 
A   10
 C7 
A   11
 N1 
A   12
 N2 
A   13
 N3 
A   14
 C8 
A   15
 C9 
A   16
 C10
A   17
 C11
A   18
 C12
A   19
 C13
A   20
 C14
A   21
 O2 
M  END
>  <ref_pdb>  (852) 
Ax0310a

>  <ref_mols>  (852) 
Ax0446a,Ax1080a,Ax0812a,Ax0719a,Ax1140a,Ax0528a,Ax0310a

>  <original SMILES>  (852) 
FC1(F)Oc2cccc(Cn3nnc4c3CCCC4)c2O1

>  <rationale>  (852) 
info info set:screening_whole;hbond:S87; hydroph_interaction:Y90; 

>  <experiment>  (852) 
screening_whole

>  <cluster_label>  (852) 
3

>  <cluster_rank>  (852) 
509

>  <N_interactions>  (852) 
2

>  <∆∆G>  (852) 
-0.603685

>  <comRMSD>  (852) 
0.841938

>  <ROCS_TanimotoCombo>  (852) 
0.469

>  <ROCS_ShapeTanimoto>  (852) 
0.251

>  <ROCS_ColorTanimoto>  (852) 
0.218

$$$$
Z4784462017
     RDKit          3D

 19 21  0  0  0  0  0  0  0  0999 V2000
   30.2565   10.4439    8.9929 O   0  0  0  0  0  0  0  0  0  0  0  0
   30.5263   11.1263    8.0440 C   0  0  0  0  0  0  0  0  0  0  0  0
   29.9248   12.2958    7.6517 N   0  0  0  0  0  0  0  0  0  0  0  0
   29.2399   13.0944    8.6079 C   0  0  0  0  0  0  0  0  0  0  0  0
   28.4974   14.2565    8.0383 C   0  0  0  0  0  0  0  0  0  0  0  0
   28.8869   15.5879    8.3147 C   0  0  0  0  0  0  0  0  0  0  0  0
   27.7792   15.2523    9.1454 C   0  0  0  0  0  0  0  0  0  0  0  0
   31.5749   10.6539    7.1952 C   0  0  0  0  0  0  0  0  0  0  0  0
   32.3895   11.5799    6.3823 C   0  0  0  0  0  0  0  0  0  0  0  0
   33.3358   10.9682    5.6104 C   0  0  0  0  0  0  0  0  0  0  0  0
   34.2165   11.8359    4.7363 C   0  0  0  0  0  0  0  0  0  0  0  0
   35.2640   11.1632    3.8648 C   0  0  0  0  0  0  0  0  0  0  0  0
   36.0732   11.8574    3.0649 F   0  0  0  0  0  0  0  0  0  0  0  0
   35.3329    9.6896    3.9505 C   0  0  0  0  0  0  0  0  0  0  0  0
   34.4680    9.0094    4.8009 C   0  0  0  0  0  0  0  0  0  0  0  0
   33.4949    9.5760    5.6185 C   0  0  0  0  0  0  0  0  0  0  0  0
   32.7431    8.7786    6.3814 N   0  0  0  0  0  0  0  0  0  0  0  0
   31.8029    9.3114    7.1525 C   0  0  0  0  0  0  0  0  0  0  0  0
   31.0768    8.4208    7.8979 O   0  0  0  0  0  0  0  0  0  0  0  0
  1  2  2  0
  2  3  1  0
  3  4  1  0
  4  5  1  0
  5  6  1  0
  6  7  1  0
  2  8  1  0
  8  9  2  0
  9 10  1  0
 10 11  2  0
 11 12  1  0
 12 13  1  0
 12 14  2  0
 14 15  1  0
 15 16  2  0
 16 17  1  0
 17 18  2  0
 18 19  1  0
  7  5  1  0
 18  8  1  0
 16 10  1  0
A    1
 O1 
A    2
 C1 
A    3
 N1 
A    4
 C2 
A    5
 C3 
A    6
 C4 
A    7
 C5 
A    8
 C6 
A    9
 C7 
A   10
 C8 
A   11
 C9 
A   12
 C10
A   13
 F1 
A   14
 C11
A   15
 C12
A   16
 C13
A   17
 N2 
A   18
 C14
A   19
 O2 
M  END
>  <ref_pdb>  (853) 
Ax0310a

>  <ref_mols>  (853) 
Ax0446a,Ax1080a,Ax0812a,Ax0719a,Ax1140a,Ax0528a,Ax0310a

>  <original SMILES>  (853) 
O=C(NCC1CC1)c1cc2cc(F)ccc2nc1O

>  <rationale>  (853) 
info info set:screening_pocket;hbond:S105; hydroph_interaction:Y89+Y90; 

>  <experiment>  (853) 
screening_pocket

>  <cluster_label>  (853) 
3

>  <cluster_rank>  (853) 
510

>  <N_interactions>  (853) 
3

>  <∆∆G>  (853) 
-3.873997

>  <comRMSD>  (853) 
0.579209

>  <ROCS_TanimotoCombo>  (853) 
0.643

>  <ROCS_ShapeTanimoto>  (853) 
0.285

>  <ROCS_ColorTanimoto>  (853) 
0.358

$$$$
EN300_283774
     RDKit          3D

 13 13  0  0  0  0  0  0  0  0999 V2000
   30.0176   12.6395    7.8966 C   0  0  0  0  0  0  0  0  0  0  0  0
   30.9164   11.5050    7.4856 C   0  0  0  0  0  0  0  0  0  0  0  0
   30.7222   10.0850    7.9605 C   0  0  0  0  0  0  0  0  0  0  0  0
   31.6154    8.9341    7.5324 C   0  0  0  0  0  0  0  0  0  0  0  0
   32.7203    9.3824    6.5745 C   0  0  0  0  0  0  0  0  0  0  0  0
   32.8822   10.6870    6.1704 C   0  0  0  0  0  0  0  0  0  0  0  0
   32.0978   11.7693    6.5340 C   0  0  0  0  0  0  0  0  0  0  0  0
   32.5411   13.0968    5.9048 C   0  0  0  0  0  0  0  0  0  0  0  0
   33.7357   13.6721    6.7215 C   0  0  0  0  0  0  0  0  0  0  0  0
   33.3417   13.8152    8.4737 S   0  0  0  0  0  6  0  0  0  0  0  0
   34.4290   14.9537    9.0598 N   0  0  0  0  0  0  0  0  0  0  0  0
   32.0112   14.3153    8.7426 O   0  0  0  0  0  0  0  0  0  0  0  0
   33.7864   12.6711    9.1369 O   0  0  0  0  0  0  0  0  0  0  0  0
  1  2  1  0
  2  3  2  0
  3  4  1  0
  4  5  2  0
  5  6  1  0
  6  7  2  0
  7  8  1  0
  8  9  1  0
  9 10  1  0
 10 11  1  0
 10 12  2  0
 10 13  2  0
  7  2  1  0
A    1
 C1 
A    2
 C2 
A    3
 C3 
A    4
 C4 
A    5
 C5 
A    6
 C6 
A    7
 C7 
A    8
 C8 
A    9
 C9 
A   10
 S1 
A   11
 N1 
A   12
 O1 
A   13
 O2 
M  END
>  <ref_pdb>  (854) 
Ax0310a

>  <ref_mols>  (854) 
Ax0446a,Ax1080a,Ax0812a,Ax0719a,Ax1140a,Ax0528a,Ax0310a

>  <original SMILES>  (854) 
Cc1ccccc1CCS(N)(=O)=O

>  <rationale>  (854) 
info info set:sulfonimide_whole;hbond:S87+G127+E85; 

>  <experiment>  (854) 
sulfonimide_whole

>  <cluster_label>  (854) 
3

>  <cluster_rank>  (854) 
511

>  <N_interactions>  (854) 
3

>  <∆∆G>  (854) 
-6.586345

>  <comRMSD>  (854) 
0.446115

>  <ROCS_TanimotoCombo>  (854) 
0.343

>  <ROCS_ShapeTanimoto>  (854) 
0.192

>  <ROCS_ColorTanimoto>  (854) 
0.151

$$$$
EN300_1617353
     RDKit          3D

 14 14  0  0  0  0  0  0  0  0999 V2000
   29.4021   12.1491    7.6801 C   0  0  0  0  0  0  0  0  0  0  0  0
   30.7560   11.9972    7.8889 C   0  0  0  0  0  0  0  0  0  0  0  0
   31.4392   12.9325    8.7463 O   0  0  0  0  0  0  0  0  0  0  0  0
   31.5877   10.9010    7.2149 C   0  0  0  0  0  0  0  0  0  0  0  0
   32.4259   11.1872    6.1557 C   0  0  0  0  0  0  0  0  0  0  0  0
   33.1004    9.9624    5.7054 C   0  0  0  0  0  0  0  0  0  0  0  0
   34.0776    9.7192    4.6356 C   0  0  0  0  0  0  0  0  0  0  0  0
   32.6693    8.9848    6.4726 N   0  0  0  0  0  0  0  0  0  0  0  0
   31.7844    9.5324    7.3598 N   0  0  0  0  0  0  0  0  0  0  0  0
   31.2738    8.5236    8.2385 C   0  0  0  0  0  0  0  0  0  0  0  0
   30.0404    8.6945    9.0394 C   0  0  0  0  0  0  0  0  0  0  0  0
   29.1877    9.9046    8.8636 C   0  0  0  0  0  0  0  0  0  0  0  0
   29.2287    7.6288    8.5579 C   0  0  0  0  0  0  0  0  0  0  0  0
   29.9923    7.9934   10.3333 C   0  0  0  0  0  0  0  0  0  0  0  0
  1  2  1  0
  2  3  2  0
  2  4  1  0
  4  5  2  0
  5  6  1  0
  6  7  1  0
  6  8  2  0
  8  9  1  0
  9 10  1  0
 10 11  1  0
 11 12  1  0
 11 13  1  0
 11 14  1  0
  9  4  1  0
A    1
 C1 
A    2
 C2 
A    3
 O1 
A    4
 C3 
A    5
 C4 
A    6
 C5 
A    7
 C6 
A    8
 N1 
A    9
 N2 
A   10
 C7 
A   11
 C8 
A   12
 C9 
A   13
 C10
A   14
 C11
M  END
>  <ref_pdb>  (855) 
Ax0310a

>  <ref_mols>  (855) 
Ax0446a,Ax1080a,Ax0812a,Ax0719a,Ax1140a,Ax0528a,Ax0310a

>  <original SMILES>  (855) 
CC(=O)c1cc(C)nn1CC(C)(C)C

>  <rationale>  (855) 
info info set:bb_densepocket2;hbond:G127; hydroph_interaction:P107+V124+D109; 

>  <experiment>  (855) 
bb_densepocket2

>  <cluster_label>  (855) 
3

>  <cluster_rank>  (855) 
512

>  <N_interactions>  (855) 
4

>  <∆∆G>  (855) 
-7.745368

>  <comRMSD>  (855) 
0.7676

>  <ROCS_TanimotoCombo>  (855) 
0.611

>  <ROCS_ShapeTanimoto>  (855) 
0.222

>  <ROCS_ColorTanimoto>  (855) 
0.388

$$$$
Z385450900
     RDKit          3D

 11 11  0  0  0  0  0  0  0  0999 V2000
   29.3351   13.8658    9.2954 N   0  0  0  0  0  0  0  0  0  0  0  0
   30.4280   13.3538    8.1352 S   0  0  0  0  0  6  0  0  0  0  0  0
   31.7469   13.7463    8.6163 O   0  0  0  0  0  0  0  0  0  0  0  0
   29.8915   13.8005    6.8759 O   0  0  0  0  0  0  0  0  0  0  0  0
   30.1949   11.5988    8.1137 C   0  0  0  0  0  0  0  0  0  0  0  0
   31.2448   10.8114    7.4421 C   0  0  0  0  0  0  0  0  0  0  0  0
   32.2195   11.5657    6.5531 C   0  0  0  0  0  0  0  0  0  0  0  0
   33.2014   10.6987    5.9107 C   0  0  0  0  0  0  0  0  0  0  0  0
   33.1796    9.3534    6.1388 C   0  0  0  0  0  0  0  0  0  0  0  0
   32.2269    8.6562    7.0215 N   0  0  0  0  0  0  0  0  0  0  0  0
   31.3171    9.4385    7.6150 C   0  0  0  0  0  0  0  0  0  0  0  0
  1  2  1  0
  2  3  2  0
  2  4  2  0
  2  5  1  0
  5  6  1  0
  6  7  2  0
  7  8  1  0
  8  9  2  0
  9 10  1  0
 10 11  2  0
 11  6  1  0
A    1
 N1 
A    2
 S1 
A    3
 O1 
A    4
 O2 
A    5
 C1 
A    6
 C2 
A    7
 C3 
A    8
 C4 
A    9
 C5 
A   10
 N2 
A   11
 C6 
M  END
>  <ref_pdb>  (856) 
Ax0310a

>  <ref_mols>  (856) 
Ax0446a,Ax1080a,Ax0812a,Ax0719a,Ax1140a,Ax0528a,Ax0310a

>  <original SMILES>  (856) 
NS(=O)(=O)Cc1cccnc1

>  <rationale>  (856) 
info info set:3d;hbond:S87+S125; 

>  <experiment>  (856) 
3d

>  <cluster_label>  (856) 
3

>  <cluster_rank>  (856) 
513

>  <N_interactions>  (856) 
2

>  <∆∆G>  (856) 
-5.255115

>  <comRMSD>  (856) 
0.661469

>  <ROCS_TanimotoCombo>  (856) 
0.318

>  <ROCS_ShapeTanimoto>  (856) 
0.166

>  <ROCS_ColorTanimoto>  (856) 
0.152

$$$$
Z1162778919
     RDKit          3D

 15 16  0  0  0  0  0  0  0  0999 V2000
   36.0971   13.2627   10.5014 C   0  0  0  0  0  0  0  0  0  0  0  0
   35.5798   14.1372    9.3260 C   0  0  0  0  0  0  0  0  0  0  0  0
   34.0437   14.1612    9.3042 C   0  0  0  0  0  0  0  0  0  0  0  0
   33.4302   13.2397    8.4469 N   0  0  0  0  0  0  0  0  0  0  0  0
   32.1088   13.5136    8.5839 C   0  0  0  0  0  0  0  0  0  0  0  0
   30.9487   12.8165    7.8542 C   0  0  0  0  0  0  0  0  0  0  0  0
   31.2689   11.6094    7.2523 N   0  0  0  0  0  0  0  0  0  0  0  0
   32.3031   11.6993    6.2064 C   0  0  0  0  0  0  0  0  0  0  0  0
   33.0472   10.4382    5.7813 C   0  0  0  0  0  0  0  0  0  0  0  0
   32.6429    9.1993    6.4897 C   0  0  0  0  0  0  0  0  0  0  0  0
   31.5968    9.1714    7.5846 C   0  0  0  0  0  0  0  0  0  0  0  0
   30.9420   10.5210    7.9572 C   0  0  0  0  0  0  0  0  0  0  0  0
   30.1740   10.5082    8.8746 O   0  0  0  0  0  0  0  0  0  0  0  0
   31.9597   14.6031    9.5576 N   0  0  0  0  0  0  0  0  0  0  0  0
   33.3051   14.9202    9.9402 O   0  0  0  0  0  0  0  0  0  0  0  0
  1  2  1  0
  2  3  1  0
  3  4  2  0
  4  5  1  0
  5  6  1  0
  6  7  1  0
  7  8  1  0
  8  9  2  0
  9 10  1  0
 10 11  2  0
 11 12  1  0
 12 13  2  0
  5 14  2  0
 14 15  1  0
 15  3  1  0
 12  7  1  0
A    1
 C1 
A    2
 C2 
A    3
 C3 
A    4
 N1 
A    5
 C4 
A    6
 C5 
A    7
 N2 
A    8
 C6 
A    9
 C7 
A   10
 C8 
A   11
 C9 
A   12
 C10
A   13
 O1 
A   14
 N3 
A   15
 O2 
M  END
>  <ref_pdb>  (857) 
Ax0310a

>  <ref_mols>  (857) 
Ax0446a,Ax1080a,Ax0812a,Ax0719a,Ax1140a,Ax0528a,Ax0310a

>  <original SMILES>  (857) 
CCc1nc(Cn2ccccc2=O)no1

>  <rationale>  (857) 
info info set:3d;hbond:S87+G127; hydroph_interaction:P107+V84; 

>  <experiment>  (857) 
3d

>  <cluster_label>  (857) 
3

>  <cluster_rank>  (857) 
514

>  <N_interactions>  (857) 
4

>  <∆∆G>  (857) 
-3.448119

>  <comRMSD>  (857) 
0.881027

>  <ROCS_TanimotoCombo>  (857) 
0.314

>  <ROCS_ShapeTanimoto>  (857) 
0.176

>  <ROCS_ColorTanimoto>  (857) 
0.138

$$$$
EN300_53008
     RDKit          3D

 10 10  0  0  0  0  0  0  0  0999 V2000
   31.0796    7.9325    9.5410 C   0  0  0  0  0  0  0  0  0  0  0  0
   30.2221    7.8649    8.4435 C   0  0  0  0  0  0  0  0  0  0  0  0
   30.1285    9.2586    8.2482 N   0  0  0  0  0  0  0  0  0  0  0  0
   31.1959    9.7603    7.5023 C   0  0  0  0  0  0  0  0  0  0  0  0
   32.1659    8.9260    6.8678 N   0  0  0  0  0  0  0  0  0  0  0  0
   33.1687    9.5501    6.1103 C   0  0  0  0  0  0  0  0  0  0  0  0
   33.4233   11.1056    5.8479 C   0  0  0  0  0  0  0  0  0  0  0  0
   32.3906   11.7622    6.5625 C   0  0  0  0  0  0  0  0  0  0  0  0
   31.2663   11.1277    7.3950 C   0  0  0  0  0  0  0  0  0  0  0  0
   30.3071   11.9597    8.0350 N   0  0  0  0  0  0  0  0  0  0  0  0
  1  2  1  0
  2  3  1  0
  3  4  1  0
  4  5  2  0
  5  6  1  0
  6  7  2  0
  7  8  1  0
  8  9  2  0
  9 10  1  0
  9  4  1  0
A    1
 C1 
A    2
 C2 
A    3
 N1 
A    4
 C3 
A    5
 N2 
A    6
 C4 
A    7
 C5 
A    8
 C6 
A    9
 C7 
A   10
 N3 
M  END
>  <ref_pdb>  (858) 
Ax0310a

>  <ref_mols>  (858) 
Ax0446a,Ax1080a,Ax0812a,Ax0719a,Ax1140a,Ax0528a,Ax0310a

>  <original SMILES>  (858) 
CCNc1ncccc1N

>  <rationale>  (858) 
info info set:bb_densepocket2;hbond:S125; hydroph_interaction:V124; 

>  <experiment>  (858) 
bb_densepocket2

>  <cluster_label>  (858) 
3

>  <cluster_rank>  (858) 
515

>  <N_interactions>  (858) 
3

>  <∆∆G>  (858) 
-1.889536

>  <comRMSD>  (858) 
0.716284

>  <ROCS_TanimotoCombo>  (858) 
0.631

>  <ROCS_ShapeTanimoto>  (858) 
0.194

>  <ROCS_ColorTanimoto>  (858) 
0.437

$$$$
Z54932396
     RDKit          3D

 15 15  0  0  0  0  0  0  0  0999 V2000
   29.6119    8.3249    8.5486 C   0  0  0  0  0  0  0  0  0  0  0  0
   31.3562    8.2694    8.5011 S   0  0  0  0  0  0  0  0  0  0  0  0
   31.9477    9.3943    7.2639 C   0  0  0  0  0  0  0  0  0  0  0  0
   32.8407    8.8289    6.4943 N   0  0  0  0  0  0  0  0  0  0  0  0
   33.4244    9.5023    5.5212 C   0  0  0  0  0  0  0  0  0  0  0  0
   33.1088   10.9744    5.2322 C   0  0  0  0  0  0  0  0  0  0  0  0
   32.1600   11.6596    6.0090 C   0  0  0  0  0  0  0  0  0  0  0  0
   31.5086   10.8375    7.1105 C   0  0  0  0  0  0  0  0  0  0  0  0
   30.4725   11.4103    8.0312 C   0  0  0  0  0  0  0  0  0  0  0  0
   30.1788   10.4266    8.9946 O   0  0  0  0  0  0  0  0  0  0  0  0
   29.9357   12.6706    7.8735 N   0  0  0  0  0  0  0  0  0  0  0  0
   28.9495   13.2380    8.7757 C   0  0  0  0  0  0  0  0  0  0  0  0
   28.0448   14.2254    8.1435 C   0  0  0  0  0  0  0  0  0  0  0  0
   27.7066   13.5320    6.8180 C   0  0  0  0  0  0  0  0  0  0  0  0
   28.7519   15.5418    7.9779 C   0  0  0  0  0  0  0  0  0  0  0  0
  1  2  1  0
  2  3  1  0
  3  4  2  0
  4  5  1  0
  5  6  2  0
  6  7  1  0
  7  8  2  0
  8  9  1  0
  9 10  2  0
  9 11  1  0
 11 12  1  0
 12 13  1  0
 13 14  1  0
 13 15  1  0
  8  3  1  0
A    1
 C1 
A    2
 S1 
A    3
 C2 
A    4
 N1 
A    5
 C3 
A    6
 C4 
A    7
 C5 
A    8
 C6 
A    9
 C7 
A   10
 O1 
A   11
 N2 
A   12
 C8 
A   13
 C9 
A   14
 C10
A   15
 C11
M  END
>  <ref_pdb>  (859) 
Ax0310a

>  <ref_mols>  (859) 
Ax0446a,Ax1080a,Ax0812a,Ax0719a,Ax1140a,Ax0528a,Ax0310a

>  <original SMILES>  (859) 
CSc1ncccc1C(=O)NCC(C)C

>  <rationale>  (859) 
info info set:screening_pocket;hydroph_interaction:P107+Y89+Y90; 

>  <experiment>  (859) 
screening_pocket

>  <cluster_label>  (859) 
3

>  <cluster_rank>  (859) 
516

>  <N_interactions>  (859) 
3

>  <∆∆G>  (859) 
-7.353729

>  <comRMSD>  (859) 
0.602536

>  <ROCS_TanimotoCombo>  (859) 
0.646

>  <ROCS_ShapeTanimoto>  (859) 
0.224

>  <ROCS_ColorTanimoto>  (859) 
0.422

$$$$
EN300_45217294
     RDKit          3D

 14 15  0  0  0  0  0  0  0  0999 V2000
   29.2203   12.3149    8.4107 N   0  0  0  0  0  0  0  0  0  0  0  0
   30.5989   12.8721    7.6676 S   0  0  0  0  0  6  0  0  0  0  0  0
   30.1729   13.4427    6.4159 O   0  0  0  0  0  0  0  0  0  0  0  0
   31.3703   13.5998    8.6520 O   0  0  0  0  0  0  0  0  0  0  0  0
   31.4594   11.3989    7.2592 C   0  0  0  0  0  0  0  0  0  0  0  0
   31.1975   10.0934    7.6457 C   0  0  0  0  0  0  0  0  0  0  0  0
   32.0557    9.2176    7.1371 N   0  0  0  0  0  0  0  0  0  0  0  0
   32.8953    9.9790    6.3993 C   0  0  0  0  0  0  0  0  0  0  0  0
   33.9834    9.5260    5.6464 C   0  0  0  0  0  0  0  0  0  0  0  0
   34.8399   10.5367    4.8930 C   0  0  0  0  0  0  0  0  0  0  0  0
   34.5201   11.8877    4.9621 C   0  0  0  0  0  0  0  0  0  0  0  0
   35.5701   13.1202    4.0501 Br  0  0  0  0  0  0  0  0  0  0  0  0
   33.3069   12.2900    5.7918 C   0  0  0  0  0  0  0  0  0  0  0  0
   32.5755   11.3024    6.4574 N   0  0  0  0  0  0  0  0  0  0  0  0
  1  2  1  0
  2  3  2  0
  2  4  2  0
  2  5  1  0
  5  6  2  0
  6  7  1  0
  7  8  2  0
  8  9  1  0
  9 10  2  0
 10 11  1  0
 11 12  1  0
 11 13  2  0
 13 14  1  0
 14  5  1  0
 14  8  1  0
A    1
 N1 
A    2
 S1 
A    3
 O1 
A    4
 O2 
A    5
 C1 
A    6
 C2 
A    7
 N2 
A    8
 C3 
A    9
 C4 
A   10
 C5 
A   11
 C6 
A   12
BR1 
A   13
 C7 
A   14
 N3 
M  END
>  <ref_pdb>  (860) 
Ax0310a

>  <ref_mols>  (860) 
Ax0446a,Ax1080a,Ax0812a,Ax0719a,Ax1140a,Ax0528a,Ax0310a

>  <original SMILES>  (860) 
NS(=O)(=O)c1cnc2ccc(Br)cn12

>  <rationale>  (860) 
info info set:sulfonimide_whole;hbond:S87+S125; 

>  <experiment>  (860) 
sulfonimide_whole

>  <cluster_label>  (860) 
3

>  <cluster_rank>  (860) 
517

>  <N_interactions>  (860) 
2

>  <∆∆G>  (860) 
-4.054501

>  <comRMSD>  (860) 
0.394891

>  <ROCS_TanimotoCombo>  (860) 
0.343

>  <ROCS_ShapeTanimoto>  (860) 
0.198

>  <ROCS_ColorTanimoto>  (860) 
0.145

$$$$
Z362114732
     RDKit          3D

 15 16  0  0  0  0  0  0  0  0999 V2000
   33.9649   13.1588    9.2022 O   0  0  0  0  0  0  0  0  0  0  0  0
   33.2130   13.6248    8.3946 C   0  0  0  0  0  0  0  0  0  0  0  0
   32.0682   14.2327    8.7738 O   0  0  0  0  0  0  0  0  0  0  0  0
   33.3874   13.5982    6.9191 C   0  0  0  0  0  0  0  0  0  0  0  0
   32.8396   12.5796    5.9746 C   0  0  0  0  0  0  0  0  0  0  0  0
   32.1244   11.4598    6.6559 C   0  0  0  0  0  0  0  0  0  0  0  0
   32.8331   10.1887    6.2513 C   0  0  0  0  0  0  0  0  0  0  0  0
   32.2071    8.9889    6.9154 C   0  0  0  0  0  0  0  0  0  0  0  0
   31.1238    9.0532    7.7875 C   0  0  0  0  0  0  0  0  0  0  0  0
   30.5306   10.2474    8.1078 C   0  0  0  0  0  0  0  0  0  0  0  0
   31.0468   11.5173    7.5100 C   0  0  0  0  0  0  0  0  0  0  0  0
   30.4574   12.6761    7.8271 F   0  0  0  0  0  0  0  0  0  0  0  0
   33.0716   12.7424    4.6379 N   0  0  0  0  0  0  0  0  0  0  0  0
   33.5160   14.0520    4.6064 N   0  0  0  0  0  0  0  0  0  0  0  0
   34.1361   14.4333    5.9481 C   0  0  0  0  0  0  0  0  0  0  0  0
  1  2  2  0
  2  3  1  0
  2  4  1  0
  4  5  2  0
  5  6  1  0
  6  7  2  0
  7  8  1  0
  8  9  2  0
  9 10  1  0
 10 11  2  0
 11 12  1  0
  5 13  1  0
 13 14  2  0
 14 15  1  0
 15  4  1  0
 11  6  1  0
A    1
 O1 
A    2
 C1 
A    3
 O2 
A    4
 C2 
A    5
 C3 
A    6
 C4 
A    7
 C5 
A    8
 C6 
A    9
 C7 
A   10
 C8 
A   11
 C9 
A   12
 F1 
A   13
 N1 
A   14
 N2 
A   15
 C10
M  END
>  <ref_pdb>  (861) 
Ax0310a

>  <ref_mols>  (861) 
Ax0446a,Ax1080a,Ax0812a,Ax0719a,Ax1140a,Ax0528a,Ax0310a

>  <original SMILES>  (861) 
O=C(O)C1=C(c2ccccc2F)N=NC1

>  <rationale>  (861) 
info info set:3d;hbond:S87+G127; 

>  <experiment>  (861) 
3d

>  <cluster_label>  (861) 
3

>  <cluster_rank>  (861) 
518

>  <N_interactions>  (861) 
3

>  <∆∆G>  (861) 
-3.423378

>  <comRMSD>  (861) 
0.548785

>  <ROCS_TanimotoCombo>  (861) 
0.311

>  <ROCS_ShapeTanimoto>  (861) 
0.201

>  <ROCS_ColorTanimoto>  (861) 
0.111

$$$$
Z285679962
     RDKit          3D

 16 18  0  0  0  0  0  0  0  0999 V2000
   30.0544   10.5789    8.9163 O   0  0  0  0  0  0  0  0  0  0  0  0
   30.4645   11.3300    8.0827 C   0  0  0  0  0  0  0  0  0  0  0  0
   30.0474   12.7113    7.8110 N   0  0  0  0  0  0  0  0  0  0  0  0
   29.1179   13.2967    8.6858 C   0  0  0  0  0  0  0  0  0  0  0  0
   28.5842   14.5737    8.3445 C   0  0  0  0  0  0  0  0  0  0  0  0
   29.5320   14.4640    9.6405 C   0  0  0  0  0  0  0  0  0  0  0  0
   31.4848   10.7667    7.2438 C   0  0  0  0  0  0  0  0  0  0  0  0
   32.2828   11.6689    6.3174 C   0  0  0  0  0  0  0  0  0  0  0  0
   33.2977   10.9014    5.5024 C   0  0  0  0  0  0  0  0  0  0  0  0
   33.4082    9.5333    5.6600 C   0  0  0  0  0  0  0  0  0  0  0  0
   34.3187    8.8145    4.9123 N   0  0  0  0  0  0  0  0  0  0  0  0
   35.3702    9.4308    4.1347 C   0  0  0  0  0  0  0  0  0  0  0  0
   35.3688    9.3843    2.6915 C   0  0  0  0  0  0  0  0  0  0  0  0
   36.2967    8.5291    3.1447 C   0  0  0  0  0  0  0  0  0  0  0  0
   32.6693    8.8209    6.5100 N   0  0  0  0  0  0  0  0  0  0  0  0
   31.7424    9.4184    7.2703 C   0  0  0  0  0  0  0  0  0  0  0  0
  1  2  2  0
  2  3  1  0
  3  4  1  0
  4  5  1  0
  5  6  1  0
  2  7  1  0
  7  8  2  0
  8  9  1  0
  9 10  2  0
 10 11  1  0
 11 12  1  0
 12 13  1  0
 13 14  1  0
 10 15  1  0
 15 16  2  0
  6  4  1  0
 16  7  1  0
 14 12  1  0
A    1
 O1 
A    2
 C1 
A    3
 N1 
A    4
 C2 
A    5
 C3 
A    6
 C4 
A    7
 C5 
A    8
 C6 
A    9
 C7 
A   10
 C8 
A   11
 N2 
A   12
 C9 
A   13
 C10
A   14
 C11
A   15
 N3 
A   16
 C12
M  END
>  <ref_pdb>  (862) 
Ax0310a

>  <ref_mols>  (862) 
Ax0446a,Ax1080a,Ax0812a,Ax0719a,Ax1140a,Ax0528a,Ax0310a

>  <original SMILES>  (862) 
O=C(NC1CC1)c1ccc(NC2CC2)nc1

>  <rationale>  (862) 
info info set:screening_pocket;hbond:S105; hydroph_interaction:P107+Y90; 

>  <experiment>  (862) 
screening_pocket

>  <cluster_label>  (862) 
3

>  <cluster_rank>  (862) 
519

>  <N_interactions>  (862) 
3

>  <∆∆G>  (862) 
-3.511801

>  <comRMSD>  (862) 
0.469499

>  <ROCS_TanimotoCombo>  (862) 
0.644

>  <ROCS_ShapeTanimoto>  (862) 
0.234

>  <ROCS_ColorTanimoto>  (862) 
0.411

$$$$
Z4521998840
     RDKit          3D

 23 26  0  0  0  0  0  0  0  0999 V2000
   30.5536   13.0744    6.5375 O   0  0  0  0  0  0  0  0  0  0  0  0
   30.5076   12.1180    7.2915 C   0  0  0  0  0  0  0  0  0  0  0  0
   29.6099   12.0951    8.3094 N   0  0  0  0  0  0  0  0  0  0  0  0
   28.5919   13.1135    8.2587 C   0  0  0  0  0  0  0  0  0  0  0  0
   28.8356   14.2189    9.2355 C   0  0  0  0  0  0  0  0  0  0  0  0
   30.2390   14.6031    9.3692 N   0  0  0  0  0  0  0  0  0  0  0  0
   30.5764   15.8495    9.6136 C   0  0  0  0  0  0  0  0  0  0  0  0
   31.9250   15.8192    9.7242 C   0  0  0  0  0  0  0  0  0  0  0  0
   32.3510   14.5455    9.5028 N   0  0  0  0  0  0  0  0  0  0  0  0
   31.2862   13.8035    9.2881 N   0  0  0  0  0  0  0  0  0  0  0  0
   28.0948   14.2351   10.5588 C   0  0  0  0  0  0  0  0  0  0  0  0
   27.7397   15.2334    9.4979 C   0  0  0  0  0  0  0  0  0  0  0  0
   31.3738   11.0067    7.0127 C   0  0  0  0  0  0  0  0  0  0  0  0
   31.2997    9.6674    7.4538 C   0  0  0  0  0  0  0  0  0  0  0  0
   32.2849    8.9274    6.9332 N   0  0  0  0  0  0  0  0  0  0  0  0
   32.9813    9.7970    6.1697 N   0  0  0  0  0  0  0  0  0  0  0  0
   32.4842   11.0574    6.2064 C   0  0  0  0  0  0  0  0  0  0  0  0
   33.2702   12.3238    5.3094 S   0  0  0  0  0  6  0  0  0  0  0  0
   32.2343   12.9379    4.5179 O   0  0  0  0  0  0  0  0  0  0  0  0
   34.0397   13.0803    6.2586 O   0  0  0  0  0  0  0  0  0  0  0  0
   34.3038   11.5348    4.2590 N   0  0  0  0  0  0  0  0  0  0  0  0
   35.0666   10.4688    4.9063 C   0  0  0  0  0  0  0  0  0  0  0  0
   34.1375    9.3456    5.4008 C   0  0  0  0  0  0  0  0  0  0  0  0
  1  2  2  0
  2  3  1  0
  3  4  1  0
  4  5  1  0
  5  6  1  0
  6  7  1  0
  7  8  2  0
  8  9  1  0
  9 10  2  0
  5 11  1  0
 11 12  1  0
  2 13  1  0
 13 14  1  0
 14 15  2  0
 15 16  1  0
 16 17  1  0
 17 18  1  0
 18 19  2  0
 18 20  2  0
 18 21  1  0
 21 22  1  0
 22 23  1  0
 12  5  1  0
 17 13  2  0
 10  6  1  0
 23 16  1  0
A    1
 O1 
A    2
 C1 
A    3
 N1 
A    4
 C2 
A    5
 C3 
A    6
 N2 
A    7
 C4 
A    8
 C5 
A    9
 N3 
A   10
 N4 
A   11
 C6 
A   12
 C7 
A   13
 C8 
A   14
 C9 
A   15
 N5 
A   16
 N6 
A   17
 C10
A   18
 S1 
A   19
 O2 
A   20
 O3 
A   21
 N7 
A   22
 C11
A   23
 C12
M  END
>  <ref_pdb>  (863) 
Ax0310a

>  <ref_mols>  (863) 
Ax0446a,Ax1080a,Ax0812a,Ax0719a,Ax1140a,Ax0528a,Ax0310a

>  <original SMILES>  (863) 
O=C(NCC1(n2ccnn2)CC1)c1cnn2c1S(=O)(=O)NCC2

>  <rationale>  (863) 
info info set:screening_whole;hbond:S87+S125; hydroph_interaction:P107+Y90; 

>  <experiment>  (863) 
screening_whole

>  <cluster_label>  (863) 
3

>  <cluster_rank>  (863) 
520

>  <N_interactions>  (863) 
5

>  <∆∆G>  (863) 
-2.495721

>  <comRMSD>  (863) 
0.868209

>  <ROCS_TanimotoCombo>  (863) 
0.46

>  <ROCS_ShapeTanimoto>  (863) 
0.247

>  <ROCS_ColorTanimoto>  (863) 
0.214

$$$$
EN300_259484
     RDKit          3D

 16 17  0  0  0  0  0  0  0  0999 V2000
   28.9340    9.1246    8.2121 C   0  0  0  0  0  0  0  0  0  0  0  0
   29.8108    8.9052    9.0572 C   0  0  0  0  0  0  0  0  0  0  0  0
   29.1269    8.5473   10.2102 C   0  0  0  0  0  0  0  0  0  0  0  0
   30.5236    7.6968    8.7075 C   0  0  0  0  0  0  0  0  0  0  0  0
   30.8183    9.8520    9.1157 O   0  0  0  0  0  0  0  0  0  0  0  0
   30.8927   10.7778    8.1597 C   0  0  0  0  0  0  0  0  0  0  0  0
   30.1744   11.7553    8.1329 O   0  0  0  0  0  0  0  0  0  0  0  0
   31.9447   10.5035    7.1833 C   0  0  0  0  0  0  0  0  0  0  0  0
   32.4435    9.2395    6.8231 N   0  0  0  0  0  0  0  0  0  0  0  0
   33.3575    9.5576    5.9296 C   0  0  0  0  0  0  0  0  0  0  0  0
   33.3990   10.8981    5.7890 N   0  0  0  0  0  0  0  0  0  0  0  0
   32.5275   11.5322    6.5541 N   0  0  0  0  0  0  0  0  0  0  0  0
   34.2948   11.5737    4.9057 C   0  0  0  0  0  0  0  0  0  0  0  0
   34.4938   10.7398    3.6491 C   0  0  0  0  0  0  0  0  0  0  0  0
   34.8489    9.2834    3.9838 C   0  0  0  0  0  0  0  0  0  0  0  0
   34.2003    8.7966    5.1987 N   0  0  0  0  0  0  0  0  0  0  0  0
  1  2  1  0
  2  3  1  0
  2  4  1  0
  2  5  1  0
  5  6  1  0
  6  7  2  0
  6  8  1  0
  8  9  1  0
  9 10  2  0
 10 11  1  0
 11 12  1  0
 11 13  1  0
 13 14  1  0
 14 15  1  0
 15 16  1  0
 12  8  2  0
 16 10  1  0
A    1
 C1 
A    2
 C2 
A    3
 C3 
A    4
 C4 
A    5
 O1 
A    6
 C5 
A    7
 O2 
A    8
 C6 
A    9
 N1 
A   10
 C7 
A   11
 N2 
A   12
 N3 
A   13
 C8 
A   14
 C9 
A   15
 C10
A   16
 N4 
M  END
>  <ref_pdb>  (864) 
Ax0310a

>  <ref_mols>  (864) 
Ax0446a,Ax1080a,Ax0812a,Ax0719a,Ax1140a,Ax0528a,Ax0310a

>  <original SMILES>  (864) 
CC(C)(C)OC(=O)c1nc2n(n1)CCCN2

>  <rationale>  (864) 
info info set:bb_densepocket2;hbond:S105+G127; 

>  <experiment>  (864) 
bb_densepocket2

>  <cluster_label>  (864) 
3

>  <cluster_rank>  (864) 
521

>  <N_interactions>  (864) 
2

>  <∆∆G>  (864) 
-2.070852

>  <comRMSD>  (864) 
0.751318

>  <ROCS_TanimotoCombo>  (864) 
0.621

>  <ROCS_ShapeTanimoto>  (864) 
0.24

>  <ROCS_ColorTanimoto>  (864) 
0.38

$$$$
EN300_274572
     RDKit          3D

 14 15  0  0  0  0  0  0  0  0999 V2000
   28.5834   14.3473    9.9912 N   0  0  0  0  0  0  0  0  0  0  0  0
   29.5492   14.8007    8.6916 S   0  0  0  0  0  6  0  0  0  0  0  0
   28.6594   15.3184    7.6809 O   0  0  0  0  0  0  0  0  0  0  0  0
   30.5562   15.6021    9.3424 O   0  0  0  0  0  0  0  0  0  0  0  0
   30.3449   13.2923    8.0611 C   0  0  0  0  0  0  0  0  0  0  0  0
   29.6491   12.1436    8.5371 C   0  0  0  0  0  0  0  0  0  0  0  0
   30.0383   10.9000    8.2907 N   0  0  0  0  0  0  0  0  0  0  0  0
   31.1038   10.7924    7.5372 C   0  0  0  0  0  0  0  0  0  0  0  0
   31.5573    9.5270    7.2387 C   0  0  0  0  0  0  0  0  0  0  0  0
   32.6421    9.2587    6.4443 C   0  0  0  0  0  0  0  0  0  0  0  0
   33.3574   10.3037    5.8857 C   0  0  0  0  0  0  0  0  0  0  0  0
   32.9902   11.6284    6.1335 C   0  0  0  0  0  0  0  0  0  0  0  0
   31.8008   11.9162    7.0131 C   0  0  0  0  0  0  0  0  0  0  0  0
   31.4424   13.2090    7.2711 N   0  0  0  0  0  0  0  0  0  0  0  0
  1  2  1  0
  2  3  2  0
  2  4  2  0
  2  5  1  0
  5  6  2  0
  6  7  1  0
  7  8  2  0
  8  9  1  0
  9 10  2  0
 10 11  1  0
 11 12  2  0
 12 13  1  0
 13 14  2  0
 14  5  1  0
 13  8  1  0
A    1
 N1 
A    2
 S1 
A    3
 O1 
A    4
 O2 
A    5
 C1 
A    6
 C2 
A    7
 N2 
A    8
 C3 
A    9
 C4 
A   10
 C5 
A   11
 C6 
A   12
 C7 
A   13
 C8 
A   14
 N3 
M  END
>  <ref_pdb>  (865) 
Ax0310a

>  <ref_mols>  (865) 
Ax0446a,Ax1080a,Ax0812a,Ax0719a,Ax1140a,Ax0528a,Ax0310a

>  <original SMILES>  (865) 
NS(=O)(=O)c1cnc2ccccc2n1

>  <rationale>  (865) 
info info set:sulfonimide_whole;hbond:S87+S125; 

>  <experiment>  (865) 
sulfonimide_whole

>  <cluster_label>  (865) 
3

>  <cluster_rank>  (865) 
522

>  <N_interactions>  (865) 
2

>  <∆∆G>  (865) 
-5.357098

>  <comRMSD>  (865) 
0.755409

>  <ROCS_TanimotoCombo>  (865) 
0.339

>  <ROCS_ShapeTanimoto>  (865) 
0.188

>  <ROCS_ColorTanimoto>  (865) 
0.151

$$$$
Z3870456994
     RDKit          3D

 19 21  0  0  0  0  0  0  0  0999 V2000
   30.0379   10.6996    8.8009 O   0  0  0  0  0  0  0  0  0  0  0  0
   30.5371   11.4547    8.0252 C   0  0  0  0  0  0  0  0  0  0  0  0
   30.2614   12.8196    7.8151 N   0  0  0  0  0  0  0  0  0  0  0  0
   29.0829   13.2594    8.5313 C   0  0  0  0  0  0  0  0  0  0  0  0
   29.5972   14.2561    9.3478 C   0  0  0  0  0  0  0  0  0  0  0  0
   28.4538   14.7338    8.3462 C   0  0  0  0  0  0  0  0  0  0  0  0
   31.5310   10.8839    7.2470 C   0  0  0  0  0  0  0  0  0  0  0  0
   32.4136   11.6912    6.3410 C   0  0  0  0  0  0  0  0  0  0  0  0
   33.5249   11.0156    5.4870 C   0  0  0  0  0  0  0  0  0  0  0  0
   33.5491    9.5023    5.7255 C   0  0  0  0  0  0  0  0  0  0  0  0
   34.4911    8.7220    5.0601 N   0  0  0  0  0  0  0  0  0  0  0  0
   35.0602    9.2771    3.8403 C   0  0  0  0  0  0  0  0  0  0  0  0
   35.7783   10.4316    4.1856 C   0  0  0  0  0  0  0  0  0  0  0  0
   37.1682   10.7561    3.5993 C   0  0  0  0  0  0  0  0  0  0  0  0
   38.1660   11.6169    4.4056 C   0  0  0  0  0  0  0  0  0  0  0  0
   38.9222   11.9216    3.1608 C   0  0  0  0  0  0  0  0  0  0  0  0
   39.7264   11.3967    4.2589 C   0  0  0  0  0  0  0  0  0  0  0  0
   32.6893    8.8800    6.5706 N   0  0  0  0  0  0  0  0  0  0  0  0
   31.7383    9.5274    7.2897 C   0  0  0  0  0  0  0  0  0  0  0  0
  1  2  2  0
  2  3  1  0
  3  4  1  0
  4  5  1  0
  5  6  1  0
  2  7  1  0
  7  8  2  0
  8  9  1  0
  9 10  2  0
 10 11  1  0
 11 12  1  0
 12 13  1  0
 13 14  3  0
 14 15  1  0
 15 16  1  0
 16 17  1  0
 10 18  1  0
 18 19  2  0
  6  4  1  0
 19  7  1  0
 17 15  1  0
A    1
 O1 
A    2
 C1 
A    3
 N1 
A    4
 C2 
A    5
 C3 
A    6
 C4 
A    7
 C5 
A    8
 C6 
A    9
 C7 
A   10
 C8 
A   11
 N2 
A   12
 C9 
A   13
 C10
A   14
 C11
A   15
 C12
A   16
 C13
A   17
 C14
A   18
 N3 
A   19
 C15
M  END
>  <ref_pdb>  (866) 
Ax0310a

>  <ref_mols>  (866) 
Ax0446a,Ax1080a,Ax0812a,Ax0719a,Ax1140a,Ax0528a,Ax0310a

>  <original SMILES>  (866) 
O=C(NC1CC1)c1ccc(NCC#CC2CC2)nc1

>  <rationale>  (866) 
info info set:screening_pocket;hbond:S87+S105; 

>  <experiment>  (866) 
screening_pocket

>  <cluster_label>  (866) 
3

>  <cluster_rank>  (866) 
523

>  <N_interactions>  (866) 
3

>  <∆∆G>  (866) 
-3.731383

>  <comRMSD>  (866) 
0.699419

>  <ROCS_TanimotoCombo>  (866) 
0.644

>  <ROCS_ShapeTanimoto>  (866) 
0.232

>  <ROCS_ColorTanimoto>  (866) 
0.412

$$$$
Z2044225387
     RDKit          3D

 19 21  0  0  0  0  0  0  0  0999 V2000
   35.8890   13.0395   10.0653 C   0  0  0  0  0  0  0  0  0  0  0  0
   35.2467   13.6668    8.8851 C   0  0  0  0  0  0  0  0  0  0  0  0
   35.8518   14.8729    8.6999 C   0  0  0  0  0  0  0  0  0  0  0  0
   33.7515   13.8827    8.8610 C   0  0  0  0  0  0  0  0  0  0  0  0
   32.9446   14.3935   10.1047 C   0  0  0  0  0  0  0  0  0  0  0  0
   31.5687   14.3477    9.3743 C   0  0  0  0  0  0  0  0  0  0  0  0
   31.6342   13.9472    8.0881 O   0  0  0  0  0  0  0  0  0  0  0  0
   32.9444   13.6847    7.7634 C   0  0  0  0  0  0  0  0  0  0  0  0
   33.2631   13.2854    6.4574 C   0  0  0  0  0  0  0  0  0  0  0  0
   34.0072   13.8654    5.6660 O   0  0  0  0  0  0  0  0  0  0  0  0
   32.6309   12.1297    6.1375 N   0  0  0  0  0  0  0  0  0  0  0  0
   33.2874   11.1592    5.2714 C   0  0  0  0  0  0  0  0  0  0  0  0
   33.1703    9.9102    5.7898 C   0  0  0  0  0  0  0  0  0  0  0  0
   31.8447    9.4048    6.0811 O   0  0  0  0  0  0  0  0  0  0  0  0
   31.2327    9.6599    7.2946 C   0  0  0  0  0  0  0  0  0  0  0  0
   31.1224   11.0242    7.4283 C   0  0  0  0  0  0  0  0  0  0  0  0
   30.3137   11.6858    8.2978 C   0  0  0  0  0  0  0  0  0  0  0  0
   29.8143   12.0528    7.0549 C   0  0  0  0  0  0  0  0  0  0  0  0
   32.3233   11.5556    7.3760 C   0  0  0  0  0  0  0  0  0  0  0  0
  1  2  1  0
  2  3  1  0
  2  4  1  0
  4  5  1  0
  5  6  2  0
  6  7  1  0
  7  8  1  0
  8  9  1  0
  9 10  2  0
  9 11  1  0
 11 12  1  0
 12 13  1  0
 13 14  1  0
 14 15  1  0
 15 16  1  0
 16 17  1  0
 17 18  1  0
 16 19  1  0
  8  4  2  0
 19 11  1  0
 18 16  1  0
A    1
 C1 
A    2
 C2 
A    3
 C3 
A    4
 C4 
A    5
 C5 
A    6
 C6 
A    7
 O1 
A    8
 C7 
A    9
 C8 
A   10
 O2 
A   11
 N1 
A   12
 C9 
A   13
 C10
A   14
 O3 
A   15
 C11
A   16
 C12
A   17
 C13
A   18
 C14
A   19
 C15
M  END
>  <ref_pdb>  (867) 
Ax0310a

>  <ref_mols>  (867) 
Ax0446a,Ax1080a,Ax0812a,Ax0719a,Ax1140a,Ax0528a,Ax0310a

>  <original SMILES>  (867) 
CC(C)c1ccoc1C(=O)N1CCOCC2(CC2)C1

>  <rationale>  (867) 
info info set:3d;hydroph_interaction:P107+T126+E85; 

>  <experiment>  (867) 
3d

>  <cluster_label>  (867) 
3

>  <cluster_rank>  (867) 
524

>  <N_interactions>  (867) 
3

>  <∆∆G>  (867) 
-0.000043

>  <comRMSD>  (867) 
0.981834

>  <ROCS_TanimotoCombo>  (867) 
0.343

>  <ROCS_ShapeTanimoto>  (867) 
0.209

>  <ROCS_ColorTanimoto>  (867) 
0.134

$$$$
Z1465369619
     RDKit          3D

 15 16  0  0  0  0  0  0  0  0999 V2000
   32.9338   13.2033    6.0726 C   0  0  0  0  0  0  0  0  0  0  0  0
   32.4073   12.0644    6.6294 C   0  0  0  0  0  0  0  0  0  0  0  0
   32.7981   10.8242    6.1468 C   0  0  0  0  0  0  0  0  0  0  0  0
   32.2171    9.6197    6.7698 C   0  0  0  0  0  0  0  0  0  0  0  0
   32.5813    8.4522    6.3668 F   0  0  0  0  0  0  0  0  0  0  0  0
   31.2367    9.7487    7.8448 C   0  0  0  0  0  0  0  0  0  0  0  0
   30.9194   10.9960    8.2471 C   0  0  0  0  0  0  0  0  0  0  0  0
   31.4878   12.1326    7.6865 C   0  0  0  0  0  0  0  0  0  0  0  0
   31.1013   13.4142    8.2608 C   0  0  0  0  0  0  0  0  0  0  0  0
   31.9677   14.0589    8.8462 O   0  0  0  0  0  0  0  0  0  0  0  0
   29.8665   13.8235    8.1638 N   0  0  0  0  0  0  0  0  0  0  0  0
   29.0302   13.1439    7.4067 C   0  0  0  0  0  0  0  0  0  0  0  0
   27.7535   13.9317    7.4994 C   0  0  0  0  0  0  0  0  0  0  0  0
   28.0204   15.1337    8.1474 C   0  0  0  0  0  0  0  0  0  0  0  0
   29.1212   14.6658    9.0718 C   0  0  0  0  0  0  0  0  0  0  0  0
  1  2  1  0
  2  3  2  0
  3  4  1  0
  4  5  1  0
  4  6  2  0
  6  7  1  0
  7  8  2  0
  8  9  1  0
  9 10  2  0
  9 11  1  0
 11 12  1  0
 12 13  1  0
 13 14  1  0
 14 15  1  0
  8  2  1  0
 15 11  1  0
A    1
 C1 
A    2
 C2 
A    3
 C3 
A    4
 C4 
A    5
 F1 
A    6
 C5 
A    7
 C6 
A    8
 C7 
A    9
 C8 
A   10
 O1 
A   11
 N1 
A   12
 C9 
A   13
 C10
A   14
 C11
A   15
 C12
M  END
>  <ref_pdb>  (868) 
Ax0310a

>  <ref_mols>  (868) 
Ax0446a,Ax1080a,Ax0812a,Ax0719a,Ax1140a,Ax0528a,Ax0310a

>  <original SMILES>  (868) 
Cc1cc(F)ccc1C(=O)N1CCCC1

>  <rationale>  (868) 
info info set:3d;hbond:S87; hydroph_interaction:P107+Y89+Y90; 

>  <experiment>  (868) 
3d

>  <cluster_label>  (868) 
3

>  <cluster_rank>  (868) 
525

>  <N_interactions>  (868) 
4

>  <∆∆G>  (868) 
-5.767637

>  <comRMSD>  (868) 
0.599586

>  <ROCS_TanimotoCombo>  (868) 
0.294

>  <ROCS_ShapeTanimoto>  (868) 
0.196

>  <ROCS_ColorTanimoto>  (868) 
0.098

$$$$
Z2588709592
     RDKit          3D

 21 22  0  0  0  0  0  0  0  0999 V2000
   30.1908   14.5770    9.9168 C   0  0  0  0  0  0  0  0  0  0  0  0
   29.3084   14.7287    8.7059 C   0  0  0  0  0  0  0  0  0  0  0  0
   29.0191   16.0595    8.2325 N   0  0  0  0  0  0  0  0  0  0  0  0
   28.2562   15.8146    7.1531 O   0  0  0  0  0  0  0  0  0  0  0  0
   28.0552   14.5277    6.9720 C   0  0  0  0  0  0  0  0  0  0  0  0
   28.6711   13.8173    7.8803 C   0  0  0  0  0  0  0  0  0  0  0  0
   28.6395   12.3549    7.9113 C   0  0  0  0  0  0  0  0  0  0  0  0
   29.7347   11.9343    7.1999 O   0  0  0  0  0  0  0  0  0  0  0  0
   30.3968   11.0195    7.8608 C   0  0  0  0  0  0  0  0  0  0  0  0
   30.2770   10.3564    9.1272 O   0  0  0  0  0  0  0  0  0  0  0  0
   31.4663   10.5196    7.0683 C   0  0  0  0  0  0  0  0  0  0  0  0
   32.0216   11.3824    6.1661 C   0  0  0  0  0  0  0  0  0  0  0  0
   33.1010   10.7667    5.3515 C   0  0  0  0  0  0  0  0  0  0  0  0
   33.9820   11.2641    4.2282 C   0  0  0  0  0  0  0  0  0  0  0  0
   33.6447   12.5527    3.9458 F   0  0  0  0  0  0  0  0  0  0  0  0
   33.8060   10.6117    3.0528 F   0  0  0  0  0  0  0  0  0  0  0  0
   35.3055   11.2713    4.4680 F   0  0  0  0  0  0  0  0  0  0  0  0
   33.4721    9.3302    5.6038 C   0  0  0  0  0  0  0  0  0  0  0  0
   32.8172    8.6247    6.5560 N   0  0  0  0  0  0  0  0  0  0  0  0
   31.8383    9.2427    7.2453 C   0  0  0  0  0  0  0  0  0  0  0  0
   31.0211    8.2950    8.4243 Cl  0  0  0  0  0  0  0  0  0  0  0  0
  1  2  1  0
  2  3  2  0
  3  4  1  0
  4  5  1  0
  5  6  2  0
  6  7  1  0
  7  8  1  0
  8  9  1  0
  9 10  2  0
  9 11  1  0
 11 12  2  0
 12 13  1  0
 13 14  1  0
 14 15  1  0
 14 16  1  0
 14 17  1  0
 13 18  2  0
 18 19  1  0
 19 20  2  0
 20 21  1  0
  6  2  1  0
 20 11  1  0
A    1
 C1 
A    2
 C2 
A    3
 N1 
A    4
 O1 
A    5
 C3 
A    6
 C4 
A    7
 C5 
A    8
 O2 
A    9
 C6 
A   10
 O3 
A   11
 C7 
A   12
 C8 
A   13
 C9 
A   14
 C10
A   15
 F1 
A   16
 F2 
A   17
 F3 
A   18
 C11
A   19
 N2 
A   20
 C12
A   21
CL1 
M  END
>  <ref_pdb>  (869) 
Ax0310a

>  <ref_mols>  (869) 
Ax0446a,Ax1080a,Ax0812a,Ax0719a,Ax1140a,Ax0528a,Ax0310a

>  <original SMILES>  (869) 
Cc1nocc1COC(=O)c1cc(C(F)(F)F)cnc1Cl

>  <rationale>  (869) 
info info set:screening_pocket;hbond:S87+Y90; hydroph_interaction:P107+Y90; pistack:H21; 

>  <experiment>  (869) 
screening_pocket

>  <cluster_label>  (869) 
3

>  <cluster_rank>  (869) 
526

>  <N_interactions>  (869) 
5

>  <∆∆G>  (869) 
-0.851073

>  <comRMSD>  (869) 
0.710627

>  <ROCS_TanimotoCombo>  (869) 
0.638

>  <ROCS_ShapeTanimoto>  (869) 
0.26

>  <ROCS_ColorTanimoto>  (869) 
0.378

$$$$
Z1638935398
     RDKit          3D

 18 19  0  0  0  0  0  0  0  0999 V2000
   32.3002   14.0799    8.1699 O   0  0  0  0  0  0  0  0  0  0  0  0
   31.0978   13.3812    8.4293 S   0  0  0  0  0  6  0  0  0  0  0  0
   30.5792   13.4274    9.7436 O   0  0  0  0  0  0  0  0  0  0  0  0
   29.8229   13.7641    7.4449 N   0  0  0  0  0  0  0  0  0  0  0  0
   28.9401   14.5478    8.0767 C   0  0  0  0  0  0  0  0  0  0  0  0
   28.0246   14.1436    9.1177 C   0  0  0  0  0  0  0  0  0  0  0  0
   27.3038   15.1644    9.5798 C   0  0  0  0  0  0  0  0  0  0  0  0
   27.7393   16.2123    8.8548 O   0  0  0  0  0  0  0  0  0  0  0  0
   28.7321   15.8508    7.9274 N   0  0  0  0  0  0  0  0  0  0  0  0
   31.5378   11.9152    7.8034 C   0  0  0  0  0  0  0  0  0  0  0  0
   32.5650   11.9551    6.8805 C   0  0  0  0  0  0  0  0  0  0  0  0
   33.0390   10.8245    6.2914 C   0  0  0  0  0  0  0  0  0  0  0  0
   34.0375   10.9058    5.4022 F   0  0  0  0  0  0  0  0  0  0  0  0
   32.5009    9.6265    6.6132 C   0  0  0  0  0  0  0  0  0  0  0  0
   33.0113    8.5913    6.0286 F   0  0  0  0  0  0  0  0  0  0  0  0
   31.4643    9.5184    7.5251 C   0  0  0  0  0  0  0  0  0  0  0  0
   30.9976    8.2990    7.7826 F   0  0  0  0  0  0  0  0  0  0  0  0
   30.9059   10.5879    8.1715 C   0  0  0  0  0  0  0  0  0  0  0  0
  1  2  2  0
  2  3  2  0
  2  4  1  0
  4  5  1  0
  5  6  1  0
  6  7  2  0
  7  8  1  0
  8  9  1  0
  2 10  1  0
 10 11  2  0
 11 12  1  0
 12 13  1  0
 12 14  2  0
 14 15  1  0
 14 16  1  0
 16 17  1  0
 16 18  2  0
  9  5  2  0
 18 10  1  0
A    1
 O1 
A    2
 S1 
A    3
 O2 
A    4
 N1 
A    5
 C1 
A    6
 C2 
A    7
 C3 
A    8
 O3 
A    9
 N2 
A   10
 C4 
A   11
 C5 
A   12
 C6 
A   13
 F1 
A   14
 C7 
A   15
 F2 
A   16
 C8 
A   17
 F3 
A   18
 C9 
M  END
>  <ref_pdb>  (870) 
Ax0310a

>  <ref_mols>  (870) 
Ax0446a,Ax1080a,Ax0812a,Ax0719a,Ax1140a,Ax0528a,Ax0310a

>  <original SMILES>  (870) 
O=S(=O)(Nc1ccon1)c1cc(F)c(F)c(F)c1

>  <rationale>  (870) 
info info set:3d;halogenbond:S105; hbond:S87+Y90; 

>  <experiment>  (870) 
3d

>  <cluster_label>  (870) 
3

>  <cluster_rank>  (870) 
527

>  <N_interactions>  (870) 
4

>  <∆∆G>  (870) 
-0.009539

>  <comRMSD>  (870) 
0.478155

>  <ROCS_TanimotoCombo>  (870) 
0.321

>  <ROCS_ShapeTanimoto>  (870) 
0.22

>  <ROCS_ColorTanimoto>  (870) 
0.101

$$$$
EN300_801795
     RDKit          3D

 17 18  0  0  0  0  0  0  0  0999 V2000
   30.2385    9.3630    9.4930 C   0  0  0  0  0  0  0  0  0  0  0  0
   30.2808    8.9276    8.1852 C   0  0  0  0  0  0  0  0  0  0  0  0
   30.7384    7.6385    8.3734 C   0  0  0  0  0  0  0  0  0  0  0  0
   28.7995    8.9757    8.2339 C   0  0  0  0  0  0  0  0  0  0  0  0
   31.2644    9.8224    7.3848 C   0  0  0  0  0  0  0  0  0  0  0  0
   32.2580    9.2141    6.5559 N   0  0  0  0  0  0  0  0  0  0  0  0
   33.1777    9.9773    5.8316 C   0  0  0  0  0  0  0  0  0  0  0  0
   34.2615    9.5893    4.9161 C   0  0  0  0  0  0  0  0  0  0  0  0
   34.8773    8.1163    4.3029 Cl  0  0  0  0  0  0  0  0  0  0  0  0
   35.0799   10.4963    4.3026 C   0  0  0  0  0  0  0  0  0  0  0  0
   34.9129   11.8200    4.5149 C   0  0  0  0  0  0  0  0  0  0  0  0
   33.9089   12.2509    5.3471 C   0  0  0  0  0  0  0  0  0  0  0  0
   33.0461   11.3658    6.0014 C   0  0  0  0  0  0  0  0  0  0  0  0
   32.0802   11.9384    6.7995 C   0  0  0  0  0  0  0  0  0  0  0  0
   31.1645   11.1999    7.5046 C   0  0  0  0  0  0  0  0  0  0  0  0
   30.1941   11.8673    8.2963 N   0  0  0  0  0  0  0  0  0  0  0  0
   29.8604   13.2018    8.0507 N   0  0  0  0  0  0  0  0  0  0  0  0
  1  2  1  0
  2  3  1  0
  2  4  1  0
  2  5  1  0
  5  6  2  0
  6  7  1  0
  7  8  2  0
  8  9  1  0
  8 10  1  0
 10 11  2  0
 11 12  1  0
 12 13  2  0
 13 14  1  0
 14 15  2  0
 15 16  1  0
 16 17  1  0
 15  5  1  0
 13  7  1  0
A    1
 C1 
A    2
 C2 
A    3
 C3 
A    4
 C4 
A    5
 C5 
A    6
 N1 
A    7
 C6 
A    8
 C7 
A    9
CL1 
A   10
 C8 
A   11
 C9 
A   12
 C10
A   13
 C11
A   14
 C12
A   15
 C13
A   16
 N2 
A   17
 N3 
M  END
>  <ref_pdb>  (871) 
Ax0310a

>  <ref_mols>  (871) 
Ax0446a,Ax1080a,Ax0812a,Ax0719a,Ax1140a,Ax0528a,Ax0310a

>  <original SMILES>  (871) 
CC(C)(C)c1nc2c(Cl)cccc2cc1NN

>  <rationale>  (871) 
info info set:bb_densepocket2;hbond:S125; 

>  <experiment>  (871) 
bb_densepocket2

>  <cluster_label>  (871) 
3

>  <cluster_rank>  (871) 
528

>  <N_interactions>  (871) 
2

>  <∆∆G>  (871) 
-4.188457

>  <comRMSD>  (871) 
0.912118

>  <ROCS_TanimotoCombo>  (871) 
0.619

>  <ROCS_ShapeTanimoto>  (871) 
0.283

>  <ROCS_ColorTanimoto>  (871) 
0.336

$$$$
EN300_110255
     RDKit          3D

 19 21  0  0  0  0  0  0  0  0999 V2000
   33.5342   13.6579    5.7784 O   0  0  0  0  0  0  0  0  0  0  0  0
   33.5173   12.4315    5.6896 N   0  0  0  0  0  4  0  0  0  0  0  0
   34.5423   11.7610    5.5087 O   0  0  0  0  0  1  0  0  0  0  0  0
   32.4494   11.7466    6.4216 C   0  0  0  0  0  0  0  0  0  0  0  0
   31.2578   12.3961    6.9672 C   0  0  0  0  0  0  0  0  0  0  0  0
   30.9564   13.6125    6.8792 O   0  0  0  0  0  0  0  0  0  0  0  0
   29.8710   13.9684    7.5849 C   0  0  0  0  0  0  0  0  0  0  0  0
   28.5762   13.9693    7.0967 C   0  0  0  0  0  0  0  0  0  0  0  0
   27.5605   14.3526    7.9180 C   0  0  0  0  0  0  0  0  0  0  0  0
   27.8621   14.7549    9.2969 C   0  0  0  0  0  0  0  0  0  0  0  0
   29.1744   14.7391    9.7492 C   0  0  0  0  0  0  0  0  0  0  0  0
   30.1919   14.3502    8.8994 C   0  0  0  0  0  0  0  0  0  0  0  0
   31.4878   14.3512    9.3720 O   0  0  0  0  0  0  0  0  0  0  0  0
   30.4732   11.5170    7.6148 N   0  0  0  0  0  0  0  0  0  0  0  0
   31.1041   10.4348    7.4873 C   0  0  0  0  0  0  0  0  0  0  0  0
   30.7091    8.8944    8.0959 S   0  0  0  0  0  0  0  0  0  0  0  0
   32.1703    8.4323    7.2931 C   0  0  0  0  0  0  0  0  0  0  0  0
   32.8896    9.3623    6.6123 C   0  0  0  0  0  0  0  0  0  0  0  0
   32.2818   10.5005    6.7542 N   0  0  0  0  0  0  0  0  0  0  0  0
  1  2  2  0
  2  3  1  0
  2  4  1  0
  4  5  2  0
  5  6  1  0
  6  7  1  0
  7  8  2  0
  8  9  1  0
  9 10  2  0
 10 11  1  0
 11 12  2  0
 12 13  1  0
  5 14  1  0
 14 15  2  0
 15 16  1  0
 16 17  1  0
 17 18  2  0
 18 19  1  0
 19  4  1  0
 12  7  1  0
 19 15  1  0
M  CHG  2   2   1   3  -1
A    1
 O1 
A    2
 N1 
A    3
 O2 
A    4
 C1 
A    5
 C2 
A    6
 O3 
A    7
 C3 
A    8
 C4 
A    9
 C5 
A   10
 C6 
A   11
 C7 
A   12
 C8 
A   13
 O4 
A   14
 N2 
A   15
 C9 
A   16
 S1 
A   17
 C10
A   18
 C11
A   19
 N3 
M  END
>  <ref_pdb>  (872) 
Ax0310a

>  <ref_mols>  (872) 
Ax0446a,Ax1080a,Ax0812a,Ax0719a,Ax1140a,Ax0528a,Ax0310a

>  <original SMILES>  (872) 
O=[N+]([O-])c1c(Oc2ccccc2O)nc2sccn12

>  <rationale>  (872) 
info info set:bb_whole;hbond:S87; hydroph_interaction:Y89+Y90; pistack:H21; 

>  <experiment>  (872) 
bb_whole

>  <cluster_label>  (872) 
3

>  <cluster_rank>  (872) 
529

>  <N_interactions>  (872) 
4

>  <∆∆G>  (872) 
-0.567958

>  <comRMSD>  (872) 
0.683433

>  <ROCS_TanimotoCombo>  (872) 
0.422

>  <ROCS_ShapeTanimoto>  (872) 
0.24

>  <ROCS_ColorTanimoto>  (872) 
0.183

$$$$
EN300_1120784
     RDKit          3D

 16 16  0  0  0  0  0  0  0  0999 V2000
   32.7547   13.1492    3.3925 C   0  0  0  0  0  0  0  0  0  0  0  0
   33.0001   12.2879    4.2171 O   0  0  0  0  0  0  0  0  0  0  0  0
   33.6042   12.7928    5.3184 C   0  0  0  0  0  0  0  0  0  0  0  0
   33.8981   13.9657    5.4817 O   0  0  0  0  0  0  0  0  0  0  0  0
   33.8565   11.7948    6.2270 C   0  0  0  0  0  0  0  0  0  0  0  0
   32.7751   11.0058    6.8318 C   0  0  0  0  0  0  0  0  0  0  0  0
   32.7559    9.6488    6.5719 C   0  0  0  0  0  0  0  0  0  0  0  0
   31.7097    8.6947    7.1734 C   0  0  0  0  0  0  0  0  0  0  0  0
   30.7023    9.3968    8.0358 C   0  0  0  0  0  0  0  0  0  0  0  0
   30.7872   10.8545    8.2501 C   0  0  0  0  0  0  0  0  0  0  0  0
   31.8085   11.5882    7.6636 C   0  0  0  0  0  0  0  0  0  0  0  0
   31.7484   13.0560    8.0478 C   0  0  0  0  0  0  0  0  0  0  0  0
   30.1804   13.8422    8.1097 S   0  0  0  0  0  6  0  0  0  0  0  0
   29.0675   12.7866    8.7222 N   0  0  0  0  0  0  0  0  0  0  0  0
   29.7295   13.9353    6.7482 O   0  0  0  0  0  0  0  0  0  0  0  0
   30.3304   14.9532    9.0247 O   0  0  0  0  0  0  0  0  0  0  0  0
  1  2  1  0
  2  3  1  0
  3  4  2  0
  3  5  1  0
  5  6  1  0
  6  7  2  0
  7  8  1  0
  8  9  2  0
  9 10  1  0
 10 11  2  0
 11 12  1  0
 12 13  1  0
 13 14  1  0
 13 15  2  0
 13 16  2  0
 11  6  1  0
A    1
 C1 
A    2
 O1 
A    3
 C2 
A    4
 O2 
A    5
 C3 
A    6
 C4 
A    7
 C5 
A    8
 C6 
A    9
 C7 
A   10
 C8 
A   11
 C9 
A   12
 C10
A   13
 S1 
A   14
 N1 
A   15
 O3 
A   16
 O4 
M  END
>  <ref_pdb>  (873) 
Ax0310a

>  <ref_mols>  (873) 
Ax0446a,Ax1080a,Ax0812a,Ax0719a,Ax1140a,Ax0528a,Ax0310a

>  <original SMILES>  (873) 
COC(=O)Cc1ccccc1CS(N)(=O)=O

>  <rationale>  (873) 
info info set:sulfonimide_whole;hbond:S87+S125; 

>  <experiment>  (873) 
sulfonimide_whole

>  <cluster_label>  (873) 
3

>  <cluster_rank>  (873) 
530

>  <N_interactions>  (873) 
2

>  <∆∆G>  (873) 
-4.634987

>  <comRMSD>  (873) 
0.801778

>  <ROCS_TanimotoCombo>  (873) 
0.366

>  <ROCS_ShapeTanimoto>  (873) 
0.204

>  <ROCS_ColorTanimoto>  (873) 
0.163

$$$$
Z979002168
     RDKit          3D

 15 15  0  0  0  0  0  0  0  0999 V2000
   35.3046    8.0463    4.5236 C   0  0  0  0  0  0  0  0  0  0  0  0
   34.2552    9.0139    4.3026 N   0  0  0  0  0  0  0  0  0  0  0  0
   34.4047    9.8161    3.1056 C   0  0  0  0  0  0  0  0  0  0  0  0
   33.4098    9.5543    5.3062 C   0  0  0  0  0  0  0  0  0  0  0  0
   33.1786   11.0800    5.2426 C   0  0  0  0  0  0  0  0  0  0  0  0
   32.3021   11.6147    6.1802 C   0  0  0  0  0  0  0  0  0  0  0  0
   31.6534   10.8573    7.1294 C   0  0  0  0  0  0  0  0  0  0  0  0
   30.7440   11.4227    8.0509 C   0  0  0  0  0  0  0  0  0  0  0  0
   30.2733   10.6811    8.8748 O   0  0  0  0  0  0  0  0  0  0  0  0
   30.4598   12.7754    7.9125 N   0  0  0  0  0  0  0  0  0  0  0  0
   29.4694   13.4472    8.7432 C   0  0  0  0  0  0  0  0  0  0  0  0
   28.9018   14.5120    8.0534 C   0  0  0  0  0  0  0  0  0  0  0  0
   28.4708   15.4313    7.5047 N   0  0  0  0  0  0  0  0  0  0  0  0
   31.8930    9.5082    7.1796 C   0  0  0  0  0  0  0  0  0  0  0  0
   32.8017    8.8148    6.2496 N   0  0  0  0  0  0  0  0  0  0  0  0
  1  2  1  0
  2  3  1  0
  2  4  1  0
  4  5  2  0
  5  6  1  0
  6  7  2  0
  7  8  1  0
  8  9  2  0
  8 10  1  0
 10 11  1  0
 11 12  1  0
 12 13  3  0
  7 14  1  0
 14 15  2  0
 15  4  1  0
A    1
 C1 
A    2
 N1 
A    3
 C2 
A    4
 C3 
A    5
 C4 
A    6
 C5 
A    7
 C6 
A    8
 C7 
A    9
 O1 
A   10
 N2 
A   11
 C8 
A   12
 C9 
A   13
 N3 
A   14
 C10
A   15
 N4 
M  END
>  <ref_pdb>  (874) 
Ax0310a

>  <ref_mols>  (874) 
Ax0446a,Ax1080a,Ax0812a,Ax0719a,Ax1140a,Ax0528a,Ax0310a

>  <original SMILES>  (874) 
CN(C)c1ccc(C(=O)NCC#N)cn1

>  <rationale>  (874) 
info info set:screening_pocket;hbond:S87; hydroph_interaction:P107; 

>  <experiment>  (874) 
screening_pocket

>  <cluster_label>  (874) 
3

>  <cluster_rank>  (874) 
531

>  <N_interactions>  (874) 
3

>  <∆∆G>  (874) 
-2.369051

>  <comRMSD>  (874) 
0.717337

>  <ROCS_TanimotoCombo>  (874) 
0.661

>  <ROCS_ShapeTanimoto>  (874) 
0.221

>  <ROCS_ColorTanimoto>  (874) 
0.44

$$$$
EN300_4201159
     RDKit          3D

 14 14  0  0  0  0  0  0  0  0999 V2000
   30.0649   14.1731    8.6964 C   0  0  0  0  0  0  0  0  0  0  0  0
   30.9772   13.5776    7.7573 O   0  0  0  0  0  0  0  0  0  0  0  0
   30.9074   12.2515    7.8361 C   0  0  0  0  0  0  0  0  0  0  0  0
   30.1398   11.6808    8.5768 O   0  0  0  0  0  0  0  0  0  0  0  0
   31.8299   11.4416    6.9647 C   0  0  0  0  0  0  0  0  0  0  0  0
   32.6884   12.0113    5.8313 C   0  0  0  0  0  0  0  0  0  0  0  0
   33.5132   10.8899    5.1317 C   0  0  0  0  0  0  0  0  0  0  0  0
   33.3275    9.4603    5.6839 C   0  0  0  0  0  0  0  0  0  0  0  0
   32.4594    9.1241    6.7785 N   0  0  0  0  0  0  0  0  0  0  0  0
   31.7886   10.1481    7.3233 C   0  0  0  0  0  0  0  0  0  0  0  0
   30.9401    9.9923    8.3640 N   0  0  0  0  0  0  0  0  0  0  0  0
   30.2229    8.8533    8.3051 C   0  0  0  0  0  0  0  0  0  0  0  0
   30.7527    7.9534    9.2867 C   0  0  0  0  0  0  0  0  0  0  0  0
   28.8175    9.1647    8.6012 C   0  0  0  0  0  0  0  0  0  0  0  0
  1  2  1  0
  2  3  1  0
  3  4  2  0
  3  5  1  0
  5  6  2  0
  6  7  1  0
  7  8  2  0
  8  9  1  0
  9 10  2  0
 10 11  1  0
 11 12  1  0
 12 13  1  0
 12 14  1  0
 10  5  1  0
A    1
 C1 
A    2
 O1 
A    3
 C2 
A    4
 O2 
A    5
 C3 
A    6
 C4 
A    7
 C5 
A    8
 C6 
A    9
 N1 
A   10
 C7 
A   11
 N2 
A   12
 C8 
A   13
 C9 
A   14
 C10
M  END
>  <ref_pdb>  (875) 
Ax0310a

>  <ref_mols>  (875) 
Ax0446a,Ax1080a,Ax0812a,Ax0719a,Ax1140a,Ax0528a,Ax0310a

>  <original SMILES>  (875) 
COC(=O)c1cccnc1NC(C)C

>  <rationale>  (875) 
info info set:bb_densepocket2;hbond:S125; hydroph_interaction:P107; 

>  <experiment>  (875) 
bb_densepocket2

>  <cluster_label>  (875) 
3

>  <cluster_rank>  (875) 
532

>  <N_interactions>  (875) 
2

>  <∆∆G>  (875) 
-3.450314

>  <comRMSD>  (875) 
0.901141

>  <ROCS_TanimotoCombo>  (875) 
0.671

>  <ROCS_ShapeTanimoto>  (875) 
0.228

>  <ROCS_ColorTanimoto>  (875) 
0.442

$$$$
Z220639108
     RDKit          3D

 14 14  0  0  0  0  0  0  0  0999 V2000
   33.4161   13.5275    8.6370 C   0  0  0  0  0  0  0  0  0  0  0  0
   31.9488   13.8246    8.6264 C   0  0  0  0  0  0  0  0  0  0  0  0
   31.5430   14.8424    9.5513 O   0  0  0  0  0  0  0  0  0  0  0  0
   31.1650   13.0621    7.6703 N   0  0  0  0  0  0  0  0  0  0  0  0
   29.8227   13.4504    7.4312 C   0  0  0  0  0  0  0  0  0  0  0  0
   31.4775   11.7748    7.4420 C   0  0  0  0  0  0  0  0  0  0  0  0
   30.6684   10.6488    7.9548 C   0  0  0  0  0  0  0  0  0  0  0  0
   31.0832    9.2813    7.6593 C   0  0  0  0  0  0  0  0  0  0  0  0
   32.2121    8.9880    6.9063 C   0  0  0  0  0  0  0  0  0  0  0  0
   33.0525    9.9799    6.3708 C   0  0  0  0  0  0  0  0  0  0  0  0
   32.7296   11.3136    6.6155 C   0  0  0  0  0  0  0  0  0  0  0  0
   33.7915   12.1979    5.9574 C   0  0  0  0  0  0  0  0  0  0  0  0
   33.6793   13.5114    5.6517 O   0  0  0  0  0  0  0  0  0  0  0  0
   34.9362   11.5404    5.6990 O   0  0  0  0  0  0  0  0  0  0  0  0
  1  2  1  0
  2  3  2  0
  2  4  1  0
  4  5  1  0
  4  6  1  0
  6  7  2  0
  7  8  1  0
  8  9  2  0
  9 10  1  0
 10 11  2  0
 11 12  1  0
 12 13  2  0
 12 14  1  0
 11  6  1  0
A    1
 C1 
A    2
 C2 
A    3
 O1 
A    4
 N1 
A    5
 C3 
A    6
 C4 
A    7
 C5 
A    8
 C6 
A    9
 C7 
A   10
 C8 
A   11
 C9 
A   12
 C10
A   13
 O2 
A   14
 O3 
M  END
>  <ref_pdb>  (876) 
Ax0310a

>  <ref_mols>  (876) 
Ax0446a,Ax1080a,Ax0812a,Ax0719a,Ax1140a,Ax0528a,Ax0310a

>  <original SMILES>  (876) 
CC(=O)N(C)c1ccccc1C(=O)O

>  <rationale>  (876) 
info info set:3d;hbond:S87; hydroph_interaction:V84; 

>  <experiment>  (876) 
3d

>  <cluster_label>  (876) 
3

>  <cluster_rank>  (876) 
533

>  <N_interactions>  (876) 
2

>  <∆∆G>  (876) 
-7.571795

>  <comRMSD>  (876) 
0.666013

>  <ROCS_TanimotoCombo>  (876) 
0.314

>  <ROCS_ShapeTanimoto>  (876) 
0.198

>  <ROCS_ColorTanimoto>  (876) 
0.115

$$$$
Z1486705591
     RDKit          3D

 13 14  0  0  0  0  0  0  0  0999 V2000
   29.0439   13.0065    8.4569 C   0  0  0  0  0  0  0  0  0  0  0  0
   30.5156   13.1041    7.4787 S   0  0  0  0  0  6  0  0  0  0  0  0
   31.4574   13.8561    8.2761 O   0  0  0  0  0  0  0  0  0  0  0  0
   30.0658   13.5678    6.1870 O   0  0  0  0  0  0  0  0  0  0  0  0
   31.1635   11.5713    7.2308 N   0  0  0  0  0  0  0  0  0  0  0  0
   30.5329   10.6408    8.0294 C   0  0  0  0  0  0  0  0  0  0  0  0
   30.9801    9.1639    8.0385 C   0  0  0  0  0  0  0  0  0  0  0  0
   32.2175    8.8897    7.3975 O   0  0  0  0  0  0  0  0  0  0  0  0
   32.7791    9.8731    6.5083 C   0  0  0  0  0  0  0  0  0  0  0  0
   32.4402   11.3677    6.7021 C   0  0  0  0  0  0  0  0  0  0  0  0
   33.2474   12.5440    7.4024 C   0  0  0  0  0  0  0  0  0  0  0  0
   33.7529   12.9191    6.2050 C   0  0  0  0  0  0  0  0  0  0  0  0
   32.8847   12.0670    5.3220 C   0  0  0  0  0  0  0  0  0  0  0  0
  1  2  1  0
  2  3  2  0
  2  4  2  0
  2  5  1  0
  5  6  1  0
  6  7  1  0
  7  8  1  0
  8  9  1  0
  9 10  1  0
 10 11  1  0
 11 12  1  0
 12 13  1  0
 10  5  1  0
 13 10  1  0
A    1
 C1 
A    2
 S1 
A    3
 O1 
A    4
 O2 
A    5
 N1 
A    6
 C2 
A    7
 C3 
A    8
 O3 
A    9
 C4 
A   10
 C5 
A   11
 C6 
A   12
 C7 
A   13
 C8 
M  END
>  <ref_pdb>  (877) 
Ax0310a

>  <ref_mols>  (877) 
Ax0446a,Ax1080a,Ax0812a,Ax0719a,Ax1140a,Ax0528a,Ax0310a

>  <original SMILES>  (877) 
CS(=O)(=O)N1CCOCC12CCC2

>  <rationale>  (877) 
info info set:3d;hbond:S87; hydroph_interaction:P107; 

>  <experiment>  (877) 
3d

>  <cluster_label>  (877) 
3

>  <cluster_rank>  (877) 
534

>  <N_interactions>  (877) 
2

>  <∆∆G>  (877) 
-1.578178

>  <comRMSD>  (877) 
0.726284

>  <ROCS_TanimotoCombo>  (877) 
0.327

>  <ROCS_ShapeTanimoto>  (877) 
0.193

>  <ROCS_ColorTanimoto>  (877) 
0.134

$$$$
EN300_197137
     RDKit          3D

 13 14  0  0  0  0  0  0  0  0999 V2000
   34.7854   13.9026    8.1846 N   0  0  0  0  0  0  0  0  0  0  0  0
   33.9709   13.6469    6.7457 S   0  0  0  0  0  6  0  0  0  0  0  0
   34.7513   12.6795    6.0425 O   0  0  0  0  0  0  0  0  0  0  0  0
   33.7668   14.8898    6.1159 O   0  0  0  0  0  0  0  0  0  0  0  0
   32.5079   12.8198    7.3507 C   0  0  0  0  0  0  0  0  0  0  0  0
   31.3974   13.5137    8.1368 C   0  0  0  0  0  0  0  0  0  0  0  0
   30.2251   12.7196    8.5851 C   0  0  0  0  0  0  0  0  0  0  0  0
   30.2577   11.2663    8.2491 C   0  0  0  0  0  0  0  0  0  0  0  0
   31.2121   10.5498    7.5681 C   0  0  0  0  0  0  0  0  0  0  0  0
   31.2397    9.2980    7.2965 N   0  0  0  0  0  0  0  0  0  0  0  0
   32.6406    9.0768    6.4373 S   0  0  0  0  0  0  0  0  0  0  0  0
   33.2865   10.5888    6.3834 N   0  0  0  0  0  0  0  0  0  0  0  0
   32.4253   11.3367    7.0497 C   0  0  0  0  0  0  0  0  0  0  0  0
  1  2  1  0
  2  3  2  0
  2  4  2  0
  2  5  1  0
  5  6  2  0
  6  7  1  0
  7  8  2  0
  8  9  1  0
  9 10  2  0
 10 11  1  0
 11 12  1  0
 12 13  2  0
 13  5  1  0
 13  9  1  0
A    1
 N1 
A    2
 S1 
A    3
 O1 
A    4
 O2 
A    5
 C1 
A    6
 C2 
A    7
 C3 
A    8
 C4 
A    9
 C5 
A   10
 N2 
A   11
 S2 
A   12
 N3 
A   13
 C6 
M  END
>  <ref_pdb>  (878) 
Ax0310a

>  <ref_mols>  (878) 
Ax0446a,Ax1080a,Ax0812a,Ax0719a,Ax1140a,Ax0528a,Ax0310a

>  <original SMILES>  (878) 
NS(=O)(=O)c1cccc2nsnc12

>  <rationale>  (878) 
info info set:sulfonimide_whole;hbond:G127+E85; 

>  <experiment>  (878) 
sulfonimide_whole

>  <cluster_label>  (878) 
3

>  <cluster_rank>  (878) 
535

>  <N_interactions>  (878) 
2

>  <∆∆G>  (878) 
-2.271753

>  <comRMSD>  (878) 
0.732972

>  <ROCS_TanimotoCombo>  (878) 
0.325

>  <ROCS_ShapeTanimoto>  (878) 
0.172

>  <ROCS_ColorTanimoto>  (878) 
0.153

$$$$
EN300_202088
     RDKit          3D

 15 15  0  0  0  0  0  0  0  0999 V2000
   28.7448   13.0560    7.8809 C   0  0  0  0  0  0  0  0  0  0  0  0
   30.0128   12.6111    7.3681 O   0  0  0  0  0  0  0  0  0  0  0  0
   30.4327   11.4357    7.8939 C   0  0  0  0  0  0  0  0  0  0  0  0
   30.0305   10.8855    8.8531 O   0  0  0  0  0  0  0  0  0  0  0  0
   31.4787   10.7870    7.1440 C   0  0  0  0  0  0  0  0  0  0  0  0
   32.3631   11.5886    6.2299 C   0  0  0  0  0  0  0  0  0  0  0  0
   33.3961   10.6633    5.5335 C   0  0  0  0  0  0  0  0  0  0  0  0
   34.1713   11.7149    4.6574 C   0  0  0  0  0  0  0  0  0  0  0  0
   33.8859   11.5709    3.3397 F   0  0  0  0  0  0  0  0  0  0  0  0
   33.8969   13.0096    4.9717 F   0  0  0  0  0  0  0  0  0  0  0  0
   35.5200   11.5771    4.7605 F   0  0  0  0  0  0  0  0  0  0  0  0
   33.4596    9.3241    5.7518 C   0  0  0  0  0  0  0  0  0  0  0  0
   32.6042    8.7148    6.6117 N   0  0  0  0  0  0  0  0  0  0  0  0
   31.6553    9.4158    7.2774 C   0  0  0  0  0  0  0  0  0  0  0  0
   30.8478    8.6609    8.1218 N   0  0  0  0  0  0  0  0  0  0  0  0
  1  2  1  0
  2  3  1  0
  3  4  2  0
  3  5  1  0
  5  6  2  0
  6  7  1  0
  7  8  1  0
  8  9  1  0
  8 10  1  0
  8 11  1  0
  7 12  2  0
 12 13  1  0
 13 14  2  0
 14 15  1  0
 14  5  1  0
A    1
 C1 
A    2
 O1 
A    3
 C2 
A    4
 O2 
A    5
 C3 
A    6
 C4 
A    7
 C5 
A    8
 C6 
A    9
 F1 
A   10
 F2 
A   11
 F3 
A   12
 C7 
A   13
 N1 
A   14
 C8 
A   15
 N2 
M  END
>  <ref_pdb>  (879) 
Ax0310a

>  <ref_mols>  (879) 
Ax0446a,Ax1080a,Ax0812a,Ax0719a,Ax1140a,Ax0528a,Ax0310a

>  <original SMILES>  (879) 
COC(=O)c1cc(C(F)(F)F)cnc1N

>  <rationale>  (879) 
info info set:bb_densepocket2;hbond:S105; hydroph_interaction:P107; 

>  <experiment>  (879) 
bb_densepocket2

>  <cluster_label>  (879) 
3

>  <cluster_rank>  (879) 
536

>  <N_interactions>  (879) 
2

>  <∆∆G>  (879) 
-2.923262

>  <comRMSD>  (879) 
0.466668

>  <ROCS_TanimotoCombo>  (879) 
0.629

>  <ROCS_ShapeTanimoto>  (879) 
0.256

>  <ROCS_ColorTanimoto>  (879) 
0.373

$$$$
EN300_801351
     RDKit          3D

 18 19  0  0  0  0  0  0  0  0999 V2000
   34.6868    7.4353    3.3728 C   0  0  0  0  0  0  0  0  0  0  0  0
   34.5912    8.1107    4.6153 O   0  0  0  0  0  0  0  0  0  0  0  0
   34.1717    9.3803    4.5785 C   0  0  0  0  0  0  0  0  0  0  0  0
   34.7227   10.2785    3.5033 C   0  0  0  0  0  0  0  0  0  0  0  0
   34.2481   11.7438    3.4609 C   0  0  0  0  0  0  0  0  0  0  0  0
   33.2646   12.3122    4.4515 C   0  0  0  0  0  0  0  0  0  0  0  0
   32.8903   11.1448    5.4097 C   0  0  0  0  0  0  0  0  0  0  0  0
   31.9206   11.7307    6.3621 C   0  0  0  0  0  0  0  0  0  0  0  0
   31.1631   11.1339    7.5217 C   0  0  0  0  0  0  0  0  0  0  0  0
   30.2743   11.7894    8.3296 O   0  0  0  0  0  0  0  0  0  0  0  0
   31.7232    9.8056    7.3533 C   0  0  0  0  0  0  0  0  0  0  0  0
   31.2687    8.6879    8.2694 C   0  0  0  0  0  0  0  0  0  0  0  0
   30.0874    8.7153    8.9413 C   0  0  0  0  0  0  0  0  0  0  0  0
   29.2191    7.6171    8.6367 C   0  0  0  0  0  0  0  0  0  0  0  0
   29.1718    9.9094    8.8852 C   0  0  0  0  0  0  0  0  0  0  0  0
   30.0324    7.9046   10.2059 C   0  0  0  0  0  0  0  0  0  0  0  0
   32.6410    9.2307    6.4886 N   0  0  0  0  0  0  0  0  0  0  0  0
   33.2455    9.8665    5.5045 C   0  0  0  0  0  0  0  0  0  0  0  0
  1  2  1  0
  2  3  1  0
  3  4  2  0
  4  5  1  0
  5  6  2  0
  6  7  1  0
  7  8  2  0
  8  9  1  0
  9 10  1  0
  9 11  2  0
 11 12  1  0
 12 13  1  0
 13 14  1  0
 13 15  1  0
 13 16  1  0
 11 17  1  0
 17 18  2  0
 18  3  1  0
 18  7  1  0
A    1
 C1 
A    2
 O1 
A    3
 C2 
A    4
 C3 
A    5
 C4 
A    6
 C5 
A    7
 C6 
A    8
 C7 
A    9
 C8 
A   10
 O2 
A   11
 C9 
A   12
 C10
A   13
 C11
A   14
 C12
A   15
 C13
A   16
 C14
A   17
 N1 
A   18
 C15
M  END
>  <ref_pdb>  (880) 
Ax0310a

>  <ref_mols>  (880) 
Ax0446a,Ax1080a,Ax0812a,Ax0719a,Ax1140a,Ax0528a,Ax0310a

>  <original SMILES>  (880) 
COc1cccc2cc(O)c(CC(C)(C)C)nc12

>  <rationale>  (880) 
info info set:bb_densepocket2;hbond:S125; hydroph_interaction:P107+V124+D109; 

>  <experiment>  (880) 
bb_densepocket2

>  <cluster_label>  (880) 
3

>  <cluster_rank>  (880) 
537

>  <N_interactions>  (880) 
4

>  <∆∆G>  (880) 
-6.973697

>  <comRMSD>  (880) 
0.963702

>  <ROCS_TanimotoCombo>  (880) 
0.612

>  <ROCS_ShapeTanimoto>  (880) 
0.242

>  <ROCS_ColorTanimoto>  (880) 
0.369

$$$$
Z5698504955
     RDKit          3D

 18 19  0  0  0  0  0  0  0  0999 V2000
   30.7048    8.5388    9.2309 C   0  0  0  0  0  0  0  0  0  0  0  0
   30.1785    9.3895    8.1040 C   0  0  0  0  0  0  0  0  0  0  0  0
   31.3300    9.9129    7.2250 C   0  0  0  0  0  0  0  0  0  0  0  0
   32.2316    8.8635    6.9460 N   0  0  0  0  0  0  0  0  0  0  0  0
   33.3146    9.1583    6.1418 C   0  0  0  0  0  0  0  0  0  0  0  0
   33.7532   10.4882    5.4562 C   0  0  0  0  0  0  0  0  0  0  0  0
   35.1123   10.7949    4.4628 Cl  0  0  0  0  0  0  0  0  0  0  0  0
   32.6844   11.5113    5.8604 C   0  0  0  0  0  0  0  0  0  0  0  0
   31.4958   11.1806    6.7374 C   0  0  0  0  0  0  0  0  0  0  0  0
   30.6827   12.1830    6.9599 N   0  0  0  0  0  0  0  0  0  0  0  0
   30.2579   12.4156    8.2646 C   0  0  1  0  0  0  0  0  0  0  0  0
   30.7344   13.6181    8.7157 C   0  0  0  0  0  0  0  0  0  0  0  0
   29.6936   14.6655    9.0620 C   0  0  0  0  0  0  0  0  0  0  0  0
   28.4352   14.6676    8.4725 C   0  0  1  0  0  0  0  0  0  0  0  0
   28.4278   15.7191    7.6113 O   0  0  0  0  0  0  0  0  0  0  0  0
   28.8367   16.7824    8.3327 C   0  0  0  0  0  0  0  0  0  0  0  0
   28.2923   13.5311    7.5430 C   0  0  0  0  0  0  0  0  0  0  0  0
   28.7733   12.4442    8.1408 C   0  0  0  0  0  0  0  0  0  0  0  0
  1  2  3  0
  2  3  1  0
  3  4  2  0
  4  5  1  0
  5  6  2  0
  6  7  1  0
  6  8  1  0
  8  9  2  0
  9 10  1  0
 11 10  1  6
 11 12  1  0
 12 13  1  0
 13 14  1  0
 14 15  1  6
 15 16  1  0
 14 17  1  0
 17 18  1  0
  9  3  1  0
 18 11  1  0
A    1
 C1 
A    2
 C2 
A    3
 C3 
A    4
 N1 
A    5
 C4 
A    6
 C5 
A    7
CL1 
A    8
 C6 
A    9
 C7 
A   10
 N2 
A   11
 C8 
A   12
 C9 
A   13
 C10
A   14
 C11
A   15
 O1 
A   16
 C12
A   17
 C13
A   18
 C14
M  END
>  <ref_pdb>  (881) 
Ax0310a

>  <ref_mols>  (881) 
Ax0446a,Ax1080a,Ax0812a,Ax0719a,Ax1140a,Ax0528a,Ax0310a

>  <original SMILES>  (881) 
C#Cc1ncc(Cl)cc1N[C@H]1CC[C@@H](OC)CC1

>  <rationale>  (881) 
info info set:screening_pocket;hydroph_interaction:P107+V124; 

>  <experiment>  (881) 
screening_pocket

>  <cluster_label>  (881) 
3

>  <cluster_rank>  (881) 
538

>  <N_interactions>  (881) 
2

>  <∆∆G>  (881) 
-0.426994

>  <comRMSD>  (881) 
0.836246

>  <ROCS_TanimotoCombo>  (881) 
0.695

>  <ROCS_ShapeTanimoto>  (881) 
0.255

>  <ROCS_ColorTanimoto>  (881) 
0.441

$$$$
Z1613943598
     RDKit          3D

 24 26  0  0  0  0  0  0  0  0999 V2000
   28.6346   14.1384    4.7547 C   0  0  0  0  0  0  0  0  0  0  0  0
   28.7097   13.6376    6.0789 N   0  0  0  0  0  0  0  0  0  0  0  0
   29.7291   12.7596    6.3762 C   0  0  0  0  0  0  0  0  0  0  0  0
   29.5719   12.5622    7.7376 N   0  0  0  0  0  0  0  0  0  0  0  0
   30.7695   12.3361    8.2196 C   0  0  0  0  0  0  0  0  0  0  0  0
   31.2892   13.0631    9.0087 O   0  0  0  0  0  0  0  0  0  0  0  0
   31.3643   11.0555    7.5851 C   0  0  0  0  0  0  0  0  0  0  0  0
   32.5167   11.5763    6.7188 C   0  0  0  0  0  0  0  0  0  0  0  0
   32.9696   10.3345    6.1883 N   0  0  0  0  0  0  0  0  0  0  0  0
   34.0821   10.1616    5.2569 C   0  0  0  0  0  0  0  0  0  0  0  0
   35.0319   11.2488    4.7541 C   0  0  0  0  0  0  0  0  0  0  0  0
   36.0888   10.7192    3.7769 C   0  0  0  0  0  0  0  0  0  0  0  0
   36.1587    9.2422    3.3690 C   0  0  0  0  0  0  0  0  0  0  0  0
   35.2116    8.4016    3.9333 C   0  0  0  0  0  0  0  0  0  0  0  0
   34.2578    8.8958    4.8171 C   0  0  0  0  0  0  0  0  0  0  0  0
   32.2387    9.2665    6.6476 N   0  0  0  0  0  0  0  0  0  0  0  0
   31.2622    9.7110    7.4923 C   0  0  0  0  0  0  0  0  0  0  0  0
   30.2775    8.8616    8.1809 C   0  0  0  0  0  0  0  0  0  0  0  0
   28.8163    8.9167    8.2790 C   0  0  0  0  0  0  0  0  0  0  0  0
   30.6019    7.5502    8.4852 C   0  0  0  0  0  0  0  0  0  0  0  0
   30.2296    9.3115    9.5093 C   0  0  0  0  0  0  0  0  0  0  0  0
   28.4536   13.3575    8.2552 C   0  0  0  0  0  0  0  0  0  0  0  0
   28.4758   14.3291    7.2476 C   0  0  0  0  0  0  0  0  0  0  0  0
   28.3723   15.5245    7.3849 O   0  0  0  0  0  0  0  0  0  0  0  0
  1  2  1  0
  2  3  1  0
  3  4  1  0
  4  5  1  0
  5  6  2  0
  5  7  1  0
  7  8  2  0
  8  9  1  0
  9 10  1  0
 10 11  2  0
 11 12  1  0
 12 13  2  0
 13 14  1  0
 14 15  2  0
  9 16  1  0
 16 17  2  0
 17 18  1  0
 18 19  1  0
 18 20  1  0
 18 21  1  0
  4 22  1  0
 22 23  1  0
 23 24  2  0
 23  2  1  0
 17  7  1  0
 15 10  1  0
A    1
 C1 
A    2
 N1 
A    3
 C2 
A    4
 N2 
A    5
 C3 
A    6
 O1 
A    7
 C4 
A    8
 C5 
A    9
 N3 
A   10
 C6 
A   11
 C7 
A   12
 C8 
A   13
 C9 
A   14
 C10
A   15
 C11
A   16
 N4 
A   17
 C12
A   18
 C13
A   19
 C14
A   20
 C15
A   21
 C16
A   22
 C17
A   23
 C18
A   24
 O2 
M  END
>  <ref_pdb>  (882) 
Ax0310a

>  <ref_mols>  (882) 
Ax0446a,Ax1080a,Ax0812a,Ax0719a,Ax1140a,Ax0528a,Ax0310a

>  <original SMILES>  (882) 
CN1CN(C(=O)c2cn(-c3ccccc3)nc2C(C)(C)C)CC1=O

>  <rationale>  (882) 
info info set:screening_pocket;hbond:S87+G127; hydroph_interaction:V124+D109; 

>  <experiment>  (882) 
screening_pocket

>  <cluster_label>  (882) 
3

>  <cluster_rank>  (882) 
539

>  <N_interactions>  (882) 
4

>  <∆∆G>  (882) 
-6.430123

>  <comRMSD>  (882) 
0.800565

>  <ROCS_TanimotoCombo>  (882) 
0.628

>  <ROCS_ShapeTanimoto>  (882) 
0.292

>  <ROCS_ColorTanimoto>  (882) 
0.336

$$$$
Z965642156
     RDKit          3D

 26 28  0  0  0  0  0  0  0  0999 V2000
   31.5966   15.9480   10.0897 C   0  0  0  0  0  0  0  0  0  0  0  0
   31.3095   14.8653    9.1891 O   0  0  0  0  0  0  0  0  0  0  0  0
   30.0145   14.7224    8.7629 C   0  0  0  0  0  0  0  0  0  0  0  0
   29.0063   15.5608    9.0798 C   0  0  0  0  0  0  0  0  0  0  0  0
   27.6425   15.3405    8.6048 C   0  0  0  0  0  0  0  0  0  0  0  0
   27.3699   14.2478    7.7958 C   0  0  0  0  0  0  0  0  0  0  0  0
   26.1796   13.8658    7.2520 C   0  0  0  0  0  0  0  0  0  0  0  0
   28.3874   13.4453    7.4820 C   0  0  0  0  0  0  0  0  0  0  0  0
   29.6609   13.6574    7.9294 C   0  0  0  0  0  0  0  0  0  0  0  0
   30.4866   12.7155    7.4523 C   0  0  0  0  0  0  0  0  0  0  0  0
   31.1391   12.9601    6.4481 O   0  0  0  0  0  0  0  0  0  0  0  0
   30.4433   11.5224    8.0980 C   0  0  0  0  0  0  0  0  0  0  0  0
   31.3811   10.6559    7.5117 N   0  0  0  0  0  0  0  0  0  0  0  0
   31.3160    9.3199    7.5721 C   0  0  0  0  0  0  0  0  0  0  0  0
   30.0656    8.6067    8.4583 Cl  0  0  0  0  0  0  0  0  0  0  0  0
   32.2754    8.7182    6.9102 N   0  0  0  0  0  0  0  0  0  0  0  0
   33.0059    9.7724    6.4169 C   0  0  0  0  0  0  0  0  0  0  0  0
   32.4930   10.9520    6.8070 C   0  0  0  0  0  0  0  0  0  0  0  0
   33.2333   12.0331    6.3798 C   0  0  0  0  0  0  0  0  0  0  0  0
   32.8185   13.0292    6.9798 O   0  0  0  0  0  0  0  0  0  0  0  0
   34.1170   12.3021    5.7437 N   0  0  0  0  0  0  0  0  0  0  0  0
   34.9967   13.3656    6.2060 C   0  0  0  0  0  0  0  0  0  0  0  0
   34.7758   11.1158    5.3053 C   0  0  0  0  0  0  0  0  0  0  0  0
   35.8473   11.1565    4.6949 O   0  0  0  0  0  0  0  0  0  0  0  0
   34.1645    9.8571    5.6058 N   0  0  0  0  0  0  0  0  0  0  0  0
   34.7276    8.7222    4.9234 C   0  0  0  0  0  0  0  0  0  0  0  0
  1  2  1  0
  2  3  1  0
  3  4  2  0
  4  5  1  0
  5  6  2  0
  6  7  1  0
  6  8  1  0
  8  9  2  0
  9 10  1  0
 10 11  2  0
 10 12  1  0
 12 13  1  0
 13 14  1  0
 14 15  1  0
 14 16  2  0
 16 17  1  0
 17 18  2  0
 18 19  1  0
 19 20  2  0
 19 21  1  0
 21 22  1  0
 21 23  1  0
 23 24  2  0
 23 25  1  0
 25 26  1  0
  9  3  1  0
 18 13  1  0
 25 17  1  0
A    1
 C1 
A    2
 O1 
A    3
 C2 
A    4
 C3 
A    5
 C4 
A    6
 C5 
A    7
 C6 
A    8
 C7 
A    9
 C8 
A   10
 C9 
A   11
 O2 
A   12
 C10
A   13
 N1 
A   14
 C11
A   15
CL1 
A   16
 N2 
A   17
 C12
A   18
 C13
A   19
 C14
A   20
 O3 
A   21
 N3 
A   22
 C15
A   23
 C16
A   24
 O4 
A   25
 N4 
A   26
 C17
M  END
>  <ref_pdb>  (883) 
Ax0310a

>  <ref_mols>  (883) 
Ax0446a,Ax1080a,Ax0812a,Ax0719a,Ax1140a,Ax0528a,Ax0310a

>  <original SMILES>  (883) 
COc1ccc(C)cc1C(=O)Cn1c(Cl)nc2c1c(=O)n(C)c(=O)n2C

>  <rationale>  (883) 
info info set:screening_whole;hbond:S87+G127; hydroph_interaction:Y89+Y90; 

>  <experiment>  (883) 
screening_whole

>  <cluster_label>  (883) 
3

>  <cluster_rank>  (883) 
540

>  <N_interactions>  (883) 
5

>  <∆∆G>  (883) 
-4.437434

>  <comRMSD>  (883) 
0.779132

>  <ROCS_TanimotoCombo>  (883) 
0.465

>  <ROCS_ShapeTanimoto>  (883) 
0.278

>  <ROCS_ColorTanimoto>  (883) 
0.187

$$$$
Z1868460493
     RDKit          3D

 14 16  0  0  0  0  0  0  0  0999 V2000
   33.7543    9.4268    6.2500 O   0  0  0  0  0  0  0  0  0  0  0  0
   32.7792   10.1793    6.9393 C   0  0  0  0  0  0  0  0  0  0  0  0
   31.7468    9.6585    7.8590 N   0  0  0  0  0  0  0  0  0  0  0  0
   30.6991   10.4352    7.8031 C   0  0  0  0  0  0  0  0  0  0  0  0
   29.3294    9.9997    8.3214 C   0  0  0  0  0  0  0  0  0  0  0  0
   28.2497   11.1241    8.0626 C   0  0  0  0  0  0  0  0  0  0  0  0
   28.5985   12.4615    7.3830 C   0  0  0  0  0  0  0  0  0  0  0  0
   30.0248   12.7792    6.9294 C   0  0  0  0  0  0  0  0  0  0  0  0
   31.0759   11.7466    7.1570 C   0  0  0  0  0  0  0  0  0  0  0  0
   32.5567   11.7523    6.8694 C   0  0  1  0  0  0  0  0  0  0  0  0
   33.3264   12.8077    7.6375 C   0  0  0  0  0  0  0  0  0  0  0  0
   34.1150   13.4672    6.5643 C   0  0  0  0  0  0  0  0  0  0  0  0
   33.4790   13.0971    5.3336 O   0  0  0  0  0  0  0  0  0  0  0  0
   32.4894   12.3562    5.4953 C   0  0  0  0  0  0  0  0  0  0  0  0
  1  2  2  0
  2  3  1  0
  3  4  1  0
  4  5  2  0
  5  6  1  0
  6  7  2  0
  7  8  1  0
  8  9  2  0
  9 10  1  0
 10 11  1  1
 11 12  1  0
 12 13  1  0
 13 14  1  0
 10  2  1  0
  9  4  1  0
 14 10  1  0
A    1
 O1 
A    2
 C1 
A    3
 N1 
A    4
 C2 
A    5
 C3 
A    6
 C4 
A    7
 C5 
A    8
 C6 
A    9
 C7 
A   10
 C8 
A   11
 C9 
A   12
 C10
A   13
 O2 
A   14
 C11
M  END
>  <ref_pdb>  (884) 
Ax0310a

>  <ref_mols>  (884) 
Ax0446a,Ax1080a,Ax0812a,Ax0719a,Ax1140a,Ax0528a,Ax0310a

>  <original SMILES>  (884) 
O=C1Nc2ccccc2[C@@]12CCOC2

>  <rationale>  (884) 
info info set:3d;hbond:S105; 

>  <experiment>  (884) 
3d

>  <cluster_label>  (884) 
3

>  <cluster_rank>  (884) 
541

>  <N_interactions>  (884) 
1

>  <∆∆G>  (884) 
-2.287223

>  <comRMSD>  (884) 
0.916211

>  <ROCS_TanimotoCombo>  (884) 
0.319

>  <ROCS_ShapeTanimoto>  (884) 
0.203

>  <ROCS_ColorTanimoto>  (884) 
0.116

$$$$
Z1695809018
     RDKit          3D

 18 18  0  0  0  0  0  0  0  0999 V2000
   27.0569   13.6735    6.0697 C   0  0  0  0  0  0  0  0  0  0  0  0
   27.6992   14.2236    7.3557 C   0  0  0  0  0  0  0  0  0  0  0  0
   28.3512   15.5127    7.2589 O   0  0  0  0  0  0  0  0  0  0  0  0
   27.6880   13.5358    8.4704 N   0  0  0  0  0  0  0  0  0  0  0  0
   27.1769   12.2877    8.4596 C   0  0  0  0  0  0  0  0  0  0  0  0
   28.9251   13.7425    8.9772 C   0  0  0  0  0  0  0  0  0  0  0  0
   30.1519   12.9078    8.5382 C   0  0  0  0  0  0  0  0  0  0  0  0
   31.3020   13.2883    8.6790 O   0  0  0  0  0  0  0  0  0  0  0  0
   29.8704   11.6941    7.9783 N   0  0  0  0  0  0  0  0  0  0  0  0
   30.9667   11.0028    7.3426 C   0  0  0  0  0  0  0  0  0  0  0  0
   31.8778   11.7965    6.4299 C   0  0  0  0  0  0  0  0  0  0  0  0
   32.9702   10.9676    5.7988 C   0  0  0  0  0  0  0  0  0  0  0  0
   34.0652   11.7727    4.7342 Cl  0  0  0  0  0  0  0  0  0  0  0  0
   33.1490    9.6084    6.0144 C   0  0  0  0  0  0  0  0  0  0  0  0
   34.1894    8.9501    5.3754 C   0  0  0  0  0  0  0  0  0  0  0  0
   32.2116    9.0286    6.9055 C   0  0  0  0  0  0  0  0  0  0  0  0
   31.1684    9.6665    7.5494 C   0  0  0  0  0  0  0  0  0  0  0  0
   29.9881    8.7508    8.7096 Br  0  0  0  0  0  0  0  0  0  0  0  0
  1  2  1  0
  2  3  2  0
  2  4  1  0
  4  5  1  0
  4  6  1  0
  6  7  1  0
  7  8  2  0
  7  9  1  0
  9 10  1  0
 10 11  2  0
 11 12  1  0
 12 13  1  0
 12 14  2  0
 14 15  1  0
 14 16  1  0
 16 17  2  0
 17 18  1  0
 17 10  1  0
A    1
 C1 
A    2
 C2 
A    3
 O1 
A    4
 N1 
A    5
 C3 
A    6
 C4 
A    7
 C5 
A    8
 O2 
A    9
 N2 
A   10
 C6 
A   11
 C7 
A   12
 C8 
A   13
CL1 
A   14
 C9 
A   15
 C10
A   16
 C11
A   17
 C12
A   18
BR1 
M  END
>  <ref_pdb>  (885) 
Ax0310a

>  <ref_mols>  (885) 
Ax0446a,Ax1080a,Ax0812a,Ax0719a,Ax1140a,Ax0528a,Ax0310a

>  <original SMILES>  (885) 
CC(=O)N(C)CC(=O)Nc1cc(Cl)c(C)cc1Br

>  <rationale>  (885) 
info info set:screening_pocket;hbond:S87+Y90; hydroph_interaction:P107+Y89; 

>  <experiment>  (885) 
screening_pocket

>  <cluster_label>  (885) 
3

>  <cluster_rank>  (885) 
542

>  <N_interactions>  (885) 
4

>  <∆∆G>  (885) 
-9.345993

>  <comRMSD>  (885) 
0.524964

>  <ROCS_TanimotoCombo>  (885) 
0.63

>  <ROCS_ShapeTanimoto>  (885) 
0.244

>  <ROCS_ColorTanimoto>  (885) 
0.387

$$$$
EN300_28332945
     RDKit          3D

 13 14  0  0  0  0  0  0  0  0999 V2000
   29.3044   12.1452    8.3468 N   0  0  0  0  0  0  0  0  0  0  0  0
   30.6276   12.8343    7.6311 S   0  0  0  0  0  6  0  0  0  0  0  0
   31.3209   13.5882    8.6515 O   0  0  0  0  0  0  0  0  0  0  0  0
   30.0926   13.4377    6.4377 O   0  0  0  0  0  0  0  0  0  0  0  0
   31.5909   11.4318    7.1502 C   0  0  0  0  0  0  0  0  0  0  0  0
   31.3036   10.0336    7.5530 C   0  0  0  0  0  0  0  0  0  0  0  0
   32.2075    9.2276    7.0090 N   0  0  0  0  0  0  0  0  0  0  0  0
   33.0808    9.9817    6.2715 C   0  0  0  0  0  0  0  0  0  0  0  0
   34.1683    9.5703    5.5328 N   0  0  0  0  0  0  0  0  0  0  0  0
   34.8736   10.4730    4.9074 C   0  0  0  0  0  0  0  0  0  0  0  0
   34.5133   11.9518    4.9862 C   0  0  0  0  0  0  0  0  0  0  0  0
   33.4284   12.3541    5.7205 C   0  0  0  0  0  0  0  0  0  0  0  0
   32.7087   11.3575    6.3634 N   0  0  0  0  0  0  0  0  0  0  0  0
  1  2  1  0
  2  3  2  0
  2  4  2  0
  2  5  1  0
  5  6  2  0
  6  7  1  0
  7  8  2  0
  8  9  1  0
  9 10  2  0
 10 11  1  0
 11 12  2  0
 12 13  1  0
 13  5  1  0
 13  8  1  0
A    1
 N1 
A    2
 S1 
A    3
 O1 
A    4
 O2 
A    5
 C1 
A    6
 C2 
A    7
 N2 
A    8
 C3 
A    9
 N3 
A   10
 C4 
A   11
 C5 
A   12
 C6 
A   13
 N4 
M  END
>  <ref_pdb>  (886) 
Ax0310a

>  <ref_mols>  (886) 
Ax0446a,Ax1080a,Ax0812a,Ax0719a,Ax1140a,Ax0528a,Ax0310a

>  <original SMILES>  (886) 
NS(=O)(=O)c1cnc2ncccn12

>  <rationale>  (886) 
info info set:sulfonimide_whole;hbond:S87+S125; 

>  <experiment>  (886) 
sulfonimide_whole

>  <cluster_label>  (886) 
3

>  <cluster_rank>  (886) 
543

>  <N_interactions>  (886) 
2

>  <∆∆G>  (886) 
-3.279141

>  <comRMSD>  (886) 
0.416439

>  <ROCS_TanimotoCombo>  (886) 
0.344

>  <ROCS_ShapeTanimoto>  (886) 
0.193

>  <ROCS_ColorTanimoto>  (886) 
0.15

$$$$
EN300_24793694
     RDKit          3D

 10 10  0  0  0  0  0  0  0  0999 V2000
   29.5309    8.2116    8.4969 C   0  0  0  0  0  0  0  0  0  0  0  0
   30.9537    8.6004    8.5694 C   0  0  0  0  0  0  0  0  0  0  0  0
   31.5824    9.4634    7.5109 C   0  0  0  0  0  0  0  0  0  0  0  0
   32.5424    8.8693    6.7742 N   0  0  0  0  0  0  0  0  0  0  0  0
   33.1768    9.5644    5.8272 C   0  0  0  0  0  0  0  0  0  0  0  0
   34.1580    8.8934    5.1024 N   0  0  0  0  0  0  0  0  0  0  0  0
   32.8839   11.0281    5.5050 C   0  0  0  0  0  0  0  0  0  0  0  0
   31.8836   11.6403    6.2588 C   0  0  0  0  0  0  0  0  0  0  0  0
   31.2002   10.9515    7.2496 C   0  0  0  0  0  0  0  0  0  0  0  0
   29.9936   11.8422    8.0800 Cl  0  0  0  0  0  0  0  0  0  0  0  0
  1  2  2  0
  2  3  1  0
  3  4  2  0
  4  5  1  0
  5  6  1  0
  5  7  2  0
  7  8  1  0
  8  9  2  0
  9 10  1  0
  9  3  1  0
A    1
 C1 
A    2
 C2 
A    3
 C3 
A    4
 N1 
A    5
 C4 
A    6
 N2 
A    7
 C5 
A    8
 C6 
A    9
 C7 
A   10
CL1 
M  END
>  <ref_pdb>  (887) 
Ax0310a

>  <ref_mols>  (887) 
Ax0446a,Ax1080a,Ax0812a,Ax0719a,Ax1140a,Ax0528a,Ax0310a

>  <original SMILES>  (887) 
C=Cc1nc(N)ccc1Cl

>  <rationale>  (887) 
info info set:bb_densepocket2;hbond:S105; hydroph_interaction:P107+V124; 

>  <experiment>  (887) 
bb_densepocket2

>  <cluster_label>  (887) 
3

>  <cluster_rank>  (887) 
544

>  <N_interactions>  (887) 
3

>  <∆∆G>  (887) 
-1.462401

>  <comRMSD>  (887) 
0.423712

>  <ROCS_TanimotoCombo>  (887) 
0.62

>  <ROCS_ShapeTanimoto>  (887) 
0.205

>  <ROCS_ColorTanimoto>  (887) 
0.416

$$$$
EN300_801175
     RDKit          3D

 16 17  0  0  0  0  0  0  0  0999 V2000
   28.7520    9.0211    8.2792 C   0  0  0  0  0  0  0  0  0  0  0  0
   30.1936    8.9528    8.2245 C   0  0  0  0  0  0  0  0  0  0  0  0
   30.7100    7.6556    8.3875 C   0  0  0  0  0  0  0  0  0  0  0  0
   30.2113    9.2788    9.5678 C   0  0  0  0  0  0  0  0  0  0  0  0
   31.1460    9.8749    7.4953 C   0  0  0  0  0  0  0  0  0  0  0  0
   32.0728    9.2486    6.7232 N   0  0  0  0  0  0  0  0  0  0  0  0
   32.9902    9.9238    6.0224 C   0  0  0  0  0  0  0  0  0  0  0  0
   33.9735    9.1667    5.1820 C   0  0  0  0  0  0  0  0  0  0  0  0
   35.0353    9.8980    4.3736 C   0  0  0  0  0  0  0  0  0  0  0  0
   35.8947    9.1818    3.6349 F   0  0  0  0  0  0  0  0  0  0  0  0
   35.1001   11.2861    4.4121 C   0  0  0  0  0  0  0  0  0  0  0  0
   34.1680   11.9614    5.1990 C   0  0  0  0  0  0  0  0  0  0  0  0
   33.0815   11.2951    6.0273 C   0  0  0  0  0  0  0  0  0  0  0  0
   32.0765   12.0904    6.8715 C   0  0  0  0  0  0  0  0  0  0  0  0
   31.1205   11.3994    7.5930 C   0  0  0  0  0  0  0  0  0  0  0  0
   30.2130   12.0908    8.3470 O   0  0  0  0  0  0  0  0  0  0  0  0
  1  2  1  0
  2  3  1  0
  2  4  1  0
  2  5  1  0
  5  6  2  0
  6  7  1  0
  7  8  2  0
  8  9  1  0
  9 10  1  0
  9 11  2  0
 11 12  1  0
 12 13  2  0
 13 14  1  0
 14 15  2  0
 15 16  1  0
 15  5  1  0
 13  7  1  0
A    1
 C1 
A    2
 C2 
A    3
 C3 
A    4
 C4 
A    5
 C5 
A    6
 N1 
A    7
 C6 
A    8
 C7 
A    9
 C8 
A   10
 F1 
A   11
 C9 
A   12
 C10
A   13
 C11
A   14
 C12
A   15
 C13
A   16
 O1 
M  END
>  <ref_pdb>  (888) 
Ax0310a

>  <ref_mols>  (888) 
Ax0446a,Ax1080a,Ax0812a,Ax0719a,Ax1140a,Ax0528a,Ax0310a

>  <original SMILES>  (888) 
CC(C)(C)c1nc2cc(F)ccc2cc1O

>  <rationale>  (888) 
info info set:bb_densepocket2;hbond:S125; 

>  <experiment>  (888) 
bb_densepocket2

>  <cluster_label>  (888) 
3

>  <cluster_rank>  (888) 
545

>  <N_interactions>  (888) 
1

>  <∆∆G>  (888) 
-5.183199

>  <comRMSD>  (888) 
0.624421

>  <ROCS_TanimotoCombo>  (888) 
0.618

>  <ROCS_ShapeTanimoto>  (888) 
0.271

>  <ROCS_ColorTanimoto>  (888) 
0.347

$$$$
Z98656087
     RDKit          3D

 17 18  0  0  0  0  0  0  0  0999 V2000
   30.1681    9.7512    9.1826 O   0  0  0  0  0  0  0  0  0  0  0  0
   30.2751   10.6449    8.3652 C   0  0  0  0  0  0  0  0  0  0  0  0
   29.5387   11.7632    8.4025 O   0  0  0  0  0  0  0  0  0  0  0  0
   31.2527   10.4650    7.2798 C   0  0  2  0  0  0  0  0  0  0  0  0
   31.9229    9.2851    7.2121 C   0  0  0  0  0  0  0  0  0  0  0  0
   32.9360    9.4354    6.2930 C   0  0  0  0  0  0  0  0  0  0  0  0
   33.2252   10.7956    6.2309 C   0  0  0  0  0  0  0  0  0  0  0  0
   32.3412   11.3480    7.2466 N   0  0  0  0  0  0  0  0  0  0  0  0
   31.9896   12.6486    7.2870 C   0  0  0  0  0  0  0  0  0  0  0  0
   30.6890   13.1949    7.4437 O   0  0  0  0  0  0  0  0  0  0  0  0
   33.1767   13.4829    7.1181 C   0  0  0  0  0  0  0  0  0  0  0  0
   33.8468   13.8807    8.2780 C   0  0  0  0  0  0  0  0  0  0  0  0
   34.9605   14.6767    8.1395 C   0  0  0  0  0  0  0  0  0  0  0  0
   35.3505   15.0378    6.8547 C   0  0  0  0  0  0  0  0  0  0  0  0
   34.7055   14.6435    5.7277 C   0  0  0  0  0  0  0  0  0  0  0  0
   33.6063   13.8577    5.8377 C   0  0  0  0  0  0  0  0  0  0  0  0
   32.7727   13.3668    4.2108 Br  0  0  0  0  0  0  0  0  0  0  0  0
  1  2  2  0
  2  3  1  0
  4  2  1  1
  4  5  1  0
  5  6  1  0
  6  7  1  0
  7  8  1  0
  8  9  1  0
  9 10  2  0
  9 11  1  0
 11 12  2  0
 12 13  1  0
 13 14  2  0
 14 15  1  0
 15 16  2  0
 16 17  1  0
  8  4  1  0
 16 11  1  0
A    1
 O1 
A    2
 C1 
A    3
 O2 
A    4
 C2 
A    5
 C3 
A    6
 C4 
A    7
 C5 
A    8
 N1 
A    9
 C6 
A   10
 O3 
A   11
 C7 
A   12
 C8 
A   13
 C9 
A   14
 C10
A   15
 C11
A   16
 C12
A   17
BR1 
M  END
>  <ref_pdb>  (889) 
Ax0310a

>  <ref_mols>  (889) 
Ax0446a,Ax1080a,Ax0812a,Ax0719a,Ax1140a,Ax0528a,Ax0310a

>  <original SMILES>  (889) 
O=C(O)[C@@H]1CCCN1C(=O)c1ccccc1Br

>  <rationale>  (889) 
info info set:3d;hbond:S87+S105; hydroph_interaction:E85; 

>  <experiment>  (889) 
3d

>  <cluster_label>  (889) 
3

>  <cluster_rank>  (889) 
546

>  <N_interactions>  (889) 
3

>  <∆∆G>  (889) 
-0.696583

>  <comRMSD>  (889) 
0.711067

>  <ROCS_TanimotoCombo>  (889) 
0.321

>  <ROCS_ShapeTanimoto>  (889) 
0.201

>  <ROCS_ColorTanimoto>  (889) 
0.12

$$$$
Z31087000
     RDKit          3D

 26 29  0  0  0  0  0  0  0  0999 V2000
   30.0994   15.0041   11.1418 C   0  0  0  0  0  0  0  0  0  0  0  0
   30.9241   14.6252    9.8875 C   0  0  0  0  0  0  0  0  0  0  0  0
   32.3311   14.7870    9.7520 O   0  0  0  0  0  0  0  0  0  0  0  0
   30.0880   14.0935    8.7578 C   0  0  0  0  0  0  0  0  0  0  0  0
   28.7980   14.7285    9.1701 C   0  0  0  0  0  0  0  0  0  0  0  0
   27.6221   14.4735    8.2588 C   0  0  0  0  0  0  0  0  0  0  0  0
   26.5163   15.0180    8.5667 F   0  0  0  0  0  0  0  0  0  0  0  0
   27.9308   13.5469    7.0127 C   0  0  0  0  0  0  0  0  0  0  0  0
   29.2722   12.9584    6.7164 C   0  0  0  0  0  0  0  0  0  0  0  0
   30.3503   13.3078    7.6901 C   0  0  0  0  0  0  0  0  0  0  0  0
   31.6045   12.8331    7.5002 O   0  0  0  0  0  0  0  0  0  0  0  0
   31.6695   11.4858    7.3563 C   0  0  0  0  0  0  0  0  0  0  0  0
   30.7323   10.7258    7.9383 N   0  0  0  0  0  0  0  0  0  0  0  0
   30.8419    9.3934    7.7698 C   0  0  0  0  0  0  0  0  0  0  0  0
   31.8027    8.7685    7.0422 N   0  0  0  0  0  0  0  0  0  0  0  0
   32.6736    9.6077    6.4825 C   0  0  0  0  0  0  0  0  0  0  0  0
   34.0351    9.0293    5.4228 S   0  0  0  0  0  0  0  0  0  0  0  0
   34.5981   10.5978    5.2573 C   0  0  0  0  0  0  0  0  0  0  0  0
   33.8083   11.4938    5.9430 C   0  0  0  0  0  0  0  0  0  0  0  0
   34.3070   12.8689    5.9228 C   0  0  0  0  0  0  0  0  0  0  0  0
   34.7338   13.4691    4.6112 C   0  0  0  0  0  0  0  0  0  0  0  0
   35.3362   14.8238    4.8901 C   0  0  0  0  0  0  0  0  0  0  0  0
   35.3901   15.2631    6.2089 C   0  0  0  0  0  0  0  0  0  0  0  0
   34.9269   14.6379    7.2993 C   0  0  0  0  0  0  0  0  0  0  0  0
   34.3860   13.4438    7.1689 C   0  0  0  0  0  0  0  0  0  0  0  0
   32.6877   10.9540    6.6151 C   0  0  0  0  0  0  0  0  0  0  0  0
  1  2  1  0
  2  3  2  0
  2  4  1  0
  4  5  2  0
  5  6  1  0
  6  7  1  0
  6  8  2  0
  8  9  1  0
  9 10  2  0
 10 11  1  0
 11 12  1  0
 12 13  2  0
 13 14  1  0
 14 15  2  0
 15 16  1  0
 16 17  1  0
 17 18  1  0
 18 19  2  0
 19 20  1  0
 20 21  2  0
 21 22  1  0
 22 23  2  0
 23 24  1  0
 24 25  2  0
 19 26  1  0
 10  4  1  0
 26 12  1  0
 26 16  2  0
 25 20  1  0
A    1
 C1 
A    2
 C2 
A    3
 O1 
A    4
 C3 
A    5
 C4 
A    6
 C5 
A    7
 F1 
A    8
 C6 
A    9
 C7 
A   10
 C8 
A   11
 O2 
A   12
 C9 
A   13
 N1 
A   14
 C10
A   15
 N2 
A   16
 C11
A   17
 S1 
A   18
 C12
A   19
 C13
A   20
 C14
A   21
 C15
A   22
 C16
A   23
 C17
A   24
 C18
A   25
 C19
A   26
 C20
M  END
>  <ref_pdb>  (890) 
Ax0310a

>  <ref_mols>  (890) 
Ax0446a,Ax1080a,Ax0812a,Ax0719a,Ax1140a,Ax0528a,Ax0310a

>  <original SMILES>  (890) 
CC(=O)c1cc(F)ccc1Oc1ncnc2scc(-c3ccccc3)c12

>  <rationale>  (890) 
info info set:screening_whole;hbond:S87; hydroph_interaction:P107+T126+V84+E85; pistack:H21; 

>  <experiment>  (890) 
screening_whole

>  <cluster_label>  (890) 
3

>  <cluster_rank>  (890) 
547

>  <N_interactions>  (890) 
6

>  <∆∆G>  (890) 
-5.422647

>  <comRMSD>  (890) 
0.792823

>  <ROCS_TanimotoCombo>  (890) 
0.456

>  <ROCS_ShapeTanimoto>  (890) 
0.258

>  <ROCS_ColorTanimoto>  (890) 
0.198

$$$$
EN300_28277194
     RDKit          3D

 17 17  0  0  0  0  0  0  0  0999 V2000
   32.5406   13.0942    5.6322 C   0  0  0  0  0  0  0  0  0  0  0  0
   32.5206   11.6144    6.0172 C   0  0  0  0  0  0  0  0  0  0  0  0
   33.4399   10.8436    5.4010 N   0  0  0  0  0  0  0  0  0  0  0  0
   33.4548    9.5511    5.7072 C   0  0  0  0  0  0  0  0  0  0  0  0
   34.4419    8.7431    5.0389 O   0  0  0  0  0  0  0  0  0  0  0  0
   32.6710    8.9003    6.5565 N   0  0  0  0  0  0  0  0  0  0  0  0
   31.7504    9.6338    7.1800 C   0  0  0  0  0  0  0  0  0  0  0  0
   31.0150    8.8532    8.0159 O   0  0  0  0  0  0  0  0  0  0  0  0
   31.6099   11.1388    6.9295 C   0  0  0  0  0  0  0  0  0  0  0  0
   30.7057   12.0471    7.4910 N   0  0  0  0  0  0  0  0  0  0  0  0
   29.8695   11.6684    8.4226 C   0  0  0  0  0  0  0  0  0  0  0  0
   30.0146   10.5599    8.9264 O   0  0  0  0  0  0  0  0  0  0  0  0
   28.8945   12.6211    8.6833 O   0  0  0  0  0  0  0  0  0  0  0  0
   29.0055   13.8664    9.4865 C   0  0  0  0  0  0  0  0  0  0  0  0
   28.5680   15.0616    8.6695 C   0  0  0  0  0  0  0  0  0  0  0  0
   28.0152   13.8100   10.6693 C   0  0  0  0  0  0  0  0  0  0  0  0
   30.4303   14.2011    9.9835 C   0  0  0  0  0  0  0  0  0  0  0  0
  1  2  1  0
  2  3  2  0
  3  4  1  0
  4  5  1  0
  4  6  2  0
  6  7  1  0
  7  8  1  0
  7  9  2  0
  9 10  1  0
 10 11  1  0
 11 12  2  0
 11 13  1  0
 13 14  1  0
 14 15  1  0
 14 16  1  0
 14 17  1  0
  9  2  1  0
A    1
 C1 
A    2
 C2 
A    3
 N1 
A    4
 C3 
A    5
 O1 
A    6
 N2 
A    7
 C4 
A    8
 O2 
A    9
 C5 
A   10
 N3 
A   11
 C6 
A   12
 O3 
A   13
 O4 
A   14
 C7 
A   15
 C8 
A   16
 C9 
A   17
 C10
M  END
>  <ref_pdb>  (891) 
Ax0310a

>  <ref_mols>  (891) 
Ax0446a,Ax1080a,Ax0812a,Ax0719a,Ax1140a,Ax0528a,Ax0310a

>  <original SMILES>  (891) 
Cc1nc(O)nc(O)c1NC(=O)OC(C)(C)C

>  <rationale>  (891) 
info info set:bb_densepocket2;hbond:S105; hydroph_interaction:Y90; 

>  <experiment>  (891) 
bb_densepocket2

>  <cluster_label>  (891) 
3

>  <cluster_rank>  (891) 
548

>  <N_interactions>  (891) 
3

>  <∆∆G>  (891) 
-4.965493

>  <comRMSD>  (891) 
0.972715

>  <ROCS_TanimotoCombo>  (891) 
0.619

>  <ROCS_ShapeTanimoto>  (891) 
0.239

>  <ROCS_ColorTanimoto>  (891) 
0.38

$$$$
Z1675289536
     RDKit          3D

 16 16  0  0  0  0  0  0  0  0999 V2000
   29.6180    8.0700    8.4519 C   0  0  0  0  0  0  0  0  0  0  0  0
   30.8263    8.6965    8.9201 C   0  0  0  0  0  0  0  0  0  0  0  0
   31.4847    9.4631    7.7815 C   0  0  0  0  0  0  0  0  0  0  0  0
   32.3444    8.6081    6.9906 N   0  0  0  0  0  0  0  0  0  0  0  0
   33.0180    9.0560    6.0177 N   0  0  0  0  0  0  0  0  0  0  0  0
   32.9695   10.3550    5.6502 C   0  0  0  0  0  0  0  0  0  0  0  0
   33.8352   10.8692    4.4330 C   0  0  0  0  0  0  0  0  0  0  0  0
   32.0552   11.3590    6.4264 C   0  0  0  0  0  0  0  0  0  0  0  0
   31.3814   10.7715    7.4564 C   0  0  0  0  0  0  0  0  0  0  0  0
   30.6382   12.0615    7.9400 C   0  0  0  0  0  0  0  0  0  0  0  0
   31.2062   12.8481    8.6682 O   0  0  0  0  0  0  0  0  0  0  0  0
   29.3571   12.2513    7.5022 N   0  0  0  0  0  0  0  0  0  0  0  0
   28.5271   13.1130    8.1562 C   0  0  0  0  0  0  0  0  0  0  0  0
   29.1069   14.4987    8.3088 C   0  0  0  0  0  0  0  0  0  0  0  0
   30.1317   14.6127    9.1650 N   0  0  0  0  0  0  0  0  0  0  0  0
   28.6910   15.4730    7.7003 O   0  0  0  0  0  0  0  0  0  0  0  0
  1  2  1  0
  2  3  1  0
  3  4  2  0
  4  5  1  0
  5  6  2  0
  6  7  1  0
  6  8  1  0
  8  9  2  0
  9 10  1  0
 10 11  2  0
 10 12  1  0
 12 13  1  0
 13 14  1  0
 14 15  1  0
 14 16  2  0
  9  3  1  0
A    1
 C1 
A    2
 C2 
A    3
 C3 
A    4
 N1 
A    5
 N2 
A    6
 C4 
A    7
 C5 
A    8
 C6 
A    9
 C7 
A   10
 C8 
A   11
 O1 
A   12
 N3 
A   13
 C9 
A   14
 C10
A   15
 N4 
A   16
 O2 
M  END
>  <ref_pdb>  (892) 
Ax0310a

>  <ref_mols>  (892) 
Ax0446a,Ax1080a,Ax0812a,Ax0719a,Ax1140a,Ax0528a,Ax0310a

>  <original SMILES>  (892) 
CCc1nnc(C)cc1C(=O)NCC(N)=O

>  <rationale>  (892) 
info info set:screening_pocket;hbond:S87+S125+G127; hydroph_interaction:P107+V124+D109; 

>  <experiment>  (892) 
screening_pocket

>  <cluster_label>  (892) 
3

>  <cluster_rank>  (892) 
549

>  <N_interactions>  (892) 
6

>  <∆∆G>  (892) 
-5.656773

>  <comRMSD>  (892) 
0.552029

>  <ROCS_TanimotoCombo>  (892) 
0.629

>  <ROCS_ShapeTanimoto>  (892) 
0.258

>  <ROCS_ColorTanimoto>  (892) 
0.372

$$$$
EN300_169977
     RDKit          3D

 14 15  0  0  0  0  0  0  0  0999 V2000
   34.5610   14.5036    8.1398 N   0  0  0  0  0  0  0  0  0  0  0  0
   33.8740   13.8177    6.7666 S   0  0  0  0  0  6  0  0  0  0  0  0
   34.7861   12.8054    6.3620 O   0  0  0  0  0  0  0  0  0  0  0  0
   33.6064   14.8362    5.8296 O   0  0  0  0  0  0  0  0  0  0  0  0
   32.4028   13.0460    7.4545 C   0  0  0  0  0  0  0  0  0  0  0  0
   31.2946   13.7813    8.2651 C   0  0  0  0  0  0  0  0  0  0  0  0
   30.1117   13.0288    8.7776 C   0  0  0  0  0  0  0  0  0  0  0  0
   30.1872   11.5758    8.4719 C   0  0  0  0  0  0  0  0  0  0  0  0
   31.2222   11.0670    7.7883 C   0  0  0  0  0  0  0  0  0  0  0  0
   30.7929    9.6240    7.8491 C   0  0  0  0  0  0  0  0  0  0  0  0
   31.7306    8.6921    7.1585 C   0  0  0  0  0  0  0  0  0  0  0  0
   32.9463    9.3427    6.4712 C   0  0  0  0  0  0  0  0  0  0  0  0
   33.3216   10.8462    6.4590 C   0  0  0  0  0  0  0  0  0  0  0  0
   32.3067   11.6695    7.2365 C   0  0  0  0  0  0  0  0  0  0  0  0
  1  2  1  0
  2  3  2  0
  2  4  2  0
  2  5  1  0
  5  6  2  0
  6  7  1  0
  7  8  2  0
  8  9  1  0
  9 10  2  0
 10 11  1  0
 11 12  2  0
 12 13  1  0
 13 14  2  0
 14  5  1  0
 14  9  1  0
A    1
 N1 
A    2
 S1 
A    3
 O1 
A    4
 O2 
A    5
 C1 
A    6
 C2 
A    7
 C3 
A    8
 C4 
A    9
 C5 
A   10
 C6 
A   11
 C7 
A   12
 C8 
A   13
 C9 
A   14
 C10
M  END
>  <ref_pdb>  (893) 
Ax0310a

>  <ref_mols>  (893) 
Ax0446a,Ax1080a,Ax0812a,Ax0719a,Ax1140a,Ax0528a,Ax0310a

>  <original SMILES>  (893) 
NS(=O)(=O)c1cccc2ccccc12

>  <rationale>  (893) 
info info set:sulfonimide_joint;hbond:G127; 

>  <experiment>  (893) 
sulfonimide_joint

>  <cluster_label>  (893) 
3

>  <cluster_rank>  (893) 
550

>  <N_interactions>  (893) 
1

>  <∆∆G>  (893) 
-2.509774

>  <comRMSD>  (893) 
0.678014

>  <ROCS_TanimotoCombo>  (893) 
0.333

>  <ROCS_ShapeTanimoto>  (893) 
0.178

>  <ROCS_ColorTanimoto>  (893) 
0.155

$$$$
EN300_24853
     RDKit          3D

 18 19  0  0  0  0  0  0  0  0999 V2000
   30.9007   15.8887    9.7898 N   0  0  0  0  0  0  0  0  0  0  0  0
   30.0402   15.0691    9.0940 C   0  0  0  0  0  0  0  0  0  0  0  0
   28.9343   15.5872    8.5531 N   0  0  0  0  0  0  0  0  0  0  0  0
   28.1670   14.7167    7.9056 C   0  0  0  0  0  0  0  0  0  0  0  0
   28.5053   13.2625    7.7824 C   0  0  0  0  0  0  0  0  0  0  0  0
   29.6759   12.9069    8.3939 C   0  0  0  0  0  0  0  0  0  0  0  0
   30.0963   11.5725    8.3660 N   0  0  0  0  0  0  0  0  0  0  0  0
   31.1195   11.0116    7.6020 C   0  0  0  0  0  0  0  0  0  0  0  0
   31.3147    9.6404    7.4591 C   0  0  0  0  0  0  0  0  0  0  0  0
   32.3826    9.1760    6.6137 C   0  0  0  0  0  0  0  0  0  0  0  0
   33.2429    9.9892    5.9196 C   0  0  0  0  0  0  0  0  0  0  0  0
   34.5752    9.4577    4.7927 S   0  0  0  0  0  6  0  0  0  0  0  0
   35.3053    8.1191    5.3857 N   0  0  0  0  0  0  0  0  0  0  0  0
   33.9607    8.8809    3.6453 O   0  0  0  0  0  0  0  0  0  0  0  0
   35.5779   10.4840    4.7154 O   0  0  0  0  0  0  0  0  0  0  0  0
   32.9966   11.4731    6.1385 C   0  0  0  0  0  0  0  0  0  0  0  0
   31.9719   11.9136    6.9486 C   0  0  0  0  0  0  0  0  0  0  0  0
   30.4223   13.8071    9.0327 N   0  0  0  0  0  0  0  0  0  0  0  0
  1  2  1  0
  2  3  2  0
  3  4  1  0
  4  5  2  0
  5  6  1  0
  6  7  1  0
  7  8  1  0
  8  9  2  0
  9 10  1  0
 10 11  2  0
 11 12  1  0
 12 13  1  0
 12 14  2  0
 12 15  2  0
 11 16  1  0
 16 17  2  0
  6 18  2  0
 18  2  1  0
 17  8  1  0
A    1
 N1 
A    2
 C1 
A    3
 N2 
A    4
 C2 
A    5
 C3 
A    6
 C4 
A    7
 N3 
A    8
 C5 
A    9
 C6 
A   10
 C7 
A   11
 C8 
A   12
 S1 
A   13
 N4 
A   14
 O1 
A   15
 O2 
A   16
 C9 
A   17
 C10
A   18
 N5 
M  END
>  <ref_pdb>  (894) 
Ax0310a

>  <ref_mols>  (894) 
Ax0446a,Ax1080a,Ax0812a,Ax0719a,Ax1140a,Ax0528a,Ax0310a

>  <original SMILES>  (894) 
Nc1nccc(Nc2ccc(S(N)(=O)=O)cc2)n1

>  <rationale>  (894) 
info info set:sulfonimide_whole;hbond:S87+S125+G127; 

>  <experiment>  (894) 
sulfonimide_whole

>  <cluster_label>  (894) 
3

>  <cluster_rank>  (894) 
551

>  <N_interactions>  (894) 
3

>  <∆∆G>  (894) 
-4.674026

>  <comRMSD>  (894) 
0.986689

>  <ROCS_TanimotoCombo>  (894) 
0.347

>  <ROCS_ShapeTanimoto>  (894) 
0.204

>  <ROCS_ColorTanimoto>  (894) 
0.142

$$$$
Z1934772376
     RDKit          3D

 20 21  0  0  0  0  0  0  0  0999 V2000
   27.6040   14.1576   10.4062 C   0  0  0  0  0  0  0  0  0  0  0  0
   27.9796   14.3839    8.9677 C   0  0  0  0  0  0  0  0  0  0  0  0
   28.0524   13.3131    7.9764 C   0  0  0  0  0  0  0  0  0  0  0  0
   27.8455   11.8569    8.1721 C   0  0  0  0  0  0  0  0  0  0  0  0
   29.2058   11.5635    7.7361 N   0  0  0  0  0  0  0  0  0  0  0  0
   29.7095   12.4278    6.6871 C   0  0  0  0  0  0  0  0  0  0  0  0
   30.0563   10.6729    8.2282 C   0  0  0  0  0  0  0  0  0  0  0  0
   29.9189    9.9734    9.2032 O   0  0  0  0  0  0  0  0  0  0  0  0
   31.2893   10.4890    7.4033 C   0  0  0  0  0  0  0  0  0  0  0  0
   31.6343    9.0526    7.2572 C   0  0  0  0  0  0  0  0  0  0  0  0
   32.6608    8.6158    6.5442 N   0  0  0  0  0  0  0  0  0  0  0  0
   33.4542    9.4914    5.9065 C   0  0  0  0  0  0  0  0  0  0  0  0
   34.4965    8.9071    5.1725 N   0  0  0  0  0  0  0  0  0  0  0  0
   33.2645   10.8696    5.9665 C   0  0  0  0  0  0  0  0  0  0  0  0
   34.3295   11.9409    5.1299 Cl  0  0  0  0  0  0  0  0  0  0  0  0
   32.0902   11.4350    6.7823 C   0  0  0  0  0  0  0  0  0  0  0  0
   28.4255   13.8959    6.6492 C   0  0  0  0  0  0  0  0  0  0  0  0
   28.5965   15.1878    6.8610 N   0  0  0  0  0  0  0  0  0  0  0  0
   28.3594   15.4367    8.1901 N   0  0  0  0  0  0  0  0  0  0  0  0
   28.5605   16.7402    8.5696 C   0  0  0  0  0  0  0  0  0  0  0  0
  1  2  1  0
  2  3  2  0
  3  4  1  0
  4  5  1  0
  5  6  1  0
  5  7  1  0
  7  8  2  0
  7  9  1  0
  9 10  2  0
 10 11  1  0
 11 12  2  0
 12 13  1  0
 12 14  1  0
 14 15  1  0
 14 16  2  0
  3 17  1  0
 17 18  2  0
 18 19  1  0
 19 20  1  0
 19  2  1  0
 16  9  1  0
A    1
 C1 
A    2
 C2 
A    3
 C3 
A    4
 C4 
A    5
 N1 
A    6
 C5 
A    7
 C6 
A    8
 O1 
A    9
 C7 
A   10
 C8 
A   11
 N2 
A   12
 C9 
A   13
 N3 
A   14
 C10
A   15
CL1 
A   16
 C11
A   17
 C12
A   18
 N4 
A   19
 N5 
A   20
 C13
M  END
>  <ref_pdb>  (895) 
Ax0310a

>  <ref_mols>  (895) 
Ax0446a,Ax1080a,Ax0812a,Ax0719a,Ax1140a,Ax0528a,Ax0310a

>  <original SMILES>  (895) 
Cc1c(CN(C)C(=O)c2cnc(N)c(Cl)c2)cnn1C

>  <rationale>  (895) 
info info set:screening_pocket;hbond:S105; hydroph_interaction:Y90; pistack:H21; 

>  <experiment>  (895) 
screening_pocket

>  <cluster_label>  (895) 
3

>  <cluster_rank>  (895) 
552

>  <N_interactions>  (895) 
3

>  <∆∆G>  (895) 
-4.893303

>  <comRMSD>  (895) 
0.823057

>  <ROCS_TanimotoCombo>  (895) 
0.66

>  <ROCS_ShapeTanimoto>  (895) 
0.241

>  <ROCS_ColorTanimoto>  (895) 
0.418

$$$$
Z364003304
     RDKit          3D

 10 11  0  0  0  0  0  0  0  0999 V2000
   30.2028    8.9938    8.7973 O   0  0  0  0  0  0  0  0  0  0  0  0
   30.6913    9.9646    8.2238 C   0  0  0  0  0  0  0  0  0  0  0  0
   30.0908   11.2653    8.1462 N   0  0  0  0  0  0  0  0  0  0  0  0
   30.8807   12.0008    7.2363 C   0  0  0  0  0  0  0  0  0  0  0  0
   30.5801   13.1036    6.8201 O   0  0  0  0  0  0  0  0  0  0  0  0
   32.1287   11.1500    6.9268 C   0  0  0  0  0  0  0  0  0  0  0  0
   33.2538   12.0907    7.0798 C   0  0  0  0  0  0  0  0  0  0  0  0
   34.0692   11.7580    5.8204 C   0  0  0  0  0  0  0  0  0  0  0  0
   32.8681   11.0324    5.5083 C   0  0  0  0  0  0  0  0  0  0  0  0
   31.8809    9.9222    7.5864 N   0  0  0  0  0  0  0  0  0  0  0  0
  1  2  2  0
  2  3  1  0
  3  4  1  0
  4  5  2  0
  4  6  1  0
  6  7  1  0
  7  8  1  0
  8  9  1  0
  6 10  1  0
 10  2  1  0
  9  6  1  0
A    1
 O1 
A    2
 C1 
A    3
 N1 
A    4
 C2 
A    5
 O2 
A    6
 C3 
A    7
 C4 
A    8
 C5 
A    9
 C6 
A   10
 N2 
M  END
>  <ref_pdb>  (896) 
Ax0310a

>  <ref_mols>  (896) 
Ax0446a,Ax1080a,Ax0812a,Ax0719a,Ax1140a,Ax0528a,Ax0310a

>  <original SMILES>  (896) 
O=C1NC(=O)C2(CCC2)N1

>  <rationale>  (896) 
info info set:3d;hbond:S105+S125; hydroph_interaction:P107; 

>  <experiment>  (896) 
3d

>  <cluster_label>  (896) 
3

>  <cluster_rank>  (896) 
553

>  <N_interactions>  (896) 
4

>  <∆∆G>  (896) 
-0.932274

>  <comRMSD>  (896) 
0.65548

>  <ROCS_TanimotoCombo>  (896) 
0.299

>  <ROCS_ShapeTanimoto>  (896) 
0.166

>  <ROCS_ColorTanimoto>  (896) 
0.134

$$$$
EN300_39870310
     RDKit          3D

 12 13  0  0  0  0  0  0  0  0999 V2000
   29.1971   13.4366    8.6182 C   0  0  0  0  0  0  0  0  0  0  0  0
   30.2932   12.8179    7.9060 N   0  0  0  0  0  0  0  0  0  0  0  0
   30.6064   11.4934    8.1151 C   0  0  0  0  0  0  0  0  0  0  0  0
   29.9448   10.7509    8.7801 O   0  0  0  0  0  0  0  0  0  0  0  0
   31.8074   10.9295    7.4518 C   0  0  2  0  0  0  0  0  0  0  0  0
   31.8180    9.3898    7.4917 C   0  0  0  0  0  0  0  0  0  0  0  0
   32.9797    9.1203    6.7360 O   0  0  0  0  0  0  0  0  0  0  0  0
   33.2351   10.3963    6.1056 C   0  0  2  0  0  0  0  0  0  0  0  0
   34.1836   10.2918    4.9373 C   0  0  0  0  0  0  0  0  0  0  0  0
   34.7771    8.9506    4.7977 N   0  0  0  0  0  0  0  0  0  0  0  0
   33.1250   11.6776    7.0353 C   0  0  0  0  0  0  0  0  0  0  0  0
   31.8284   11.0056    5.9518 C   0  0  0  0  0  0  0  0  0  0  0  0
  1  2  1  0
  2  3  1  0
  3  4  2  0
  5  3  1  1
  5  6  1  0
  6  7  1  0
  7  8  1  0
  8  9  1  6
  9 10  1  0
  8 11  1  0
  8 12  1  0
 11  5  1  0
 12  5  1  0
A    1
 C1 
A    2
 N1 
A    3
 C2 
A    4
 O1 
A    5
 C3 
A    6
 C4 
A    7
 O2 
A    8
 C5 
A    9
 C6 
A   10
 N2 
A   11
 C7 
A   12
 C8 
M  END
>  <ref_pdb>  (897) 
Ax0310a

>  <ref_mols>  (897) 
Ax0446a,Ax1080a,Ax0812a,Ax0719a,Ax1140a,Ax0528a,Ax0310a

>  <original SMILES>  (897) 
CNC(=O)[C@]12CO[C@](CN)(C1)C2

>  <rationale>  (897) 
info info set:bb_densepocket;hbond:S105; hydroph_interaction:P107; 

>  <experiment>  (897) 
bb_densepocket

>  <cluster_label>  (897) 
3

>  <cluster_rank>  (897) 
554

>  <N_interactions>  (897) 
2

>  <∆∆G>  (897) 
-0.086212

>  <comRMSD>  (897) 
0.821745

>  <ROCS_TanimotoCombo>  (897) 
0.765

>  <ROCS_ShapeTanimoto>  (897) 
0.224

>  <ROCS_ColorTanimoto>  (897) 
0.541

$$$$
Z2596883949
     RDKit          3D

 13 13  0  0  0  0  0  0  0  0999 V2000
   29.7383    8.2175    8.4723 C   0  0  0  0  0  0  0  0  0  0  0  0
   31.0884    8.7853    8.5854 C   0  0  0  0  0  0  0  0  0  0  0  0
   31.7256    9.4881    7.4351 C   0  0  0  0  0  0  0  0  0  0  0  0
   32.5598    8.7665    6.6955 N   0  0  0  0  0  0  0  0  0  0  0  0
   33.0484    9.6025    5.7225 O   0  0  0  0  0  0  0  0  0  0  0  0
   32.5147   10.8299    5.8801 C   0  0  0  0  0  0  0  0  0  0  0  0
   32.9453   11.8653    4.9303 C   0  0  0  0  0  0  0  0  0  0  0  0
   31.6617   10.8254    6.9379 C   0  0  0  0  0  0  0  0  0  0  0  0
   30.9891   11.9582    7.2992 N   0  0  0  0  0  0  0  0  0  0  0  0
   30.1129   11.8913    8.2940 C   0  0  0  0  0  0  0  0  0  0  0  0
   29.9613   10.8245    8.8460 O   0  0  0  0  0  0  0  0  0  0  0  0
   29.3455   13.1699    8.6740 C   0  0  0  0  0  0  0  0  0  0  0  0
   30.2509   14.2881    9.7399 Cl  0  0  0  0  0  0  0  0  0  0  0  0
  1  2  1  0
  2  3  1  0
  3  4  2  0
  4  5  1  0
  5  6  1  0
  6  7  1  0
  6  8  2  0
  8  9  1  0
  9 10  1  0
 10 11  2  0
 10 12  1  0
 12 13  1  0
  8  3  1  0
A    1
 C1 
A    2
 C2 
A    3
 C3 
A    4
 N1 
A    5
 O1 
A    6
 C4 
A    7
 C5 
A    8
 C6 
A    9
 N2 
A   10
 C7 
A   11
 O2 
A   12
 C8 
A   13
CL1 
M  END
>  <ref_pdb>  (898) 
Ax0310a

>  <ref_mols>  (898) 
Ax0446a,Ax1080a,Ax0812a,Ax0719a,Ax1140a,Ax0528a,Ax0310a

>  <original SMILES>  (898) 
CCc1noc(C)c1NC(=O)CCl

>  <rationale>  (898) 
info info set:screening_pocket;hydroph_interaction:P107+V124; 

>  <experiment>  (898) 
screening_pocket

>  <cluster_label>  (898) 
3

>  <cluster_rank>  (898) 
555

>  <N_interactions>  (898) 
2

>  <∆∆G>  (898) 
-2.852302

>  <comRMSD>  (898) 
0.798046

>  <ROCS_TanimotoCombo>  (898) 
0.67

>  <ROCS_ShapeTanimoto>  (898) 
0.207

>  <ROCS_ColorTanimoto>  (898) 
0.463

$$$$
Z30167294
     RDKit          3D

 18 19  0  0  0  0  0  0  0  0999 V2000
   34.7420    9.7437    5.0587 N   0  0  0  0  0  0  0  0  0  0  0  0
   33.9509   10.8007    5.3030 C   0  0  0  0  0  0  0  0  0  0  0  0
   32.7600   10.6889    6.2715 C   0  0  0  0  0  0  0  0  0  0  0  0
   32.5011    9.2791    6.7600 C   0  0  0  0  0  0  0  0  0  0  0  0
   31.3252    9.1976    7.7398 C   0  0  0  0  0  0  0  0  0  0  0  0
   30.5256   10.4440    8.1314 C   0  0  0  0  0  0  0  0  0  0  0  0
   30.9044   11.6488    7.5562 C   0  0  0  0  0  0  0  0  0  0  0  0
   30.0713   12.9095    7.9156 C   0  0  0  0  0  0  0  0  0  0  0  0
   29.8298   13.6493    6.9875 O   0  0  0  0  0  0  0  0  0  0  0  0
   29.6343   13.1655    9.2177 N   0  0  0  0  0  0  0  0  0  0  0  0
   28.4932   13.8718    9.5694 C   0  0  0  0  0  0  0  0  0  0  0  0
   27.4135   13.6474    8.6241 C   0  0  0  0  0  0  0  0  0  0  0  0
   26.1876   13.0350    9.1459 C   0  0  0  0  0  0  0  0  0  0  0  0
   25.1527   12.7978    8.0816 C   0  0  0  0  0  0  0  0  0  0  0  0
   25.2395   13.0967    6.7617 N   0  0  0  0  0  0  0  0  0  0  0  0
   26.3854   13.6890    6.3349 C   0  0  0  0  0  0  0  0  0  0  0  0
   27.5316   13.9833    7.3008 C   0  0  0  0  0  0  0  0  0  0  0  0
   31.9858   11.7807    6.6648 C   0  0  0  0  0  0  0  0  0  0  0  0
  1  2  3  0
  2  3  1  0
  3  4  2  0
  4  5  1  0
  5  6  2  0
  6  7  1  0
  7  8  1  0
  8  9  2  0
  8 10  1  0
 10 11  1  0
 11 12  1  0
 12 13  2  0
 13 14  1  0
 14 15  2  0
 15 16  1  0
 16 17  2  0
  7 18  2  0
 18  3  1  0
 17 12  1  0
A    1
 N1 
A    2
 C1 
A    3
 C2 
A    4
 C3 
A    5
 C4 
A    6
 C5 
A    7
 C6 
A    8
 C7 
A    9
 O1 
A   10
 N2 
A   11
 C8 
A   12
 C9 
A   13
 C10
A   14
 C11
A   15
 N3 
A   16
 C12
A   17
 C13
A   18
 C14
M  END
>  <ref_pdb>  (899) 
Ax0310a

>  <ref_mols>  (899) 
Ax0446a,Ax1080a,Ax0812a,Ax0719a,Ax1140a,Ax0528a,Ax0310a

>  <original SMILES>  (899) 
N#Cc1cccc(C(=O)NCc2ccncc2)c1

>  <rationale>  (899) 
info info set:3d;hbond:S87+S105+S125; hydroph_interaction:Y89; 

>  <experiment>  (899) 
3d

>  <cluster_label>  (899) 
3

>  <cluster_rank>  (899) 
556

>  <N_interactions>  (899) 
4

>  <∆∆G>  (899) 
-5.439108

>  <comRMSD>  (899) 
0.863752

>  <ROCS_TanimotoCombo>  (899) 
0.299

>  <ROCS_ShapeTanimoto>  (899) 
0.193

>  <ROCS_ColorTanimoto>  (899) 
0.106

$$$$
EN300_39918555
     RDKit          3D

 16 16  0  0  0  0  0  0  0  0999 V2000
   35.0708    8.0503    3.9725 C   0  0  0  0  0  0  0  0  0  0  0  0
   33.9113    8.8023    4.3296 O   0  0  0  0  0  0  0  0  0  0  0  0
   34.1102    9.7461    5.2855 C   0  0  0  0  0  0  0  0  0  0  0  0
   35.1047   10.4669    5.2816 O   0  0  0  0  0  0  0  0  0  0  0  0
   32.9599    9.7676    6.3009 C   0  0  0  0  0  0  0  0  0  0  0  0
   31.9407    8.8451    6.9490 C   0  0  0  0  0  0  0  0  0  0  0  0
   31.0110    9.5423    7.9150 C   0  0  0  0  0  0  0  0  0  0  0  0
   31.2210   11.0008    8.1357 C   0  0  0  0  0  0  0  0  0  0  0  0
   32.3453   11.7232    7.3970 C   0  0  0  0  0  0  0  0  0  0  0  0
   32.1090   13.0962    8.0698 C   0  0  1  0  0  0  0  0  0  0  0  0
   33.3692   13.9149    8.0840 C   0  0  0  0  0  0  0  0  0  0  0  0
   30.4600   13.7332    7.9911 S   0  0  0  0  0  6  0  0  0  0  0  0
   29.4319   12.5883    8.5852 N   0  0  0  0  0  0  0  0  0  0  0  0
   30.0569   13.7351    6.6107 O   0  0  0  0  0  0  0  0  0  0  0  0
   30.3312   14.8570    8.8989 O   0  0  0  0  0  0  0  0  0  0  0  0
   33.2174   11.1796    6.4703 C   0  0  0  0  0  0  0  0  0  0  0  0
  1  2  1  0
  2  3  1  0
  3  4  2  0
  3  5  1  0
  5  6  2  0
  6  7  1  0
  7  8  2  0
  8  9  1  0
  9 10  1  0
 10 11  1  6
 10 12  1  0
 12 13  1  0
 12 14  2  0
 12 15  2  0
  9 16  2  0
 16  5  1  0
A    1
 C1 
A    2
 O1 
A    3
 C2 
A    4
 O2 
A    5
 C3 
A    6
 C4 
A    7
 C5 
A    8
 C6 
A    9
 C7 
A   10
 C8 
A   11
 C9 
A   12
 S1 
A   13
 N1 
A   14
 O3 
A   15
 O4 
A   16
 C10
M  END
>  <ref_pdb>  (900) 
Ax0310a

>  <ref_mols>  (900) 
Ax0446a,Ax1080a,Ax0812a,Ax0719a,Ax1140a,Ax0528a,Ax0310a

>  <original SMILES>  (900) 
COC(=O)c1cccc([C@@H](C)S(N)(=O)=O)c1

>  <rationale>  (900) 
info info set:sulfonimide_whole;hbond:S87+S125; hydroph_interaction:V84; 

>  <experiment>  (900) 
sulfonimide_whole

>  <cluster_label>  (900) 
3

>  <cluster_rank>  (900) 
557

>  <N_interactions>  (900) 
3

>  <∆∆G>  (900) 
-4.129715

>  <comRMSD>  (900) 
0.664933

>  <ROCS_TanimotoCombo>  (900) 
0.354

>  <ROCS_ShapeTanimoto>  (900) 
0.188

>  <ROCS_ColorTanimoto>  (900) 
0.166

$$$$
Z275845792
     RDKit          3D

 15 16  0  0  0  0  0  0  0  0999 V2000
   29.6012    8.2494    8.5777 C   0  0  0  0  0  0  0  0  0  0  0  0
   31.3492    8.2431    8.5165 S   0  0  0  0  0  0  0  0  0  0  0  0
   31.9349    9.3731    7.2834 C   0  0  0  0  0  0  0  0  0  0  0  0
   32.8855    8.8191    6.4583 N   0  0  0  0  0  0  0  0  0  0  0  0
   33.5705    9.5193    5.3704 C   0  0  0  0  0  0  0  0  0  0  0  0
   33.1389   11.0035    5.1988 C   0  0  0  0  0  0  0  0  0  0  0  0
   32.0876   11.5723    6.1274 C   0  0  0  0  0  0  0  0  0  0  0  0
   31.4926   10.6761    7.1892 C   0  0  0  0  0  0  0  0  0  0  0  0
   30.4528   11.2851    8.0855 C   0  0  0  0  0  0  0  0  0  0  0  0
   30.1483   10.5526    8.9812 O   0  0  0  0  0  0  0  0  0  0  0  0
   29.9338   12.5031    7.8464 N   0  0  0  0  0  0  0  0  0  0  0  0
   28.6984   12.9434    8.4608 C   0  0  0  0  0  0  0  0  0  0  0  0
   28.8084   14.2398    9.1969 C   0  0  0  0  0  0  0  0  0  0  0  0
   29.0349   15.3883    8.2452 C   0  0  0  0  0  0  0  0  0  0  0  0
   30.1359   14.9277    9.2325 C   0  0  0  0  0  0  0  0  0  0  0  0
  1  2  1  0
  2  3  1  0
  3  4  2  0
  4  5  1  0
  5  6  2  0
  6  7  1  0
  7  8  2  0
  8  9  1  0
  9 10  2  0
  9 11  1  0
 11 12  1  0
 12 13  1  0
 13 14  1  0
 14 15  1  0
  8  3  1  0
 15 13  1  0
A    1
 C1 
A    2
 S1 
A    3
 C2 
A    4
 N1 
A    5
 C3 
A    6
 C4 
A    7
 C5 
A    8
 C6 
A    9
 C7 
A   10
 O1 
A   11
 N2 
A   12
 C8 
A   13
 C9 
A   14
 C10
A   15
 C11
M  END
>  <ref_pdb>  (901) 
Ax0310a

>  <ref_mols>  (901) 
Ax0446a,Ax1080a,Ax0812a,Ax0719a,Ax1140a,Ax0528a,Ax0310a

>  <original SMILES>  (901) 
CSc1ncccc1C(=O)NCC1CC1

>  <rationale>  (901) 
info info set:screening_pocket;hydroph_interaction:P107+Y90; 

>  <experiment>  (901) 
screening_pocket

>  <cluster_label>  (901) 
3

>  <cluster_rank>  (901) 
558

>  <N_interactions>  (901) 
2

>  <∆∆G>  (901) 
-3.776861

>  <comRMSD>  (901) 
0.71914

>  <ROCS_TanimotoCombo>  (901) 
0.662

>  <ROCS_ShapeTanimoto>  (901) 
0.224

>  <ROCS_ColorTanimoto>  (901) 
0.438

$$$$
Z1417545350
     RDKit          3D

 21 22  0  0  0  0  0  0  0  0999 V2000
   34.6009    8.9044    4.9809 C   0  0  0  0  0  0  0  0  0  0  0  0
   33.4603    9.6446    5.6602 C   0  0  0  0  0  0  0  0  0  0  0  0
   33.3422   11.0659    5.2222 C   0  0  0  0  0  0  0  0  0  0  0  0
   32.3157   11.8276    5.7673 C   0  0  0  0  0  0  0  0  0  0  0  0
   32.2009   13.2831    5.2961 C   0  0  0  0  0  0  0  0  0  0  0  0
   31.4472   11.2449    6.6872 C   0  0  0  0  0  0  0  0  0  0  0  0
   30.3795   12.0043    7.2289 N   0  0  0  0  0  0  0  0  0  0  0  0
   29.8015   11.7543    8.4213 C   0  0  0  0  0  0  0  0  0  0  0  0
   29.9869   10.6503    8.8985 O   0  0  0  0  0  0  0  0  0  0  0  0
   29.0662   12.8795    8.9812 N   0  0  0  0  0  0  0  0  0  0  0  0
   27.9053   13.1248    9.8833 C   0  0  0  0  0  0  0  0  0  0  0  0
   28.8458   13.9431    8.3134 C   0  0  0  0  0  0  0  0  0  0  0  0
   29.3805   15.2543    8.6226 C   0  0  0  0  0  0  0  0  0  0  0  0
   30.3207   15.3431    9.7757 C   0  0  0  0  0  0  0  0  0  0  0  0
   28.9223   16.1524    7.8111 N   0  0  0  0  0  0  0  0  0  0  0  0
   28.1301   15.4139    6.9645 O   0  0  0  0  0  0  0  0  0  0  0  0
   28.0718   14.1150    7.2458 C   0  0  0  0  0  0  0  0  0  0  0  0
   27.2264   13.2840    6.3758 C   0  0  0  0  0  0  0  0  0  0  0  0
   31.6664    9.8767    7.0460 C   0  0  0  0  0  0  0  0  0  0  0  0
   30.6987    8.9985    8.1825 Cl  0  0  0  0  0  0  0  0  0  0  0  0
   32.6426    9.0825    6.5544 N   0  0  0  0  0  0  0  0  0  0  0  0
  1  2  1  0
  2  3  2  0
  3  4  1  0
  4  5  1  0
  4  6  2  0
  6  7  1  0
  7  8  1  0
  8  9  2  0
  8 10  1  0
 10 11  1  0
 10 12  1  0
 12 13  1  0
 13 14  1  0
 13 15  2  0
 15 16  1  0
 16 17  1  0
 17 18  1  0
  6 19  1  0
 19 20  1  0
 19 21  2  0
 21  2  1  0
 17 12  2  0
A    1
 C1 
A    2
 C2 
A    3
 C3 
A    4
 C4 
A    5
 C5 
A    6
 C6 
A    7
 N1 
A    8
 C7 
A    9
 O1 
A   10
 N2 
A   11
 C8 
A   12
 C9 
A   13
 C10
A   14
 C11
A   15
 N3 
A   16
 O2 
A   17
 C12
A   18
 C13
A   19
 C14
A   20
CL1 
A   21
 N4 
M  END
>  <ref_pdb>  (902) 
Ax0310a

>  <ref_mols>  (902) 
Ax0446a,Ax1080a,Ax0812a,Ax0719a,Ax1140a,Ax0528a,Ax0310a

>  <original SMILES>  (902) 
Cc1cc(C)c(NC(=O)N(C)c2c(C)noc2C)c(Cl)n1

>  <rationale>  (902) 
info info set:screening_pocket;hbond:Y90; hydroph_interaction:P107+Y90; 

>  <experiment>  (902) 
screening_pocket

>  <cluster_label>  (902) 
3

>  <cluster_rank>  (902) 
559

>  <N_interactions>  (902) 
4

>  <∆∆G>  (902) 
-0.810386

>  <comRMSD>  (902) 
0.901082

>  <ROCS_TanimotoCombo>  (902) 
0.681

>  <ROCS_ShapeTanimoto>  (902) 
0.25

>  <ROCS_ColorTanimoto>  (902) 
0.431

$$$$
Z1766238052
     RDKit          3D

 17 18  0  0  0  0  0  0  0  0999 V2000
   35.3569   14.1710    7.0843 C   0  0  0  0  0  0  0  0  0  0  0  0
   34.7438   14.0423    8.4824 C   0  0  2  0  0  0  0  0  0  0  0  0
   33.5553   13.1033    8.4609 C   0  0  0  0  0  0  0  0  0  0  0  0
   32.2773   13.7251    8.2235 N   0  0  0  0  0  0  0  0  0  0  0  0
   31.3545   13.0033    7.4690 C   0  0  0  0  0  0  0  0  0  0  0  0
   30.3135   13.4390    6.9928 O   0  0  0  0  0  0  0  0  0  0  0  0
   31.6610   11.5477    7.2238 C   0  0  0  0  0  0  0  0  0  0  0  0
   30.9252   10.6471    8.1078 C   0  0  0  0  0  0  0  0  0  0  0  0
   31.0097    9.2979    8.1394 C   0  0  0  0  0  0  0  0  0  0  0  0
   30.3149    8.5328    8.9782 F   0  0  0  0  0  0  0  0  0  0  0  0
   31.9992    8.7288    7.1153 C   0  0  0  0  0  0  0  0  0  0  0  0
   32.7139    9.5735    6.2384 C   0  0  0  0  0  0  0  0  0  0  0  0
   32.5352   11.0630    6.2907 C   0  0  0  0  0  0  0  0  0  0  0  0
   33.2180   11.8564    5.4536 F   0  0  0  0  0  0  0  0  0  0  0  0
   31.9509   14.5418    9.3842 C   0  0  0  0  0  0  0  0  0  0  0  0
   33.0650   15.2778    9.8323 C   0  0  0  0  0  0  0  0  0  0  0  0
   34.2469   15.3353    8.9337 N   0  0  0  0  0  0  0  0  0  0  0  0
  2  1  1  6
  2  3  1  0
  3  4  1  0
  4  5  1  0
  5  6  2  0
  5  7  1  0
  7  8  2  0
  8  9  1  0
  9 10  1  0
  9 11  2  0
 11 12  1  0
 12 13  2  0
 13 14  1  0
  4 15  1  0
 15 16  1  0
 16 17  1  0
 17  2  1  0
 13  7  1  0
A    1
 C1 
A    2
 C2 
A    3
 C3 
A    4
 N1 
A    5
 C4 
A    6
 O1 
A    7
 C5 
A    8
 C6 
A    9
 C7 
A   10
 F1 
A   11
 C8 
A   12
 C9 
A   13
 C10
A   14
 F2 
A   15
 C11
A   16
 C12
A   17
 N2 
M  END
>  <ref_pdb>  (903) 
Ax0310a

>  <ref_mols>  (903) 
Ax0446a,Ax1080a,Ax0812a,Ax0719a,Ax1140a,Ax0528a,Ax0310a

>  <original SMILES>  (903) 
C[C@@H]1CN(C(=O)c2cc(F)ccc2F)CCN1

>  <rationale>  (903) 
info info set:3d;hbond:S87+E85; hydroph_interaction:E85; 

>  <experiment>  (903) 
3d

>  <cluster_label>  (903) 
3

>  <cluster_rank>  (903) 
560

>  <N_interactions>  (903) 
3

>  <∆∆G>  (903) 
-3.170193

>  <comRMSD>  (903) 
0.642874

>  <ROCS_TanimotoCombo>  (903) 
0.31

>  <ROCS_ShapeTanimoto>  (903) 
0.211

>  <ROCS_ColorTanimoto>  (903) 
0.099

$$$$
EN300_1120833
     RDKit          3D

 13 13  0  0  0  0  0  0  0  0999 V2000
   34.1126   15.1831    9.2496 N   0  0  0  0  0  0  0  0  0  0  0  0
   33.7479   13.8317    8.3370 S   0  0  0  0  0  6  0  0  0  0  0  0
   32.3764   13.9303    7.9319 O   0  0  0  0  0  0  0  0  0  0  0  0
   34.1425   12.8107    9.2229 O   0  0  0  0  0  0  0  0  0  0  0  0
   34.8788   13.9458    6.9658 C   0  0  0  0  0  0  0  0  0  0  0  0
   34.4814   13.0110    5.8634 C   0  0  0  0  0  0  0  0  0  0  0  0
   33.1456   12.5515    6.0438 O   0  0  0  0  0  0  0  0  0  0  0  0
   33.0955   11.1654    5.7491 C   0  0  0  0  0  0  0  0  0  0  0  0
   32.0276   10.5618    6.3968 C   0  0  2  0  0  0  0  0  0  0  0  0
   31.2139   11.2323    7.4399 C   0  0  0  0  0  0  0  0  0  0  0  0
   30.6354   10.2463    8.1942 C   0  0  0  0  0  0  0  0  0  0  0  0
   31.3383    8.9915    7.9647 C   0  0  0  0  0  0  0  0  0  0  0  0
   32.4009    9.3203    7.0286 O   0  0  0  0  0  0  0  0  0  0  0  0
  1  2  1  0
  2  3  2  0
  2  4  2  0
  2  5  1  0
  5  6  1  0
  6  7  1  0
  7  8  1  0
  9  8  1  1
  9 10  1  0
 10 11  1  0
 11 12  1  0
 12 13  1  0
 13  9  1  0
A    1
 N1 
A    2
 S1 
A    3
 O1 
A    4
 O2 
A    5
 C1 
A    6
 C2 
A    7
 O3 
A    8
 C3 
A    9
 C4 
A   10
 C5 
A   11
 C6 
A   12
 C7 
A   13
 O4 
M  END
>  <ref_pdb>  (904) 
Ax0310a

>  <ref_mols>  (904) 
Ax0446a,Ax1080a,Ax0812a,Ax0719a,Ax1140a,Ax0528a,Ax0310a

>  <original SMILES>  (904) 
NS(=O)(=O)CCOC[C@@H]1CCCO1

>  <rationale>  (904) 
info info set:sulfonimide_joint;hbond:S87+G127+E85; 

>  <experiment>  (904) 
sulfonimide_joint

>  <cluster_label>  (904) 
3

>  <cluster_rank>  (904) 
561

>  <N_interactions>  (904) 
3

>  <∆∆G>  (904) 
-1.65212

>  <comRMSD>  (904) 
0.774312

>  <ROCS_TanimotoCombo>  (904) 
0.369

>  <ROCS_ShapeTanimoto>  (904) 
0.167

>  <ROCS_ColorTanimoto>  (904) 
0.202

$$$$
EN300_248190
     RDKit          3D

 17 17  0  0  0  0  0  0  0  0999 V2000
   41.8432   10.9751   10.7341 C   0  0  0  0  0  0  0  0  0  0  0  0
   40.9334   11.7887   10.0209 O   0  0  0  0  0  0  0  0  0  0  0  0
   40.2279   12.5892   10.8432 C   0  0  0  0  0  0  0  0  0  0  0  0
   40.6016   13.0584   11.9018 O   0  0  0  0  0  0  0  0  0  0  0  0
   38.8419   12.8842   10.2569 C   0  0  0  0  0  0  0  0  0  0  0  0
   38.7169   13.1659    8.8985 C   0  0  0  0  0  0  0  0  0  0  0  0
   37.3504   13.4752    8.3265 C   0  0  0  0  0  0  0  0  0  0  0  0
   36.2501   13.4831    9.1732 C   0  0  0  0  0  0  0  0  0  0  0  0
   34.6324   13.8402    8.4819 S   0  0  0  0  0  6  0  0  0  0  0  0
   34.1229   15.2193    9.2537 N   0  0  0  0  0  0  0  0  0  0  0  0
   34.7933   14.1642    7.0853 O   0  0  0  0  0  0  0  0  0  0  0  0
   33.6730   12.8381    8.8712 O   0  0  0  0  0  0  0  0  0  0  0  0
   36.4447   13.1910   10.5281 C   0  0  0  0  0  0  0  0  0  0  0  0
   37.6964   12.8854   11.0510 C   0  0  0  0  0  0  0  0  0  0  0  0
   37.7586   12.5608   12.4752 N   0  0  0  0  0  4  0  0  0  0  0  0
   38.8521   12.1323   12.8630 O   0  0  0  0  0  0  0  0  0  0  0  0
   36.6773   12.2420   13.0079 O   0  0  0  0  0  1  0  0  0  0  0  0
  1  2  1  0
  2  3  1  0
  3  4  2  0
  3  5  1  0
  5  6  2  0
  6  7  1  0
  7  8  2  0
  8  9  1  0
  9 10  1  0
  9 11  2  0
  9 12  2  0
  8 13  1  0
 13 14  2  0
 14 15  1  0
 15 16  2  0
 15 17  1  0
 14  5  1  0
M  CHG  2  15   1  17  -1
A    1
 C1 
A    2
 O1 
A    3
 C2 
A    4
 O2 
A    5
 C3 
A    6
 C4 
A    7
 C5 
A    8
 C6 
A    9
 S1 
A   10
 N1 
A   11
 O3 
A   12
 O4 
A   13
 C7 
A   14
 C8 
A   15
 N2 
A   16
 O5 
A   17
 O6 
M  END
>  <ref_pdb>  (905) 
Ax0310a

>  <ref_mols>  (905) 
Ax0446a,Ax1080a,Ax0812a,Ax0719a,Ax1140a,Ax0528a,Ax0310a

>  <original SMILES>  (905) 
COC(=O)c1ccc(S(N)(=O)=O)cc1[N+](=O)[O-]

>  <rationale>  (905) 
info info set:sulfonimide_joint;hbond:S87+G127; hydroph_interaction:V84+E85; 

>  <experiment>  (905) 
sulfonimide_joint

>  <cluster_label>  (905) 
3

>  <cluster_rank>  (905) 
562

>  <N_interactions>  (905) 
5

>  <∆∆G>  (905) 
-5.1797

>  <comRMSD>  (905) 
0.487927

>  <ROCS_TanimotoCombo>  (905) 
0.305

>  <ROCS_ShapeTanimoto>  (905) 
0.179

>  <ROCS_ColorTanimoto>  (905) 
0.126

$$$$
Z858031338
     RDKit          3D

 16 17  0  0  0  0  0  0  0  0999 V2000
   34.1488   13.5096    6.4284 O   0  0  0  0  0  0  0  0  0  0  0  0
   33.5558   12.5793    6.9547 C   0  0  0  0  0  0  0  0  0  0  0  0
   33.5782   12.5063    8.3030 O   0  0  0  0  0  0  0  0  0  0  0  0
   32.7623   11.5261    6.1730 C   0  0  0  0  0  0  0  0  0  0  0  0
   31.4175   11.2419    6.9050 C   0  0  0  0  0  0  0  0  0  0  0  0
   31.2068   10.0597    7.8490 C   0  0  0  0  0  0  0  0  0  0  0  0
   29.8683    9.7552    8.6502 C   0  0  0  0  0  0  0  0  0  0  0  0
   28.8572   10.9182    8.2581 C   0  0  0  0  0  0  0  0  0  0  0  0
   29.1654   12.0527    7.2813 C   0  0  0  0  0  0  0  0  0  0  0  0
   30.3985   12.1345    6.6712 C   0  0  0  0  0  0  0  0  0  0  0  0
   30.4972   13.4515    5.5932 Cl  0  0  0  0  0  0  0  0  0  0  0  0
   33.4174   10.1446    6.0370 C   0  0  0  0  0  0  0  0  0  0  0  0
   34.7501   10.1488    5.2735 C   0  0  0  0  0  0  0  0  0  0  0  0
   34.6759   10.8207    4.0573 O   0  0  0  0  0  0  0  0  0  0  0  0
   34.2366   12.1475    4.3386 C   0  0  0  0  0  0  0  0  0  0  0  0
   32.8969   12.0649    4.7129 C   0  0  0  0  0  0  0  0  0  0  0  0
  1  2  2  0
  2  3  1  0
  2  4  1  0
  4  5  1  0
  5  6  2  0
  6  7  1  0
  7  8  2  0
  8  9  1  0
  9 10  2  0
 10 11  1  0
  4 12  1  0
 12 13  1  0
 13 14  1  0
 14 15  1  0
 15 16  1  0
 16  4  1  0
 10  5  1  0
A    1
 O1 
A    2
 C1 
A    3
 O2 
A    4
 C2 
A    5
 C3 
A    6
 C4 
A    7
 C5 
A    8
 C6 
A    9
 C7 
A   10
 C8 
A   11
CL1 
A   12
 C9 
A   13
 C10
A   14
 O3 
A   15
 C11
A   16
 C12
M  END
>  <ref_pdb>  (906) 
Ax0310a

>  <ref_mols>  (906) 
Ax0446a,Ax1080a,Ax0812a,Ax0719a,Ax1140a,Ax0528a,Ax0310a

>  <original SMILES>  (906) 
O=C(O)C1(c2ccccc2Cl)CCOCC1

>  <rationale>  (906) 
info info set:3d;hbond:G127; hydroph_interaction:P107; 

>  <experiment>  (906) 
3d

>  <cluster_label>  (906) 
3

>  <cluster_rank>  (906) 
563

>  <N_interactions>  (906) 
2

>  <∆∆G>  (906) 
-3.160412

>  <comRMSD>  (906) 
0.87418

>  <ROCS_TanimotoCombo>  (906) 
0.318

>  <ROCS_ShapeTanimoto>  (906) 
0.203

>  <ROCS_ColorTanimoto>  (906) 
0.114

$$$$
EN300_1615676
     RDKit          3D

 11 11  0  0  0  0  0  0  0  0999 V2000
   29.6737    8.1466    8.4937 C   0  0  0  0  0  0  0  0  0  0  0  0
   31.0075    8.7675    8.6514 C   0  0  0  0  0  0  0  0  0  0  0  0
   31.7492    9.4799    7.4855 C   0  0  0  0  0  0  0  0  0  0  0  0
   32.6193    8.6986    6.7758 O   0  0  0  0  0  0  0  0  0  0  0  0
   33.1594    9.5259    5.8512 C   0  0  0  0  0  0  0  0  0  0  0  0
   34.1950    9.1274    4.8422 C   0  0  0  0  0  0  0  0  0  0  0  0
   32.5931   10.9282    5.9643 C   0  0  0  0  0  0  0  0  0  0  0  0
   32.9142   12.1796    5.1275 C   0  0  0  0  0  0  0  0  0  0  0  0
   31.6925   10.7993    7.0489 C   0  0  0  0  0  0  0  0  0  0  0  0
   30.8228   11.8895    7.6499 C   0  0  0  0  0  0  0  0  0  0  0  0
   29.9142   11.2192    8.4853 O   0  0  0  0  0  0  0  0  0  0  0  0
  1  2  1  0
  2  3  1  0
  3  4  1  0
  4  5  1  0
  5  6  1  0
  5  7  2  0
  7  8  1  0
  7  9  1  0
  9 10  1  0
 10 11  1  0
  9  3  2  0
A    1
 C1 
A    2
 C2 
A    3
 C3 
A    4
 O1 
A    5
 C4 
A    6
 C5 
A    7
 C6 
A    8
 C7 
A    9
 C8 
A   10
 C9 
A   11
 O2 
M  END
>  <ref_pdb>  (907) 
Ax0310a

>  <ref_mols>  (907) 
Ax0446a,Ax1080a,Ax0812a,Ax0719a,Ax1140a,Ax0528a,Ax0310a

>  <original SMILES>  (907) 
CCc1oc(C)c(C)c1CO

>  <rationale>  (907) 
info info set:bb_densepocket2;hbond:S125; hydroph_interaction:P107+V124; 

>  <experiment>  (907) 
bb_densepocket2

>  <cluster_label>  (907) 
3

>  <cluster_rank>  (907) 
564

>  <N_interactions>  (907) 
3

>  <∆∆G>  (907) 
-7.219069

>  <comRMSD>  (907) 
0.45427

>  <ROCS_TanimotoCombo>  (907) 
0.62

>  <ROCS_ShapeTanimoto>  (907) 
0.213

>  <ROCS_ColorTanimoto>  (907) 
0.407

$$$$
EN300_209625
     RDKit          3D

 13 13  0  0  0  0  0  0  0  0999 V2000
   35.5091   14.5929    7.5510 N   0  0  0  0  0  0  0  0  0  0  0  0
   34.1401   13.8542    6.9232 S   0  0  0  0  0  6  0  0  0  0  0  0
   33.6401   14.7504    5.9442 O   0  0  0  0  0  0  0  0  0  0  0  0
   34.5706   12.5787    6.4556 O   0  0  0  0  0  0  0  0  0  0  0  0
   33.1435   13.6962    8.4074 C   0  0  0  0  0  0  0  0  0  0  0  0
   31.7001   13.2236    8.1700 C   0  0  0  0  0  0  0  0  0  0  0  0
   31.8072   11.7749    7.7003 C   0  0  0  0  0  0  0  0  0  0  0  0
   30.7386   10.8640    8.2271 C   0  0  0  0  0  0  0  0  0  0  0  0
   30.8283    9.4104    7.8328 C   0  0  0  0  0  0  0  0  0  0  0  0
   31.8470    8.9407    7.0030 C   0  0  0  0  0  0  0  0  0  0  0  0
   32.7885    9.8280    6.5141 C   0  0  0  0  0  0  0  0  0  0  0  0
   34.0153    9.2346    5.4671 Cl  0  0  0  0  0  0  0  0  0  0  0  0
   32.7893   11.2905    6.8664 C   0  0  0  0  0  0  0  0  0  0  0  0
  1  2  1  0
  2  3  2  0
  2  4  2  0
  2  5  1  0
  5  6  1  0
  6  7  1  0
  7  8  2  0
  8  9  1  0
  9 10  2  0
 10 11  1  0
 11 12  1  0
 11 13  2  0
 13  7  1  0
A    1
 N1 
A    2
 S1 
A    3
 O1 
A    4
 O2 
A    5
 C1 
A    6
 C2 
A    7
 C3 
A    8
 C4 
A    9
 C5 
A   10
 C6 
A   11
 C7 
A   12
CL1 
A   13
 C8 
M  END
>  <ref_pdb>  (908) 
Ax0310a

>  <ref_mols>  (908) 
Ax0446a,Ax1080a,Ax0812a,Ax0719a,Ax1140a,Ax0528a,Ax0310a

>  <original SMILES>  (908) 
NS(=O)(=O)CCc1cccc(Cl)c1

>  <rationale>  (908) 
info info set:sulfonimide_whole;hbond:G127+E85; 

>  <experiment>  (908) 
sulfonimide_whole

>  <cluster_label>  (908) 
3

>  <cluster_rank>  (908) 
565

>  <N_interactions>  (908) 
2

>  <∆∆G>  (908) 
-2.492793

>  <comRMSD>  (908) 
0.877618

>  <ROCS_TanimotoCombo>  (908) 
0.339

>  <ROCS_ShapeTanimoto>  (908) 
0.162

>  <ROCS_ColorTanimoto>  (908) 
0.177

$$$$
EN300_130788
     RDKit          3D

 12 12  0  0  0  0  0  0  0  0999 V2000
   35.2125   14.7855    8.6193 N   0  0  0  0  0  0  0  0  0  0  0  0
   33.7620   13.9658    8.6530 S   0  0  0  0  0  6  0  0  0  0  0  0
   34.1489   12.7703    9.2726 O   0  0  0  0  0  0  0  0  0  0  0  0
   32.7679   14.8258    9.2581 O   0  0  0  0  0  0  0  0  0  0  0  0
   33.4321   13.5897    6.9308 C   0  0  0  0  0  0  0  0  0  0  0  0
   32.0016   13.1158    6.7405 C   0  0  0  0  0  0  0  0  0  0  0  0
   31.9510   11.7068    7.1840 C   0  0  2  0  0  0  0  0  0  0  0  0
   32.8880   10.8098    6.4326 C   0  0  0  0  0  0  0  0  0  0  0  0
   32.7347    9.2428    6.3961 C   0  0  0  0  0  0  0  0  0  0  0  0
   31.6326    9.0808    7.5503 C   0  0  0  0  0  0  0  0  0  0  0  0
   30.5872   10.0890    7.9818 C   0  0  0  0  0  0  0  0  0  0  0  0
   30.6343   11.2113    7.1696 O   0  0  0  0  0  0  0  0  0  0  0  0
  1  2  1  0
  2  3  2  0
  2  4  2  0
  2  5  1  0
  5  6  1  0
  7  6  1  6
  7  8  1  0
  8  9  1  0
  9 10  1  0
 10 11  1  0
 11 12  1  0
 12  7  1  0
A    1
 N1 
A    2
 S1 
A    3
 O1 
A    4
 O2 
A    5
 C1 
A    6
 C2 
A    7
 C3 
A    8
 C4 
A    9
 C5 
A   10
 C6 
A   11
 C7 
A   12
 O3 
M  END
>  <ref_pdb>  (909) 
Ax0310a

>  <ref_mols>  (909) 
Ax0446a,Ax1080a,Ax0812a,Ax0719a,Ax1140a,Ax0528a,Ax0310a

>  <original SMILES>  (909) 
NS(=O)(=O)CC[C@@H]1CCCCO1

>  <rationale>  (909) 
info info set:sulfonimide_whole;hbond:S87+G127+E85; 

>  <experiment>  (909) 
sulfonimide_whole

>  <cluster_label>  (909) 
3

>  <cluster_rank>  (909) 
566

>  <N_interactions>  (909) 
3

>  <∆∆G>  (909) 
-1.796287

>  <comRMSD>  (909) 
0.669349

>  <ROCS_TanimotoCombo>  (909) 
0.329

>  <ROCS_ShapeTanimoto>  (909) 
0.156

>  <ROCS_ColorTanimoto>  (909) 
0.173

$$$$
Z729207998
     RDKit          3D

 25 28  0  0  0  0  0  0  0  0999 V2000
   36.6265   13.1279    9.6815 O   0  0  0  0  0  0  0  0  0  0  0  0
   36.5530   13.9815    8.8342 C   0  0  0  0  0  0  0  0  0  0  0  0
   35.2058   14.6613    8.6815 C   0  0  0  0  0  0  0  0  0  0  0  0
   34.2713   13.6968    8.7952 N   0  0  0  0  0  0  0  0  0  0  0  0
   32.8126   13.8342    8.6845 C   0  0  0  0  0  0  0  0  0  0  0  0
   31.9443   14.1530    9.6411 N   0  0  0  0  0  0  0  0  0  0  0  0
   30.6899   14.1308    9.1359 C   0  0  0  0  0  0  0  0  0  0  0  0
   29.3126   14.4067    9.7232 C   0  0  0  0  0  0  0  0  0  0  0  0
   28.1667   14.2614    8.7891 C   0  0  0  0  0  0  0  0  0  0  0  0
   28.3596   13.8601    7.3669 C   0  0  0  0  0  0  0  0  0  0  0  0
   29.6296   13.6091    6.8343 C   0  0  0  0  0  0  0  0  0  0  0  0
   30.7910   13.7344    7.6438 C   0  0  0  0  0  0  0  0  0  0  0  0
   32.1700   13.6148    7.4670 N   0  0  0  0  0  0  0  0  0  0  0  0
   32.8443   13.3379    6.2116 C   0  0  0  0  0  0  0  0  0  0  0  0
   33.2316   11.9930    6.0616 C   0  0  0  0  0  0  0  0  0  0  0  0
   34.4854   11.7489    5.2607 C   0  0  0  0  0  0  0  0  0  0  0  0
   35.4966   12.9425    4.5277 Cl  0  0  0  0  0  0  0  0  0  0  0  0
   34.8096   10.3201    5.1396 C   0  0  0  0  0  0  0  0  0  0  0  0
   33.9828    9.2947    5.7612 C   0  0  0  0  0  0  0  0  0  0  0  0
   32.8255    9.6877    6.5130 C   0  0  0  0  0  0  0  0  0  0  0  0
   31.9380    8.7302    7.2091 C   0  0  0  0  0  0  0  0  0  0  0  0
   30.7564    9.2006    7.9763 C   0  0  0  0  0  0  0  0  0  0  0  0
   30.5665   10.5429    7.9782 C   0  0  0  0  0  0  0  0  0  0  0  0
   31.3803   11.4014    7.3406 N   0  0  0  0  0  0  0  0  0  0  0  0
   32.4673   11.0056    6.6448 C   0  0  0  0  0  0  0  0  0  0  0  0
  1  2  1  0
  2  3  1  0
  3  4  1  0
  4  5  1  0
  5  6  2  0
  6  7  1  0
  7  8  2  0
  8  9  1  0
  9 10  2  0
 10 11  1  0
 11 12  2  0
 12 13  1  0
 13 14  1  0
 14 15  1  0
 15 16  2  0
 16 17  1  0
 16 18  1  0
 18 19  2  0
 19 20  1  0
 20 21  2  0
 21 22  1  0
 22 23  2  0
 23 24  1  0
 24 25  2  0
 13  5  1  0
 25 15  1  0
 12  7  1  0
 25 20  1  0
A    1
 O1 
A    2
 C1 
A    3
 C2 
A    4
 N1 
A    5
 C3 
A    6
 N2 
A    7
 C4 
A    8
 C5 
A    9
 C6 
A   10
 C7 
A   11
 C8 
A   12
 C9 
A   13
 N3 
A   14
 C10
A   15
 C11
A   16
 C12
A   17
CL1 
A   18
 C13
A   19
 C14
A   20
 C15
A   21
 C16
A   22
 C17
A   23
 C18
A   24
 N4 
A   25
 C19
M  END
>  <ref_pdb>  (910) 
Ax0310a

>  <ref_mols>  (910) 
Ax0446a,Ax1080a,Ax0812a,Ax0719a,Ax1140a,Ax0528a,Ax0310a

>  <original SMILES>  (910) 
OCCNc1nc2ccccc2n1Cc1c(Cl)ccc2cccnc12

>  <rationale>  (910) 
info info set:screening_whole;hbond:S87+G127+E85; hydroph_interaction:Y90; pistack:H21; 

>  <experiment>  (910) 
screening_whole

>  <cluster_label>  (910) 
3

>  <cluster_rank>  (910) 
567

>  <N_interactions>  (910) 
6

>  <∆∆G>  (910) 
-5.052839

>  <comRMSD>  (910) 
0.828938

>  <ROCS_TanimotoCombo>  (910) 
0.457

>  <ROCS_ShapeTanimoto>  (910) 
0.26

>  <ROCS_ColorTanimoto>  (910) 
0.197

$$$$
EN300_6509684
     RDKit          3D

 12 12  0  0  0  0  0  0  0  0999 V2000
   35.2401    9.3143    4.0523 C   0  0  0  0  0  0  0  0  0  0  0  0
   34.4855    8.7926    5.1533 N   0  0  0  0  0  0  0  0  0  0  0  0
   33.5193    9.4852    5.7728 C   0  0  0  0  0  0  0  0  0  0  0  0
   33.5225   11.0583    5.4705 C   0  0  0  0  0  0  0  0  0  0  0  0
   32.3394   11.5184    6.3040 C   0  0  0  0  0  0  0  0  0  0  0  0
   31.4671   10.6314    7.1543 C   0  0  0  0  0  0  0  0  0  0  0  0
   30.3595   11.3201    7.8783 C   0  0  0  0  0  0  0  0  0  0  0  0
   29.9915   10.8319    8.8791 O   0  0  0  0  0  0  0  0  0  0  0  0
   29.8955   12.4321    7.2612 O   0  0  0  0  0  0  0  0  0  0  0  0
   28.6366   12.9058    7.7663 C   0  0  0  0  0  0  0  0  0  0  0  0
   31.7120    9.3185    7.2188 C   0  0  0  0  0  0  0  0  0  0  0  0
   32.7119    8.7835    6.5405 N   0  0  0  0  0  0  0  0  0  0  0  0
  1  2  1  0
  2  3  1  0
  3  4  2  0
  4  5  1  0
  5  6  2  0
  6  7  1  0
  7  8  2  0
  7  9  1  0
  9 10  1  0
  6 11  1  0
 11 12  2  0
 12  3  1  0
A    1
 C1 
A    2
 N1 
A    3
 C2 
A    4
 C3 
A    5
 C4 
A    6
 C5 
A    7
 C6 
A    8
 O1 
A    9
 O2 
A   10
 C7 
A   11
 C8 
A   12
 N2 
M  END
>  <ref_pdb>  (911) 
Ax0310a

>  <ref_mols>  (911) 
Ax0446a,Ax1080a,Ax0812a,Ax0719a,Ax1140a,Ax0528a,Ax0310a

>  <original SMILES>  (911) 
CNc1ccc(C(=O)OC)cn1

>  <rationale>  (911) 
info info set:bb_densepocket2;hbond:S105; hydroph_interaction:P107; 

>  <experiment>  (911) 
bb_densepocket2

>  <cluster_label>  (911) 
3

>  <cluster_rank>  (911) 
568

>  <N_interactions>  (911) 
2

>  <∆∆G>  (911) 
-3.810782

>  <comRMSD>  (911) 
0.5833

>  <ROCS_TanimotoCombo>  (911) 
0.629

>  <ROCS_ShapeTanimoto>  (911) 
0.224

>  <ROCS_ColorTanimoto>  (911) 
0.405

$$$$
EN300_7399288
     RDKit          3D

 13 13  0  0  0  0  0  0  0  0999 V2000
   29.2538    8.6812   10.2199 C   0  0  0  0  0  0  0  0  0  0  0  0
   29.9497    8.3466    9.1256 C   0  0  0  0  0  0  0  0  0  0  0  0
   29.8459    6.9632    9.1506 C   0  0  0  0  0  0  0  0  0  0  0  0
   29.1591    8.8102    8.0864 C   0  0  0  0  0  0  0  0  0  0  0  0
   31.2000    8.9285    8.8257 O   0  0  0  0  0  0  0  0  0  0  0  0
   31.0855   10.1311    8.2259 C   0  0  0  0  0  0  0  0  0  0  0  0
   30.3609   11.0398    8.5633 O   0  0  0  0  0  0  0  0  0  0  0  0
   31.9148   10.1711    7.1887 N   0  0  0  0  0  0  0  0  0  0  0  0
   32.3334   11.3079    6.4820 C   0  0  0  0  0  0  0  0  0  0  0  0
   33.2794   10.9433    5.3801 C   0  0  0  0  0  0  0  0  0  0  0  0
   34.0828   11.8714    4.2285 Cl  0  0  0  0  0  0  0  0  0  0  0  0
   33.2904    9.4257    5.6307 C   0  0  0  0  0  0  0  0  0  0  0  0
   32.4948    9.0419    6.6630 N   0  0  0  0  0  0  0  0  0  0  0  0
  1  2  1  0
  2  3  1  0
  2  4  1  0
  2  5  1  0
  5  6  1  0
  6  7  2  0
  6  8  1  0
  8  9  1  0
  9 10  2  0
 10 11  1  0
 10 12  1  0
 12 13  2  0
 13  8  1  0
A    1
 C1 
A    2
 C2 
A    3
 C3 
A    4
 C4 
A    5
 O1 
A    6
 C5 
A    7
 O2 
A    8
 N1 
A    9
 C6 
A   10
 C7 
A   11
CL1 
A   12
 C8 
A   13
 N2 
M  END
>  <ref_pdb>  (912) 
Ax0310a

>  <ref_mols>  (912) 
Ax0446a,Ax1080a,Ax0812a,Ax0719a,Ax1140a,Ax0528a,Ax0310a

>  <original SMILES>  (912) 
CC(C)(C)OC(=O)n1cc(Cl)cn1

>  <rationale>  (912) 
info info set:bb_densepocket2;hydroph_interaction:V124+D109; 

>  <experiment>  (912) 
bb_densepocket2

>  <cluster_label>  (912) 
3

>  <cluster_rank>  (912) 
569

>  <N_interactions>  (912) 
3

>  <∆∆G>  (912) 
-1.266977

>  <comRMSD>  (912) 
0.471005

>  <ROCS_TanimotoCombo>  (912) 
0.614

>  <ROCS_ShapeTanimoto>  (912) 
0.201

>  <ROCS_ColorTanimoto>  (912) 
0.413

$$$$
EN300_37375202
     RDKit          3D

 15 16  0  0  0  0  0  0  0  0999 V2000
   28.0525   14.0250    7.2513 C   0  0  0  0  0  0  0  0  0  0  0  0
   28.7638   13.3392    8.4061 C   0  0  0  0  0  0  0  0  0  0  0  0
   29.5108   12.2117    7.9404 O   0  0  0  0  0  0  0  0  0  0  0  0
   30.8077   12.2621    8.3115 C   0  0  0  0  0  0  0  0  0  0  0  0
   31.2342   13.1484    9.0330 O   0  0  0  0  0  0  0  0  0  0  0  0
   31.6475   11.1735    7.6777 C   0  0  2  0  0  0  0  0  0  0  0  0
   33.0085   11.4972    7.0347 C   0  0  0  0  0  0  0  0  0  0  0  0
   32.6476   10.3082    6.0779 C   0  0  2  0  0  0  0  0  0  0  0  0
   33.7197   10.1119    5.0045 C   0  0  0  0  0  0  0  0  0  0  0  0
   34.5047    8.8813    5.1306 N   0  0  0  0  0  0  0  0  0  0  0  0
   31.5328   11.4238    6.1512 C   0  0  0  0  0  0  0  0  0  0  0  0
   31.9728    9.1038    6.6116 O   0  0  0  0  0  0  0  0  0  0  0  0
   31.3217    9.6307    7.7687 C   0  0  0  0  0  0  0  0  0  0  0  0
   29.9013    9.5246    8.0808 C   0  0  0  0  0  0  0  0  0  0  0  0
   31.2808    8.6137    8.8373 C   0  0  0  0  0  0  0  0  0  0  0  0
  1  2  1  0
  2  3  1  0
  3  4  1  0
  4  5  2  0
  6  4  1  1
  6  7  1  0
  7  8  1  0
  8  9  1  6
  9 10  1  0
  8 11  1  0
  8 12  1  0
 12 13  1  0
 13 14  1  0
 13 15  1  0
 11  6  1  0
 13  6  1  0
A    1
 C1 
A    2
 C2 
A    3
 O1 
A    4
 C3 
A    5
 O2 
A    6
 C4 
A    7
 C5 
A    8
 C6 
A    9
 C7 
A   10
 N1 
A   11
 C8 
A   12
 O3 
A   13
 C9 
A   14
 C10
A   15
 C11
M  END
>  <ref_pdb>  (913) 
Ax0310a

>  <ref_mols>  (913) 
Ax0446a,Ax1080a,Ax0812a,Ax0719a,Ax1140a,Ax0528a,Ax0310a

>  <original SMILES>  (913) 
CCOC(=O)[C@]12C[C@](CN)(C1)OC2(C)C

>  <rationale>  (913) 
info info set:bb_densepocket;hbond:S105+G127; hydroph_interaction:P107+V124; 

>  <experiment>  (913) 
bb_densepocket

>  <cluster_label>  (913) 
3

>  <cluster_rank>  (913) 
570

>  <N_interactions>  (913) 
4

>  <∆∆G>  (913) 
-1.978869

>  <comRMSD>  (913) 
0.995076

>  <ROCS_TanimotoCombo>  (913) 
0.733

>  <ROCS_ShapeTanimoto>  (913) 
0.258

>  <ROCS_ColorTanimoto>  (913) 
0.475

$$$$
EN300_801048
     RDKit          3D

 16 17  0  0  0  0  0  0  0  0999 V2000
   30.2381    9.3007    9.5909 C   0  0  0  0  0  0  0  0  0  0  0  0
   30.1981    8.9168    8.3223 C   0  0  0  0  0  0  0  0  0  0  0  0
   28.7538    8.9314    8.2540 C   0  0  0  0  0  0  0  0  0  0  0  0
   30.6470    7.6049    8.4345 C   0  0  0  0  0  0  0  0  0  0  0  0
   31.1665    9.7791    7.5252 C   0  0  0  0  0  0  0  0  0  0  0  0
   32.1120    9.0916    6.7978 N   0  0  0  0  0  0  0  0  0  0  0  0
   33.0878    9.7971    5.9877 C   0  0  0  0  0  0  0  0  0  0  0  0
   34.1511    9.0655    5.1308 C   0  0  0  0  0  0  0  0  0  0  0  0
   35.1126    9.9316    4.3412 C   0  0  0  0  0  0  0  0  0  0  0  0
   34.9746   11.4436    4.4378 C   0  0  0  0  0  0  0  0  0  0  0  0
   36.0642   12.4155    3.5462 Cl  0  0  0  0  0  0  0  0  0  0  0  0
   33.9644   11.9813    5.2470 C   0  0  0  0  0  0  0  0  0  0  0  0
   33.0847   11.1578    5.9677 C   0  0  0  0  0  0  0  0  0  0  0  0
   32.0475   11.9173    6.7844 C   0  0  0  0  0  0  0  0  0  0  0  0
   31.1200   11.1878    7.5337 C   0  0  0  0  0  0  0  0  0  0  0  0
   30.1881   11.8918    8.2538 O   0  0  0  0  0  0  0  0  0  0  0  0
  1  2  1  0
  2  3  1  0
  2  4  1  0
  2  5  1  0
  5  6  2  0
  6  7  1  0
  7  8  2  0
  8  9  1  0
  9 10  2  0
 10 11  1  0
 10 12  1  0
 12 13  2  0
 13 14  1  0
 14 15  2  0
 15 16  1  0
 15  5  1  0
 13  7  1  0
A    1
 C1 
A    2
 C2 
A    3
 C3 
A    4
 C4 
A    5
 C5 
A    6
 N1 
A    7
 C6 
A    8
 C7 
A    9
 C8 
A   10
 C9 
A   11
CL1 
A   12
 C10
A   13
 C11
A   14
 C12
A   15
 C13
A   16
 O1 
M  END
>  <ref_pdb>  (914) 
Ax0310a

>  <ref_mols>  (914) 
Ax0446a,Ax1080a,Ax0812a,Ax0719a,Ax1140a,Ax0528a,Ax0310a

>  <original SMILES>  (914) 
CC(C)(C)c1nc2ccc(Cl)cc2cc1O

>  <rationale>  (914) 
info info set:bb_densepocket2;hbond:S125; 

>  <experiment>  (914) 
bb_densepocket2

>  <cluster_label>  (914) 
3

>  <cluster_rank>  (914) 
571

>  <N_interactions>  (914) 
1

>  <∆∆G>  (914) 
-4.828925

>  <comRMSD>  (914) 
0.605213

>  <ROCS_TanimotoCombo>  (914) 
0.618

>  <ROCS_ShapeTanimoto>  (914) 
0.27

>  <ROCS_ColorTanimoto>  (914) 
0.347

$$$$
EN300_18084695
     RDKit          3D

 22 24  0  0  0  0  0  0  0  0999 V2000
   33.3564   13.7503    5.3188 C   0  0  0  0  0  0  0  0  0  0  0  0
   33.6472   12.2965    5.3955 C   0  0  0  0  0  0  0  0  0  0  0  0
   34.7021   11.7363    4.7912 C   0  0  0  0  0  0  0  0  0  0  0  0
   34.9275   10.3287    4.8785 C   0  0  0  0  0  0  0  0  0  0  0  0
   34.0810    9.5637    5.5661 C   0  0  0  0  0  0  0  0  0  0  0  0
   32.9786   10.0882    6.2184 N   0  0  0  0  0  0  0  0  0  0  0  0
   32.1973    9.2771    6.9994 C   0  0  0  0  0  0  0  0  0  0  0  0
   32.3969    8.1060    7.1951 O   0  0  0  0  0  0  0  0  0  0  0  0
   31.0466    9.8478    7.6397 C   0  0  0  0  0  0  0  0  0  0  0  0
   30.1946    8.8796    8.3765 C   0  0  0  0  0  0  0  0  0  0  0  0
   30.5495    8.2633    9.3623 O   0  0  0  0  0  0  0  0  0  0  0  0
   30.8282   11.1688    7.5073 C   0  0  0  0  0  0  0  0  0  0  0  0
   29.7247   11.7125    8.0865 N   0  0  0  0  0  0  0  0  0  0  0  0
   29.2666   13.0090    8.2413 C   0  0  0  0  0  0  0  0  0  0  0  0
   27.9941   13.4410    7.8955 C   0  0  0  0  0  0  0  0  0  0  0  0
   27.6207   14.7585    8.0947 C   0  0  0  0  0  0  0  0  0  0  0  0
   28.5048   15.6689    8.6400 C   0  0  0  0  0  0  0  0  0  0  0  0
   29.7751   15.2589    8.9938 C   0  0  0  0  0  0  0  0  0  0  0  0
   30.1427   13.9486    8.7881 C   0  0  0  0  0  0  0  0  0  0  0  0
   31.3848   13.5883    9.1302 F   0  0  0  0  0  0  0  0  0  0  0  0
   31.6965   11.9511    6.7876 N   0  0  0  0  0  0  0  0  0  0  0  0
   32.7068   11.4310    6.1818 C   0  0  0  0  0  0  0  0  0  0  0  0
  1  2  1  0
  2  3  2  0
  3  4  1  0
  4  5  2  0
  5  6  1  0
  6  7  1  0
  7  8  2  0
  7  9  1  0
  9 10  1  0
 10 11  2  0
  9 12  2  0
 12 13  1  0
 13 14  1  0
 14 15  2  0
 15 16  1  0
 16 17  2  0
 17 18  1  0
 18 19  2  0
 19 20  1  0
 12 21  1  0
 21 22  2  0
 22  2  1  0
 22  6  1  0
 19 14  1  0
A    1
 C1 
A    2
 C2 
A    3
 C3 
A    4
 C4 
A    5
 C5 
A    6
 N1 
A    7
 C6 
A    8
 O1 
A    9
 C7 
A   10
 C8 
A   11
 O2 
A   12
 C9 
A   13
 N2 
A   14
 C10
A   15
 C11
A   16
 C12
A   17
 C13
A   18
 C14
A   19
 C15
A   20
 F1 
A   21
 N3 
A   22
 C16
M  END
>  <ref_pdb>  (915) 
Ax0310a

>  <ref_mols>  (915) 
Ax0446a,Ax1080a,Ax0812a,Ax0719a,Ax1140a,Ax0528a,Ax0310a

>  <original SMILES>  (915) 
Cc1cccn2c(=O)c(C=O)c(Nc3ccccc3F)nc12

>  <rationale>  (915) 
info info set:bb_whole;hbond:S105+G127; hydroph_interaction:Y89+Y90; 

>  <experiment>  (915) 
bb_whole

>  <cluster_label>  (915) 
3

>  <cluster_rank>  (915) 
572

>  <N_interactions>  (915) 
4

>  <∆∆G>  (915) 
-5.294431

>  <comRMSD>  (915) 
0.421108

>  <ROCS_TanimotoCombo>  (915) 
0.414

>  <ROCS_ShapeTanimoto>  (915) 
0.283

>  <ROCS_ColorTanimoto>  (915) 
0.131

$$$$
Z1198182131
     RDKit          3D

 14 16  0  0  0  0  0  0  0  0999 V2000
   29.7776   12.9309    7.5764 C   0  0  0  0  0  0  0  0  0  0  0  0
   30.9692   13.1874    6.8822 N   0  0  0  0  0  0  0  0  0  0  0  0
   31.6545   11.9850    6.8535 C   0  0  0  0  0  0  0  0  0  0  0  0
   30.8947   11.0141    7.5109 C   0  0  0  0  0  0  0  0  0  0  0  0
   29.7246   11.6191    7.9591 N   0  0  0  0  0  0  0  0  0  0  0  0
   31.3286    9.7043    7.6309 C   0  0  0  0  0  0  0  0  0  0  0  0
   32.3069    9.3844    6.6791 C   0  0  0  0  0  0  0  0  0  0  0  0
   33.3927   10.3870    6.6315 N   0  0  0  0  0  0  0  0  0  0  0  0
   33.0177   11.7590    6.2218 C   0  0  0  0  0  0  0  0  0  0  0  0
   33.9926   12.8273    6.7101 C   0  0  0  0  0  0  0  0  0  0  0  0
   35.2144   12.9370    5.7888 C   0  0  0  0  0  0  0  0  0  0  0  0
   35.4756   11.7944    4.8515 C   0  0  0  0  0  0  0  0  0  0  0  0
   34.2940   11.1177    4.2107 C   0  0  0  0  0  0  0  0  0  0  0  0
   33.0840   11.6167    4.6983 C   0  0  0  0  0  0  0  0  0  0  0  0
  1  2  2  0
  2  3  1  0
  3  4  2  0
  4  5  1  0
  4  6  1  0
  6  7  1  0
  7  8  1  0
  8  9  1  0
  9 10  1  0
 10 11  1  0
 11 12  1  0
 12 13  1  0
 13 14  1  0
  5  1  1  0
 14  9  1  0
  9  3  1  0
A    1
 C1 
A    2
 N1 
A    3
 C2 
A    4
 C3 
A    5
 N2 
A    6
 C4 
A    7
 C5 
A    8
 N3 
A    9
 C6 
A   10
 C7 
A   11
 C8 
A   12
 C9 
A   13
 C10
A   14
 C11
M  END
>  <ref_pdb>  (916) 
Ax0310a

>  <ref_mols>  (916) 
Ax0446a,Ax1080a,Ax0812a,Ax0719a,Ax1140a,Ax0528a,Ax0310a

>  <original SMILES>  (916) 
c1nc2c([nH]1)CCNC21CCCCC1

>  <rationale>  (916) 
info info set:3d;hbond:G127; hydroph_interaction:P107; 

>  <experiment>  (916) 
3d

>  <cluster_label>  (916) 
3

>  <cluster_rank>  (916) 
573

>  <N_interactions>  (916) 
2

>  <∆∆G>  (916) 
-0.914061

>  <comRMSD>  (916) 
0.829738

>  <ROCS_TanimotoCombo>  (916) 
0.314

>  <ROCS_ShapeTanimoto>  (916) 
0.204

>  <ROCS_ColorTanimoto>  (916) 
0.11

$$$$
EN300_1295680
     RDKit          3D

 12 12  0  0  0  0  0  0  0  0999 V2000
   29.3755    7.6432    8.4820 C   0  0  0  0  0  0  0  0  0  0  0  0
   30.1246    8.8708    8.6813 C   0  0  0  0  0  0  0  0  0  0  0  0
   29.7628    8.6045   10.0073 C   0  0  0  0  0  0  0  0  0  0  0  0
   31.4702    8.6179    8.3189 O   0  0  0  0  0  0  0  0  0  0  0  0
   31.9324    9.4737    7.3482 C   0  0  0  0  0  0  0  0  0  0  0  0
   32.8215    8.9347    6.5001 N   0  0  0  0  0  0  0  0  0  0  0  0
   33.3314    9.6983    5.5463 C   0  0  0  0  0  0  0  0  0  0  0  0
   32.9972   11.1605    5.3174 C   0  0  0  0  0  0  0  0  0  0  0  0
   33.5530   11.8651    4.3322 F   0  0  0  0  0  0  0  0  0  0  0  0
   31.9811   11.7668    6.2823 C   0  0  0  0  0  0  0  0  0  0  0  0
   31.4473   10.8164    7.3443 C   0  0  0  0  0  0  0  0  0  0  0  0
   30.5088   11.3204    8.2546 N   0  0  0  0  0  0  0  0  0  0  0  0
  1  2  1  0
  2  3  1  0
  2  4  1  0
  4  5  1  0
  5  6  2  0
  6  7  1  0
  7  8  2  0
  8  9  1  0
  8 10  1  0
 10 11  2  0
 11 12  1  0
 11  5  1  0
A    1
 C1 
A    2
 C2 
A    3
 C3 
A    4
 O1 
A    5
 C4 
A    6
 N1 
A    7
 C5 
A    8
 C6 
A    9
 F1 
A   10
 C7 
A   11
 C8 
A   12
 N2 
M  END
>  <ref_pdb>  (917) 
Ax0310a

>  <ref_mols>  (917) 
Ax0446a,Ax1080a,Ax0812a,Ax0719a,Ax1140a,Ax0528a,Ax0310a

>  <original SMILES>  (917) 
CC(C)Oc1ncc(F)cc1N

>  <rationale>  (917) 
info info set:bb_densepocket2;hbond:S125; hydroph_interaction:P107+V124+D109; 

>  <experiment>  (917) 
bb_densepocket2

>  <cluster_label>  (917) 
3

>  <cluster_rank>  (917) 
574

>  <N_interactions>  (917) 
4

>  <∆∆G>  (917) 
-1.396011

>  <comRMSD>  (917) 
0.465153

>  <ROCS_TanimotoCombo>  (917) 
0.627

>  <ROCS_ShapeTanimoto>  (917) 
0.214

>  <ROCS_ColorTanimoto>  (917) 
0.413

$$$$
EN300_738582
     RDKit          3D

 13 15  0  0  0  0  0  0  0  0999 V2000
   30.1878   11.4719    8.3537 N   0  0  0  0  0  0  0  0  0  0  0  0
   31.1591   10.7774    7.6265 C   0  0  0  0  0  0  0  0  0  0  0  0
   31.2567    9.2897    7.6201 C   0  0  0  0  0  0  0  0  0  0  0  0
   32.1740    8.5978    6.9170 N   0  0  0  0  0  0  0  0  0  0  0  0
   33.0202    9.3758    6.1820 C   0  0  0  0  0  0  0  0  0  0  0  0
   34.0293    8.8644    5.3717 N   0  0  0  0  0  0  0  0  0  0  0  0
   34.7556    9.8508    4.7298 C   0  0  0  0  0  0  0  0  0  0  0  0
   34.2191   11.0394    5.1253 C   0  0  0  0  0  0  0  0  0  0  0  0
   33.0431   10.7609    6.1041 C   0  0  0  0  0  0  0  0  0  0  0  0
   32.0867   11.4554    6.8649 C   0  0  0  0  0  0  0  0  0  0  0  0
   32.1937   12.9508    6.7720 C   0  0  0  0  0  0  0  0  0  0  0  0
   33.6201   13.3007    6.8237 C   0  0  0  0  0  0  0  0  0  0  0  0
   32.9353   13.5101    8.1077 C   0  0  0  0  0  0  0  0  0  0  0  0
  1  2  1  0
  2  3  2  0
  3  4  1  0
  4  5  2  0
  5  6  1  0
  6  7  1  0
  7  8  2  0
  8  9  1  0
  9 10  2  0
 10 11  1  0
 11 12  1  0
 12 13  1  0
 10  2  1  0
 13 11  1  0
  9  5  1  0
A    1
 N1 
A    2
 C1 
A    3
 C2 
A    4
 N2 
A    5
 C3 
A    6
 N3 
A    7
 C4 
A    8
 C5 
A    9
 C6 
A   10
 C7 
A   11
 C8 
A   12
 C9 
A   13
 C10
M  END
>  <ref_pdb>  (918) 
Ax0310a

>  <ref_mols>  (918) 
Ax0446a,Ax1080a,Ax0812a,Ax0719a,Ax1140a,Ax0528a,Ax0310a

>  <original SMILES>  (918) 
Nc1cnc2[nH]ccc2c1C1CC1

>  <rationale>  (918) 
info info set:bb_densepocket2;hbond:S105+S125; 

>  <experiment>  (918) 
bb_densepocket2

>  <cluster_label>  (918) 
3

>  <cluster_rank>  (918) 
575

>  <N_interactions>  (918) 
2

>  <∆∆G>  (918) 
-4.251707

>  <comRMSD>  (918) 
0.349466

>  <ROCS_TanimotoCombo>  (918) 
0.618

>  <ROCS_ShapeTanimoto>  (918) 
0.23

>  <ROCS_ColorTanimoto>  (918) 
0.387

$$$$
Z3773487079
     RDKit          3D

 13 13  0  0  0  0  0  0  0  0999 V2000
   34.6677   13.6422    7.8919 C   0  0  0  0  0  0  0  0  0  0  0  0
   33.6198   13.7121    6.8620 C   0  0  0  0  0  0  0  0  0  0  0  0
   33.5333   12.6336    5.8332 C   0  0  2  0  0  0  0  0  0  0  0  0
   33.2940   13.0776    4.5373 C   0  0  0  0  0  0  0  0  0  0  0  0
   32.4357   11.6003    6.1631 C   0  0  1  0  0  0  0  0  0  0  0  0
   32.9036   10.4842    6.7809 N   0  0  0  0  0  0  0  0  0  0  0  0
   32.0029    9.4575    7.3256 C   0  0  0  0  0  0  0  0  0  0  0  0
   32.2140    8.2767    7.1737 O   0  0  0  0  0  0  0  0  0  0  0  0
   30.8163    9.9848    8.1061 C   0  0  2  0  0  0  0  0  0  0  0  0
   29.8874    8.8168    8.2752 C   0  0  0  0  0  0  0  0  0  0  0  0
   30.3120   11.2323    7.5635 N   0  0  0  0  0  0  0  0  0  0  0  0
   31.2004   12.1877    6.9086 C   0  0  0  0  0  0  0  0  0  0  0  0
   30.9275   13.3685    6.9711 O   0  0  0  0  0  0  0  0  0  0  0  0
  1  2  1  0
  2  3  1  0
  3  4  1  6
  3  5  1  0
  5  6  1  1
  6  7  1  0
  7  8  2  0
  7  9  1  0
  9 10  1  6
  9 11  1  0
 11 12  1  0
 12 13  2  0
 12  5  1  0
A    1
 C1 
A    2
 C2 
A    3
 C3 
A    4
 C4 
A    5
 C5 
A    6
 N1 
A    7
 C6 
A    8
 O1 
A    9
 C7 
A   10
 C8 
A   11
 N2 
A   12
 C9 
A   13
 O2 
M  END
>  <ref_pdb>  (919) 
Ax0310a

>  <ref_mols>  (919) 
Ax0446a,Ax1080a,Ax0812a,Ax0719a,Ax1140a,Ax0528a,Ax0310a

>  <original SMILES>  (919) 
CC[C@H](C)[C@H]1NC(=O)[C@H](C)NC1=O

>  <rationale>  (919) 
info info set:3d;hbond:S87+G127; hydroph_interaction:V124+V84; 

>  <experiment>  (919) 
3d

>  <cluster_label>  (919) 
3

>  <cluster_rank>  (919) 
576

>  <N_interactions>  (919) 
4

>  <∆∆G>  (919) 
-3.237216

>  <comRMSD>  (919) 
0.690449

>  <ROCS_TanimotoCombo>  (919) 
0.317

>  <ROCS_ShapeTanimoto>  (919) 
0.19

>  <ROCS_ColorTanimoto>  (919) 
0.127

$$$$
Z1824427416
     RDKit          3D

 14 16  0  0  0  0  0  0  0  0999 V2000
   30.9177    9.6500    7.9371 C   0  0  0  0  0  0  0  0  0  0  0  0
   31.1611   10.9989    8.0477 C   0  0  0  0  0  0  0  0  0  0  0  0
   32.2548   11.3397    7.2609 C   0  0  0  0  0  0  0  0  0  0  0  0
   32.6433   10.1689    6.6597 N   0  0  0  0  0  0  0  0  0  0  0  0
   31.8466    9.1303    7.0748 C   0  0  0  0  0  0  0  0  0  0  0  0
   33.6901   10.0874    5.7656 C   0  0  0  0  0  0  0  0  0  0  0  0
   34.4363   11.4343    5.5857 C   0  0  0  0  0  0  0  0  0  0  0  0
   34.0832   12.5752    6.4413 N   0  0  0  0  0  0  0  0  0  0  0  0
   32.8807   12.5649    7.0576 C   0  0  0  0  0  0  0  0  0  0  0  0
   32.0071   13.2386    6.2464 C   0  0  0  0  0  0  0  0  0  0  0  0
   30.7781   13.3475    7.1941 C   0  0  0  0  0  0  0  0  0  0  0  0
   30.9800   14.1642    8.3441 O   0  0  0  0  0  0  0  0  0  0  0  0
   32.1944   14.0295    9.0598 C   0  0  0  0  0  0  0  0  0  0  0  0
   33.2474   13.4104    8.3530 C   0  0  0  0  0  0  0  0  0  0  0  0
  1  2  1  0
  2  3  2  0
  3  4  1  0
  4  5  1  0
  4  6  1  0
  6  7  1  0
  7  8  1  0
  8  9  1  0
  9 10  1  0
 10 11  1  0
 11 12  1  0
 12 13  1  0
 13 14  1  0
  5  1  2  0
 14  9  1  0
  9  3  1  0
A    1
 C1 
A    2
 C2 
A    3
 C3 
A    4
 N1 
A    5
 C4 
A    6
 C5 
A    7
 C6 
A    8
 N2 
A    9
 C7 
A   10
 C8 
A   11
 C9 
A   12
 O1 
A   13
 C10
A   14
 C11
M  END
>  <ref_pdb>  (920) 
Ax0310a

>  <ref_mols>  (920) 
Ax0446a,Ax1080a,Ax0812a,Ax0719a,Ax1140a,Ax0528a,Ax0310a

>  <original SMILES>  (920) 
c1cc2n(c1)CCNC21CCOCC1

>  <rationale>  (920) 
info info set:3d;hbond:S87+G127; hydroph_interaction:V84; 

>  <experiment>  (920) 
3d

>  <cluster_label>  (920) 
3

>  <cluster_rank>  (920) 
577

>  <N_interactions>  (920) 
3

>  <∆∆G>  (920) 
-1.207102

>  <comRMSD>  (920) 
0.801867

>  <ROCS_TanimotoCombo>  (920) 
0.305

>  <ROCS_ShapeTanimoto>  (920) 
0.189

>  <ROCS_ColorTanimoto>  (920) 
0.116

$$$$
Z5887682203
     RDKit          3D

 22 25  0  0  0  0  0  0  0  0999 V2000
   27.5164   13.1020    7.0849 C   0  0  0  0  0  0  0  0  0  0  0  0
   28.6691   12.9936    8.0424 C   0  0  1  0  0  0  0  0  0  0  0  0
   29.9037   12.5325    7.4565 N   0  0  0  0  0  0  0  0  0  0  0  0
   30.4568   11.3043    7.9665 C   0  0  0  0  0  0  0  0  0  0  0  0
   30.1763   10.6315    8.9207 O   0  0  0  0  0  0  0  0  0  0  0  0
   31.5245   10.7270    7.1638 C   0  0  0  0  0  0  0  0  0  0  0  0
   31.7271    9.2164    7.3142 C   0  0  0  0  0  0  0  0  0  0  0  0
   32.6312    8.5488    6.6442 N   0  0  0  0  0  0  0  0  0  0  0  0
   33.3421    9.3173    5.8200 C   0  0  0  0  0  0  0  0  0  0  0  0
   34.3094    8.8138    5.0266 N   0  0  0  0  0  0  0  0  0  0  0  0
   34.9298    9.7410    4.2562 C   0  0  0  0  0  0  0  0  0  0  0  0
   36.0578    9.4897    3.2555 C   0  0  0  0  0  0  0  0  0  0  0  0
   35.9335   10.3610    2.1206 C   0  0  0  0  0  0  0  0  0  0  0  0
   37.1617   10.6396    2.8405 C   0  0  0  0  0  0  0  0  0  0  0  0
   34.3447   10.9366    4.5538 C   0  0  0  0  0  0  0  0  0  0  0  0
   33.2668   10.6877    5.5976 C   0  0  0  0  0  0  0  0  0  0  0  0
   32.3304   11.4338    6.2921 C   0  0  0  0  0  0  0  0  0  0  0  0
   29.0851   14.2911    8.4415 C   0  0  0  0  0  0  0  0  0  0  0  0
   30.0848   14.6506    9.2709 C   0  0  0  0  0  0  0  0  0  0  0  0
   30.0286   15.9804    9.2705 C   0  0  0  0  0  0  0  0  0  0  0  0
   29.0070   16.4343    8.4554 C   0  0  0  0  0  0  0  0  0  0  0  0
   28.4045   15.3669    7.9213 O   0  0  0  0  0  0  0  0  0  0  0  0
  2  1  1  6
  2  3  1  0
  3  4  1  0
  4  5  2  0
  4  6  1  0
  6  7  2  0
  7  8  1  0
  8  9  2  0
  9 10  1  0
 10 11  1  0
 11 12  1  0
 12 13  1  0
 13 14  1  0
 11 15  2  0
 15 16  1  0
 16 17  2  0
  2 18  1  0
 18 19  2  0
 19 20  1  0
 20 21  2  0
 21 22  1  0
 17  6  1  0
 22 18  1  0
 16  9  1  0
 14 12  1  0
A    1
 C1 
A    2
 C2 
A    3
 N1 
A    4
 C3 
A    5
 O1 
A    6
 C4 
A    7
 C5 
A    8
 N2 
A    9
 C6 
A   10
 N3 
A   11
 C7 
A   12
 C8 
A   13
 C9 
A   14
 C10
A   15
 C11
A   16
 C12
A   17
 C13
A   18
 C14
A   19
 C15
A   20
 C16
A   21
 C17
A   22
 O2 
M  END
>  <ref_pdb>  (921) 
Ax0310a

>  <ref_mols>  (921) 
Ax0446a,Ax1080a,Ax0812a,Ax0719a,Ax1140a,Ax0528a,Ax0310a

>  <original SMILES>  (921) 
C[C@@H](NC(=O)c1cnc2[nH]c(C3CC3)cc2c1)c1ccco1

>  <rationale>  (921) 
info info set:screening_pocket;hydroph_interaction:P107+Y90; 

>  <experiment>  (921) 
screening_pocket

>  <cluster_label>  (921) 
3

>  <cluster_rank>  (921) 
578

>  <N_interactions>  (921) 
2

>  <∆∆G>  (921) 
-3.140926

>  <comRMSD>  (921) 
0.787084

>  <ROCS_TanimotoCombo>  (921) 
0.664

>  <ROCS_ShapeTanimoto>  (921) 
0.258

>  <ROCS_ColorTanimoto>  (921) 
0.406

$$$$
EN300_380909
     RDKit          3D

 14 15  0  0  0  0  0  0  0  0999 V2000
   34.7405   12.6568    4.6721 C   0  0  0  0  0  0  0  0  0  0  0  0
   34.2377   11.3743    5.2805 C   0  0  0  0  0  0  0  0  0  0  0  0
   34.9896   10.2346    5.1321 N   0  0  0  0  0  0  0  0  0  0  0  0
   34.2713    9.2235    5.8105 O   0  0  0  0  0  0  0  0  0  0  0  0
   33.0765    9.7860    6.3589 C   0  0  0  0  0  0  0  0  0  0  0  0
   32.1073    9.2008    7.0821 N   0  0  0  0  0  0  0  0  0  0  0  0
   31.1261   10.0955    7.4051 C   0  0  0  0  0  0  0  0  0  0  0  0
   31.1021   11.4648    7.0309 C   0  0  0  0  0  0  0  0  0  0  0  0
   29.7735   12.5292    7.4415 S   0  0  0  0  0  6  0  0  0  0  0  0
   30.2381   13.2394    8.8915 N   0  0  0  0  0  0  0  0  0  0  0  0
   28.6297   11.7343    7.6941 O   0  0  0  0  0  0  0  0  0  0  0  0
   29.7206   13.5848    6.4687 O   0  0  0  0  0  0  0  0  0  0  0  0
   32.1488   12.0064    6.2976 C   0  0  0  0  0  0  0  0  0  0  0  0
   33.0967   11.0764    6.0071 C   0  0  0  0  0  0  0  0  0  0  0  0
  1  2  1  0
  2  3  2  0
  3  4  1  0
  4  5  1  0
  5  6  2  0
  6  7  1  0
  7  8  2  0
  8  9  1  0
  9 10  1  0
  9 11  2  0
  9 12  2  0
  8 13  1  0
 13 14  2  0
 14  2  1  0
 14  5  1  0
A    1
 C1 
A    2
 C2 
A    3
 N1 
A    4
 O1 
A    5
 C3 
A    6
 N2 
A    7
 C4 
A    8
 C5 
A    9
 S1 
A   10
 N3 
A   11
 O2 
A   12
 O3 
A   13
 C6 
A   14
 C7 
M  END
>  <ref_pdb>  (922) 
Ax0310a

>  <ref_mols>  (922) 
Ax0446a,Ax1080a,Ax0812a,Ax0719a,Ax1140a,Ax0528a,Ax0310a

>  <original SMILES>  (922) 
Cc1noc2ncc(S(N)(=O)=O)cc12

>  <rationale>  (922) 
info info set:sulfonimide_whole;hbond:S87+S125; hydroph_interaction:P107; 

>  <experiment>  (922) 
sulfonimide_whole

>  <cluster_label>  (922) 
3

>  <cluster_rank>  (922) 
579

>  <N_interactions>  (922) 
3

>  <∆∆G>  (922) 
-4.676583

>  <comRMSD>  (922) 
0.534079

>  <ROCS_TanimotoCombo>  (922) 
0.337

>  <ROCS_ShapeTanimoto>  (922) 
0.197

>  <ROCS_ColorTanimoto>  (922) 
0.14

$$$$
EN300_1116096
     RDKit          3D

 14 14  0  0  0  0  0  0  0  0999 V2000
   28.6790   15.9027    7.8910 C   0  0  0  0  0  0  0  0  0  0  0  0
   29.6924   15.5043    8.7482 O   0  0  0  0  0  0  0  0  0  0  0  0
   29.2132   14.4724    9.5671 C   0  0  0  0  0  0  0  0  0  0  0  0
   28.5854   13.4287    8.6411 C   0  0  0  0  0  0  0  0  0  0  0  0
   29.7498   13.0014    7.7533 C   0  0  0  0  0  0  0  0  0  0  0  0
   30.2614   11.6983    8.1651 N   0  0  0  0  0  0  0  0  0  0  0  0
   31.2565   11.1057    7.3800 C   0  0  0  0  0  0  0  0  0  0  0  0
   32.1992   11.9133    6.4349 C   0  0  0  0  0  0  0  0  0  0  0  0
   33.2136   11.1628    5.6593 C   0  0  0  0  0  0  0  0  0  0  0  0
   33.3009    9.7846    5.7874 C   0  0  0  0  0  0  0  0  0  0  0  0
   34.3504    9.0617    4.9828 C   0  0  0  0  0  0  0  0  0  0  0  0
   32.4275    9.0917    6.6546 C   0  0  0  0  0  0  0  0  0  0  0  0
   31.4373    9.7091    7.4266 C   0  0  0  0  0  0  0  0  0  0  0  0
   30.6122    8.9080    8.2609 N   0  0  0  0  0  0  0  0  0  0  0  0
  1  2  1  0
  2  3  1  0
  3  4  1  0
  4  5  1  0
  5  6  1  0
  6  7  1  0
  7  8  2  0
  8  9  1  0
  9 10  2  0
 10 11  1  0
 10 12  1  0
 12 13  2  0
 13 14  1  0
 13  7  1  0
A    1
 C1 
A    2
 O1 
A    3
 C2 
A    4
 C3 
A    5
 C4 
A    6
 N1 
A    7
 C5 
A    8
 C6 
A    9
 C7 
A   10
 C8 
A   11
 C9 
A   12
 C10
A   13
 C11
A   14
 N2 
M  END
>  <ref_pdb>  (923) 
Ax0310a

>  <ref_mols>  (923) 
Ax0446a,Ax1080a,Ax0812a,Ax0719a,Ax1140a,Ax0528a,Ax0310a

>  <original SMILES>  (923) 
COCCCNc1ccc(C)cc1N

>  <rationale>  (923) 
info info set:bb_densepocket2;hbond:S87+S105+S125; 

>  <experiment>  (923) 
bb_densepocket2

>  <cluster_label>  (923) 
3

>  <cluster_rank>  (923) 
580

>  <N_interactions>  (923) 
3

>  <∆∆G>  (923) 
-7.896031

>  <comRMSD>  (923) 
0.685869

>  <ROCS_TanimotoCombo>  (923) 
0.627

>  <ROCS_ShapeTanimoto>  (923) 
0.228

>  <ROCS_ColorTanimoto>  (923) 
0.4

$$$$
Z1671921890
     RDKit          3D

 15 16  0  0  0  0  0  0  0  0999 V2000
   33.4914   11.0905    5.1361 C   0  0  0  0  0  0  0  0  0  0  0  0
   32.6743   10.4414    6.1534 C   0  0  0  0  0  0  0  0  0  0  0  0
   32.7425    9.1195    6.3102 N   0  0  0  0  0  0  0  0  0  0  0  0
   31.8897    8.8659    7.2835 N   0  0  0  0  0  0  0  0  0  0  0  0
   31.2804    9.9567    7.7486 C   0  0  0  0  0  0  0  0  0  0  0  0
   30.2871    9.7533    8.8320 C   0  0  0  0  0  0  0  0  0  0  0  0
   31.7607   11.0545    7.0524 C   0  0  0  0  0  0  0  0  0  0  0  0
   31.4339   12.6042    7.1608 C   0  0  0  0  0  0  0  0  0  0  0  0
   30.3049   12.8212    8.1010 N   0  0  0  0  0  0  0  0  0  0  0  0
   30.2540   14.2191    8.5560 C   0  0  0  0  0  0  0  0  0  0  0  0
   29.3149   14.5419    9.5193 C   0  0  0  0  0  0  0  0  0  0  0  0
   28.2831   15.4450    8.8757 C   0  0  0  0  0  0  0  0  0  0  0  0
   27.7785   14.7012    7.3357 S   0  0  0  0  0  0  0  0  0  0  0  0
   27.8832   13.0184    7.7539 C   0  0  0  0  0  0  0  0  0  0  0  0
   29.0950   12.4403    7.3776 C   0  0  0  0  0  0  0  0  0  0  0  0
  1  2  1  0
  2  3  2  0
  3  4  1  0
  4  5  1  0
  5  6  1  0
  5  7  2  0
  7  8  1  0
  8  9  1  0
  9 10  1  0
 10 11  1  0
 11 12  1  0
 12 13  1  0
 13 14  1  0
 14 15  1  0
  7  2  1  0
 15  9  1  0
A    1
 C1 
A    2
 C2 
A    3
 N1 
A    4
 N2 
A    5
 C3 
A    6
 C4 
A    7
 C5 
A    8
 C6 
A    9
 N3 
A   10
 C7 
A   11
 C8 
A   12
 C9 
A   13
 S1 
A   14
 C10
A   15
 C11
M  END
>  <ref_pdb>  (924) 
Ax0310a

>  <ref_mols>  (924) 
Ax0446a,Ax1080a,Ax0812a,Ax0719a,Ax1140a,Ax0528a,Ax0310a

>  <original SMILES>  (924) 
Cc1n[nH]c(C)c1CN1CCCSCC1

>  <rationale>  (924) 
info info set:3d;hbond:S105; hydroph_interaction:P107+Y90; 

>  <experiment>  (924) 
3d

>  <cluster_label>  (924) 
3

>  <cluster_rank>  (924) 
581

>  <N_interactions>  (924) 
3

>  <∆∆G>  (924) 
-6.977305

>  <comRMSD>  (924) 
0.879662

>  <ROCS_TanimotoCombo>  (924) 
0.306

>  <ROCS_ShapeTanimoto>  (924) 
0.192

>  <ROCS_ColorTanimoto>  (924) 
0.115

$$$$
EN300_77131
     RDKit          3D

 15 16  0  0  0  0  0  0  0  0999 V2000
   34.6801    8.7868    5.2788 C   0  0  0  0  0  0  0  0  0  0  0  0
   33.4756    9.5411    5.6448 C   0  0  2  0  0  0  0  0  0  0  0  0
   33.4166   10.8613    5.7972 C   0  0  0  0  0  0  0  0  0  0  0  0
   32.3914   11.1742    6.6272 C   0  0  0  0  0  0  0  0  0  0  0  0
   31.8688   12.4366    6.8819 C   0  0  0  0  0  0  0  0  0  0  0  0
   30.6953   12.5311    7.8494 C   0  0  0  0  0  0  0  0  0  0  0  0
   29.9032   14.0478    8.3101 S   0  0  0  0  0  6  0  0  0  0  0  0
   28.6687   13.6479    9.3660 N   0  0  0  0  0  0  0  0  0  0  0  0
   30.8722   14.8284    9.0507 O   0  0  0  0  0  0  0  0  0  0  0  0
   29.2048   14.5334    7.1509 O   0  0  0  0  0  0  0  0  0  0  0  0
   30.2664   11.1841    8.3876 C   0  0  0  0  0  0  0  0  0  0  0  0
   30.8892   10.0064    8.0638 C   0  0  0  0  0  0  0  0  0  0  0  0
   30.2878    8.6028    8.8056 Cl  0  0  0  0  0  0  0  0  0  0  0  0
   31.9477   10.0016    7.1832 C   0  0  0  0  0  0  0  0  0  0  0  0
   32.6969    8.9354    6.7339 O   0  0  0  0  0  0  0  0  0  0  0  0
  2  1  1  1
  2  3  1  0
  3  4  1  0
  4  5  2  0
  5  6  1  0
  6  7  1  0
  7  8  1  0
  7  9  2  0
  7 10  2  0
  6 11  2  0
 11 12  1  0
 12 13  1  0
 12 14  2  0
 14 15  1  0
 15  2  1  0
 14  4  1  0
A    1
 C1 
A    2
 C2 
A    3
 C3 
A    4
 C4 
A    5
 C5 
A    6
 C6 
A    7
 S1 
A    8
 N1 
A    9
 O1 
A   10
 O2 
A   11
 C7 
A   12
 C8 
A   13
CL1 
A   14
 C9 
A   15
 O3 
M  END
>  <ref_pdb>  (925) 
Ax0310a

>  <ref_mols>  (925) 
Ax0446a,Ax1080a,Ax0812a,Ax0719a,Ax1140a,Ax0528a,Ax0310a

>  <original SMILES>  (925) 
C[C@@H]1Cc2cc(S(N)(=O)=O)cc(Cl)c2O1

>  <rationale>  (925) 
info info set:sulfonimide_whole;hbond:S87+S125; 

>  <experiment>  (925) 
sulfonimide_whole

>  <cluster_label>  (925) 
3

>  <cluster_rank>  (925) 
582

>  <N_interactions>  (925) 
2

>  <∆∆G>  (925) 
-4.167795

>  <comRMSD>  (925) 
0.801862

>  <ROCS_TanimotoCombo>  (925) 
0.344

>  <ROCS_ShapeTanimoto>  (925) 
0.2

>  <ROCS_ColorTanimoto>  (925) 
0.144

$$$$
Z729056054
     RDKit          3D

 18 20  0  0  0  0  0  0  0  0999 V2000
   35.2312    9.0554    4.3621 C   0  0  0  0  0  0  0  0  0  0  0  0
   34.0822    8.7258    4.9727 N   0  0  0  0  0  0  0  0  0  0  0  0
   33.2804    9.5757    5.7949 C   0  0  0  0  0  0  0  0  0  0  0  0
   33.5973   11.0270    5.5272 C   0  0  0  0  0  0  0  0  0  0  0  0
   32.7796   11.9930    6.3512 C   0  0  0  0  0  0  0  0  0  0  0  0
   31.7811   11.3575    7.3004 C   0  0  0  0  0  0  0  0  0  0  0  0
   31.0725   12.2896    8.0133 N   0  0  0  0  0  0  0  0  0  0  0  0
   30.0211   13.0806    7.6202 C   0  0  0  0  0  0  0  0  0  0  0  0
   29.5249   13.1455    6.3716 N   0  0  0  0  0  0  0  0  0  0  0  0
   28.4587   13.9539    6.1576 C   0  0  0  0  0  0  0  0  0  0  0  0
   27.7840   14.7237    7.0316 N   0  0  0  0  0  0  0  0  0  0  0  0
   28.2582   14.6870    8.2585 C   0  0  0  0  0  0  0  0  0  0  0  0
   27.6172   15.5325    9.5752 S   0  0  0  0  0  0  0  0  0  0  0  0
   28.7929   14.9294   10.6869 C   0  0  0  0  0  0  0  0  0  0  0  0
   29.7726   14.0270    9.9985 C   0  0  0  0  0  0  0  0  0  0  0  0
   29.3012   13.9639    8.5965 C   0  0  0  0  0  0  0  0  0  0  0  0
   31.6618    9.9667    7.3779 C   0  0  0  0  0  0  0  0  0  0  0  0
   32.3872    9.0821    6.6556 N   0  0  0  0  0  0  0  0  0  0  0  0
  1  2  1  0
  2  3  1  0
  3  4  2  0
  4  5  1  0
  5  6  2  0
  6  7  1  0
  7  8  1  0
  8  9  2  0
  9 10  1  0
 10 11  2  0
 11 12  1  0
 12 13  1  0
 13 14  1  0
 14 15  2  0
 15 16  1  0
  6 17  1  0
 17 18  2  0
 18  3  1  0
 16  8  1  0
 16 12  2  0
A    1
 C1 
A    2
 N1 
A    3
 C2 
A    4
 C3 
A    5
 C4 
A    6
 C5 
A    7
 N2 
A    8
 C6 
A    9
 N3 
A   10
 C7 
A   11
 N4 
A   12
 C8 
A   13
 S1 
A   14
 C9 
A   15
 C10
A   16
 C11
A   17
 C12
A   18
 N5 
M  END
>  <ref_pdb>  (926) 
Ax0310a

>  <ref_mols>  (926) 
Ax0446a,Ax1080a,Ax0812a,Ax0719a,Ax1140a,Ax0528a,Ax0310a

>  <original SMILES>  (926) 
CNc1ccc(Nc2ncnc3sccc23)cn1

>  <rationale>  (926) 
info info set:screening_pocket;hbond:S87+S105+S125+G127; 

>  <experiment>  (926) 
screening_pocket

>  <cluster_label>  (926) 
3

>  <cluster_rank>  (926) 
583

>  <N_interactions>  (926) 
4

>  <∆∆G>  (926) 
-4.981793

>  <comRMSD>  (926) 
0.664164

>  <ROCS_TanimotoCombo>  (926) 
0.631

>  <ROCS_ShapeTanimoto>  (926) 
0.228

>  <ROCS_ColorTanimoto>  (926) 
0.404

$$$$
Z1037335646
     RDKit          3D

 26 29  0  0  0  0  0  0  0  0999 V2000
   31.6575   15.8874   10.0524 C   0  0  0  0  0  0  0  0  0  0  0  0
   30.4095   16.2080    9.4716 O   0  0  0  0  0  0  0  0  0  0  0  0
   29.6298   15.2451    8.8759 C   0  0  0  0  0  0  0  0  0  0  0  0
   28.7146   15.6885    7.7627 C   0  0  0  0  0  0  0  0  0  0  0  0
   27.7361   14.7499    6.9278 C   0  0  0  0  0  0  0  0  0  0  0  0
   27.9033   13.3671    7.4824 C   0  0  0  0  0  0  0  0  0  0  0  0
   28.8140   13.1024    8.5492 C   0  0  0  0  0  0  0  0  0  0  0  0
   28.7286   11.7983    8.7990 O   0  0  0  0  0  0  0  0  0  0  0  0
   29.6576   10.9751    8.3429 C   0  0  0  0  0  0  0  0  0  0  0  0
   29.2816    9.5558    8.6841 C   0  0  0  0  0  0  0  0  0  0  0  0
   30.2340    8.5952    8.1459 C   0  0  0  0  0  0  0  0  0  0  0  0
   31.4051    9.1995    7.3915 C   0  0  0  0  0  0  0  0  0  0  0  0
   32.4681    8.5009    6.7696 N   0  0  0  0  0  0  0  0  0  0  0  0
   33.2555    9.4694    6.2654 N   0  0  0  0  0  0  0  0  0  0  0  0
   32.7529   10.7052    6.5445 C   0  0  0  0  0  0  0  0  0  0  0  0
   33.4267   11.9152    6.1738 C   0  0  0  0  0  0  0  0  0  0  0  0
   33.9680   12.2794    4.8500 C   0  0  0  0  0  0  0  0  0  0  0  0
   34.6872   13.6259    4.7049 C   0  0  0  0  0  0  0  0  0  0  0  0
   34.7918   14.4360    5.8394 C   0  0  0  0  0  0  0  0  0  0  0  0
   34.2805   14.0649    7.0197 C   0  0  0  0  0  0  0  0  0  0  0  0
   33.6116   12.8350    7.1813 C   0  0  0  0  0  0  0  0  0  0  0  0
   33.1256   12.5304    8.3983 O   0  0  0  0  0  0  0  0  0  0  0  0
   33.5078   13.5804    9.1918 C   0  0  0  0  0  0  0  0  0  0  0  0
   31.5537   10.5956    7.2374 N   0  0  0  0  0  0  0  0  0  0  0  0
   30.6749   11.5098    7.7090 N   0  0  0  0  0  0  0  0  0  0  0  0
   29.6566   13.9533    9.2400 C   0  0  0  0  0  0  0  0  0  0  0  0
  1  2  1  0
  2  3  1  0
  3  4  2  0
  4  5  1  0
  5  6  2  0
  6  7  1  0
  7  8  1  0
  8  9  1  0
  9 10  1  0
 10 11  2  0
 11 12  1  0
 12 13  2  0
 13 14  1  0
 14 15  2  0
 15 16  1  0
 16 17  2  0
 17 18  1  0
 18 19  2  0
 19 20  1  0
 20 21  2  0
 21 22  1  0
 22 23  1  0
 15 24  1  0
 24 25  1  0
  7 26  2  0
 26  3  1  0
 25  9  2  0
 24 12  1  0
 21 16  1  0
A    1
 C1 
A    2
 O1 
A    3
 C2 
A    4
 C3 
A    5
 C4 
A    6
 C5 
A    7
 C6 
A    8
 O2 
A    9
 C7 
A   10
 C8 
A   11
 C9 
A   12
 C10
A   13
 N1 
A   14
 N2 
A   15
 C11
A   16
 C12
A   17
 C13
A   18
 C14
A   19
 C15
A   20
 C16
A   21
 C17
A   22
 O3 
A   23
 C18
A   24
 N3 
A   25
 N4 
A   26
 C19
M  END
>  <ref_pdb>  (927) 
Ax0310a

>  <ref_mols>  (927) 
Ax0446a,Ax1080a,Ax0812a,Ax0719a,Ax1140a,Ax0528a,Ax0310a

>  <original SMILES>  (927) 
COc1cccc(Oc2ccc3nnc(-c4ccccc4OC)n3n2)c1

>  <rationale>  (927) 
info info set:screening_whole;hbond:S87+G127; hydroph_interaction:Y89+Y90+V124; pistack:H21; 

>  <experiment>  (927) 
screening_whole

>  <cluster_label>  (927) 
3

>  <cluster_rank>  (927) 
584

>  <N_interactions>  (927) 
7

>  <∆∆G>  (927) 
-2.540006

>  <comRMSD>  (927) 
0.807689

>  <ROCS_TanimotoCombo>  (927) 
0.458

>  <ROCS_ShapeTanimoto>  (927) 
0.287

>  <ROCS_ColorTanimoto>  (927) 
0.171

$$$$
EN300_801665
     RDKit          3D

 18 19  0  0  0  0  0  0  0  0999 V2000
   29.7650    6.9416    9.1400 C   0  0  0  0  0  0  0  0  0  0  0  0
   29.8264    8.3067    9.0036 C   0  0  0  0  0  0  0  0  0  0  0  0
   29.2668    8.7066   10.1700 C   0  0  0  0  0  0  0  0  0  0  0  0
   28.9930    8.7529    8.0546 C   0  0  0  0  0  0  0  0  0  0  0  0
   31.1598    8.8575    8.6860 C   0  0  0  0  0  0  0  0  0  0  0  0
   31.6609    9.6718    7.5378 C   0  0  0  0  0  0  0  0  0  0  0  0
   32.6280    9.1311    6.6744 N   0  0  0  0  0  0  0  0  0  0  0  0
   33.1657    9.9089    5.6066 C   0  0  0  0  0  0  0  0  0  0  0  0
   34.1588    9.6337    4.5736 C   0  0  0  0  0  0  0  0  0  0  0  0
   35.2045    8.1077    4.1695 Br  0  0  0  0  0  0  0  0  0  0  0  0
   34.5089   10.5758    3.6323 C   0  0  0  0  0  0  0  0  0  0  0  0
   33.9915   11.8233    3.5688 C   0  0  0  0  0  0  0  0  0  0  0  0
   33.0525   12.1487    4.5194 C   0  0  0  0  0  0  0  0  0  0  0  0
   32.6503   11.2363    5.4988 C   0  0  0  0  0  0  0  0  0  0  0  0
   31.6866   11.7072    6.3862 C   0  0  0  0  0  0  0  0  0  0  0  0
   31.1654   10.9668    7.4088 C   0  0  0  0  0  0  0  0  0  0  0  0
   30.1816   11.5462    8.2637 N   0  0  0  0  0  0  0  0  0  0  0  0
   29.7663   12.8671    8.0375 N   0  0  0  0  0  0  0  0  0  0  0  0
  1  2  1  0
  2  3  1  0
  2  4  1  0
  2  5  1  0
  5  6  1  0
  6  7  2  0
  7  8  1  0
  8  9  2  0
  9 10  1  0
  9 11  1  0
 11 12  2  0
 12 13  1  0
 13 14  2  0
 14 15  1  0
 15 16  2  0
 16 17  1  0
 17 18  1  0
 16  6  1  0
 14  8  1  0
A    1
 C1 
A    2
 C2 
A    3
 C3 
A    4
 C4 
A    5
 C5 
A    6
 C6 
A    7
 N1 
A    8
 C7 
A    9
 C8 
A   10
BR1 
A   11
 C9 
A   12
 C10
A   13
 C11
A   14
 C12
A   15
 C13
A   16
 C14
A   17
 N2 
A   18
 N3 
M  END
>  <ref_pdb>  (928) 
Ax0310a

>  <ref_mols>  (928) 
Ax0446a,Ax1080a,Ax0812a,Ax0719a,Ax1140a,Ax0528a,Ax0310a

>  <original SMILES>  (928) 
CC(C)(C)Cc1nc2c(Br)cccc2cc1NN

>  <rationale>  (928) 
info info set:bb_densepocket2;hbond:S125; hydroph_interaction:P107+V124+D109; 

>  <experiment>  (928) 
bb_densepocket2

>  <cluster_label>  (928) 
3

>  <cluster_rank>  (928) 
585

>  <N_interactions>  (928) 
6

>  <∆∆G>  (928) 
-0.608422

>  <comRMSD>  (928) 
0.8237

>  <ROCS_TanimotoCombo>  (928) 
0.612

>  <ROCS_ShapeTanimoto>  (928) 
0.254

>  <ROCS_ColorTanimoto>  (928) 
0.358

$$$$
EN300_107306
     RDKit          3D

 16 17  0  0  0  0  0  0  0  0999 V2000
   28.6266   15.4003    9.3649 C   0  0  0  0  0  0  0  0  0  0  0  0
   29.7953   14.5088    8.9272 C   0  0  0  0  0  0  0  0  0  0  0  0
   31.1094   14.7739    9.0715 N   0  0  0  0  0  0  0  0  0  0  0  0
   31.8618   13.7331    8.4981 C   0  0  0  0  0  0  0  0  0  0  0  0
   33.6704   13.7402    8.4125 S   0  0  0  0  0  6  0  0  0  0  0  0
   34.2002   15.1605    9.0936 N   0  0  0  0  0  0  0  0  0  0  0  0
   34.2521   12.7417    9.2135 O   0  0  0  0  0  0  0  0  0  0  0  0
   34.0622   13.8641    7.0215 O   0  0  0  0  0  0  0  0  0  0  0  0
   30.9104   12.6772    7.9786 C   0  0  0  0  0  0  0  0  0  0  0  0
   31.4742   11.4561    7.3712 C   0  0  0  0  0  0  0  0  0  0  0  0
   31.0168   10.2461    8.1343 C   0  0  0  0  0  0  0  0  0  0  0  0
   31.4907    9.0652    7.6784 C   0  0  0  0  0  0  0  0  0  0  0  0
   32.3339    9.0423    6.5781 C   0  0  0  0  0  0  0  0  0  0  0  0
   32.7343   10.1730    5.8788 C   0  0  0  0  0  0  0  0  0  0  0  0
   32.2994   11.4047    6.2786 C   0  0  0  0  0  0  0  0  0  0  0  0
   29.2894   13.0543    8.1803 S   0  0  0  0  0  0  0  0  0  0  0  0
  1  2  1  0
  2  3  2  0
  3  4  1  0
  4  5  1  0
  5  6  1  0
  5  7  2  0
  5  8  2  0
  4  9  2  0
  9 10  1  0
 10 11  2  0
 11 12  1  0
 12 13  2  0
 13 14  1  0
 14 15  2  0
  9 16  1  0
 16  2  1  0
 15 10  1  0
A    1
 C1 
A    2
 C2 
A    3
 N1 
A    4
 C3 
A    5
 S1 
A    6
 N2 
A    7
 O1 
A    8
 O2 
A    9
 C4 
A   10
 C5 
A   11
 C6 
A   12
 C7 
A   13
 C8 
A   14
 C9 
A   15
 C10
A   16
 S2 
M  END
>  <ref_pdb>  (929) 
Ax0310a

>  <ref_mols>  (929) 
Ax0446a,Ax1080a,Ax0812a,Ax0719a,Ax1140a,Ax0528a,Ax0310a

>  <original SMILES>  (929) 
Cc1nc(S(N)(=O)=O)c(-c2ccccc2)s1

>  <rationale>  (929) 
info info set:sulfonimide_whole;hbond:S87+G127+E85; hydroph_interaction:P107+Y90; 

>  <experiment>  (929) 
sulfonimide_whole

>  <cluster_label>  (929) 
3

>  <cluster_rank>  (929) 
586

>  <N_interactions>  (929) 
5

>  <∆∆G>  (929) 
-7.5562

>  <comRMSD>  (929) 
0.668277

>  <ROCS_TanimotoCombo>  (929) 
0.328

>  <ROCS_ShapeTanimoto>  (929) 
0.191

>  <ROCS_ColorTanimoto>  (929) 
0.137

$$$$
EN300_158304
     RDKit          3D

 18 19  0  0  0  0  0  0  0  0999 V2000
   33.1118   12.7456    5.0498 C   0  0  0  0  0  0  0  0  0  0  0  0
   33.3959   11.3718    5.3768 N   0  0  0  0  0  0  0  0  0  0  0  0
   34.5175   10.8564    4.7532 N   0  0  0  0  0  0  0  0  0  0  0  0
   34.5055    9.6318    5.2235 C   0  0  0  0  0  0  0  0  0  0  0  0
   33.3949    9.3305    6.1504 C   0  0  0  0  0  0  0  0  0  0  0  0
   32.6913   10.5012    6.2323 C   0  0  0  0  0  0  0  0  0  0  0  0
   31.5432   10.7062    7.0047 N   0  0  0  0  0  0  0  0  0  0  0  0
   30.9795    9.6015    7.7537 C   0  0  0  0  0  0  0  0  0  0  0  0
   29.7166    9.8995    8.5369 C   0  0  0  0  0  0  0  0  0  0  0  0
   28.7228   11.1280    8.2063 C   0  0  0  0  0  0  0  0  0  0  0  0
   29.7557   12.0725    8.0919 C   0  0  2  0  0  0  0  0  0  0  0  0
   29.0260   13.2940    7.6809 N   0  0  0  0  0  0  0  0  0  0  0  0
   29.2172   14.6626    8.6124 S   0  0  0  0  0  6  0  0  0  0  0  0
   28.1364   14.3280    9.9767 C   0  0  0  0  0  0  0  0  0  0  0  0
   30.5854   14.6461    9.0768 O   0  0  0  0  0  0  0  0  0  0  0  0
   28.6950   15.7604    7.8394 O   0  0  0  0  0  0  0  0  0  0  0  0
   30.8478   11.9058    6.9861 C   0  0  0  0  0  0  0  0  0  0  0  0
   31.0609   12.9356    6.1180 O   0  0  0  0  0  0  0  0  0  0  0  0
  1  2  1  0
  2  3  1  0
  3  4  2  0
  4  5  1  0
  5  6  2  0
  6  7  1  0
  7  8  1  0
  8  9  1  0
  9 10  1  0
 10 11  1  0
 11 12  1  6
 12 13  1  0
 13 14  1  0
 13 15  2  0
 13 16  2  0
 11 17  1  0
 17 18  2  0
  6  2  1  0
 17  7  1  0
A    1
 C1 
A    2
 N1 
A    3
 N2 
A    4
 C2 
A    5
 C3 
A    6
 C4 
A    7
 N3 
A    8
 C5 
A    9
 C6 
A   10
 C7 
A   11
 C8 
A   12
 N4 
A   13
 S1 
A   14
 C9 
A   15
 O1 
A   16
 O2 
A   17
 C10
A   18
 O3 
M  END
>  <ref_pdb>  (930) 
Ax0310a

>  <ref_mols>  (930) 
Ax0446a,Ax1080a,Ax0812a,Ax0719a,Ax1140a,Ax0528a,Ax0310a

>  <original SMILES>  (930) 
Cn1nccc1N1CCC[C@H](NS(C)(=O)=O)C1=O

>  <rationale>  (930) 
info info set:sulfonimide_whole;hbond:S87; 

>  <experiment>  (930) 
sulfonimide_whole

>  <cluster_label>  (930) 
3

>  <cluster_rank>  (930) 
587

>  <N_interactions>  (930) 
1

>  <∆∆G>  (930) 
-6.267126

>  <comRMSD>  (930) 
0.790287

>  <ROCS_TanimotoCombo>  (930) 
0.354

>  <ROCS_ShapeTanimoto>  (930) 
0.223

>  <ROCS_ColorTanimoto>  (930) 
0.131

$$$$
EN300_45273669
     RDKit          3D

 12 12  0  0  0  0  0  0  0  0999 V2000
   29.5590    8.2661    8.4371 C   0  0  0  0  0  0  0  0  0  0  0  0
   30.8612    8.9038    8.6896 C   0  0  0  0  0  0  0  0  0  0  0  0
   31.5009    9.7042    7.5485 C   0  0  0  0  0  0  0  0  0  0  0  0
   32.4539    8.9800    6.9210 N   0  0  0  0  0  0  0  0  0  0  0  0
   33.1670    9.5998    5.8651 C   0  0  0  0  0  0  0  0  0  0  0  0
   34.1917    8.8893    5.1601 N   0  0  0  0  0  0  0  0  0  0  0  0
   32.8766   11.0423    5.4411 C   0  0  0  0  0  0  0  0  0  0  0  0
   31.8825   11.7662    6.0954 C   0  0  0  0  0  0  0  0  0  0  0  0
   31.1911   10.9736    7.2045 C   0  0  0  0  0  0  0  0  0  0  0  0
   30.0280   11.6827    8.0063 B   0  0  0  0  0  0  0  0  0  0  0  0
   28.8894   12.0511    7.1393 O   0  0  0  0  0  0  0  0  0  0  0  0
   30.5057   12.7497    8.8937 O   0  0  0  0  0  0  0  0  0  0  0  0
  1  2  1  0
  2  3  1  0
  3  4  2  0
  4  5  1  0
  5  6  1  0
  5  7  2  0
  7  8  1  0
  8  9  2  0
  9 10  1  0
 10 11  1  0
 10 12  1  0
  9  3  1  0
A    1
 C1 
A    2
 C2 
A    3
 C3 
A    4
 N1 
A    5
 C4 
A    6
 N2 
A    7
 C5 
A    8
 C6 
A    9
 C7 
A   10
 B1 
A   11
 O1 
A   12
 O2 
M  END
>  <ref_pdb>  (931) 
Ax0310a

>  <ref_mols>  (931) 
Ax0446a,Ax1080a,Ax0812a,Ax0719a,Ax1140a,Ax0528a,Ax0310a

>  <original SMILES>  (931) 
CCc1nc(N)ccc1B(O)O

>  <rationale>  (931) 
info info set:bb_densepocket2;hbond:S105; hydroph_interaction:P107+V124; 

>  <experiment>  (931) 
bb_densepocket2

>  <cluster_label>  (931) 
3

>  <cluster_rank>  (931) 
588

>  <N_interactions>  (931) 
3

>  <∆∆G>  (931) 
-3.618532

>  <comRMSD>  (931) 
0.508268

>  <ROCS_TanimotoCombo>  (931) 
0.632

>  <ROCS_ShapeTanimoto>  (931) 
0.227

>  <ROCS_ColorTanimoto>  (931) 
0.405

$$$$
EN300_26680686
     RDKit          3D

 21 22  0  0  0  0  0  0  0  0999 V2000
   30.6216    8.9643    8.0724 C   0  0  0  0  0  0  0  0  0  0  0  0
   31.5566    9.7833    7.1730 C   0  0  0  0  0  0  0  0  0  0  0  0
   32.6040    9.1803    6.5935 N   0  0  0  0  0  0  0  0  0  0  0  0
   33.2184   10.1685    5.8885 N   0  0  0  0  0  0  0  0  0  0  0  0
   34.3743   10.0119    5.1096 C   0  0  0  0  0  0  0  0  0  0  0  0
   35.3642   11.1895    5.0994 C   0  0  0  0  0  0  0  0  0  0  0  0
   36.6588   11.1874    4.2762 C   0  0  0  0  0  0  0  0  0  0  0  0
   36.9676    9.9831    3.4486 C   0  0  0  0  0  0  0  0  0  0  0  0
   36.0033    8.7950    3.4516 C   0  0  0  0  0  0  0  0  0  0  0  0
   34.8170    8.7991    4.2066 C   0  0  0  0  0  0  0  0  0  0  0  0
   32.5723   11.3549    6.0191 C   0  0  0  0  0  0  0  0  0  0  0  0
   32.9796   12.6522    5.3797 C   0  0  0  0  0  0  0  0  0  0  0  0
   31.5112   11.1678    6.8101 C   0  0  0  0  0  0  0  0  0  0  0  0
   30.5726   12.3046    7.1424 C   0  0  0  0  0  0  0  0  0  0  0  0
   29.6899   11.9235    8.2500 C   0  0  0  0  0  0  0  0  0  0  0  0
   29.9859   10.8968    8.8297 O   0  0  0  0  0  0  0  0  0  0  0  0
   28.5707   12.7597    8.4884 N   0  0  0  0  0  0  0  0  0  0  0  0
   28.4918   13.6713    9.6435 C   0  0  0  0  0  0  0  0  0  0  0  0
   27.9237   13.3699    7.3656 C   0  0  0  0  0  0  0  0  0  0  0  0
   28.3307   14.7578    7.4197 C   0  0  0  0  0  0  0  0  0  0  0  0
   28.7022   15.8303    7.5433 N   0  0  0  0  0  0  0  0  0  0  0  0
  1  2  1  0
  2  3  2  0
  3  4  1  0
  4  5  1  0
  5  6  2  0
  6  7  1  0
  7  8  2  0
  8  9  1  0
  9 10  2  0
  4 11  1  0
 11 12  1  0
 11 13  2  0
 13 14  1  0
 14 15  1  0
 15 16  2  0
 15 17  1  0
 17 18  1  0
 17 19  1  0
 19 20  1  0
 20 21  3  0
 13  2  1  0
 10  5  1  0
A    1
 C1 
A    2
 C2 
A    3
 N1 
A    4
 N2 
A    5
 C3 
A    6
 C4 
A    7
 C5 
A    8
 C6 
A    9
 C7 
A   10
 C8 
A   11
 C9 
A   12
 C10
A   13
 C11
A   14
 C12
A   15
 C13
A   16
 O1 
A   17
 N3 
A   18
 C14
A   19
 C15
A   20
 C16
A   21
 N4 
M  END
>  <ref_pdb>  (932) 
Ax0310a

>  <ref_mols>  (932) 
Ax0446a,Ax1080a,Ax0812a,Ax0719a,Ax1140a,Ax0528a,Ax0310a

>  <original SMILES>  (932) 
Cc1nn(-c2ccccc2)c(C)c1CC(=O)N(C)CC#N

>  <rationale>  (932) 
info info set:bb_densepocket2;hbond:Y90; hydroph_interaction:P107; 

>  <experiment>  (932) 
bb_densepocket2

>  <cluster_label>  (932) 
3

>  <cluster_rank>  (932) 
589

>  <N_interactions>  (932) 
2

>  <∆∆G>  (932) 
-7.104569

>  <comRMSD>  (932) 
0.868168

>  <ROCS_TanimotoCombo>  (932) 
0.632

>  <ROCS_ShapeTanimoto>  (932) 
0.261

>  <ROCS_ColorTanimoto>  (932) 
0.371

$$$$
EN300_129897
     RDKit          3D

 16 17  0  0  0  0  0  0  0  0999 V2000
   37.5812   11.1851   10.6349 C   0  0  0  0  0  0  0  0  0  0  0  0
   36.8912   12.7461   10.8836 S   0  0  0  0  0  6  0  0  0  0  0  0
   36.4182   12.6432   12.2473 O   0  0  0  0  0  0  0  0  0  0  0  0
   37.8329   13.7469   10.4120 O   0  0  0  0  0  0  0  0  0  0  0  0
   35.4950   12.7042    9.9314 N   0  0  0  0  0  0  0  0  0  0  0  0
   34.9792   13.4225    8.6725 C   0  0  0  0  0  0  0  0  0  0  0  0
   35.5066   14.6430    8.1312 C   0  0  0  0  0  0  0  0  0  0  0  0
   34.9603   15.1029    7.0099 N   0  0  0  0  0  0  0  0  0  0  0  0
   33.9235   14.1859    6.6307 N   0  0  0  0  0  0  0  0  0  0  0  0
   33.8670   13.1479    7.6057 C   0  0  0  0  0  0  0  0  0  0  0  0
   32.8161   12.0441    7.4151 C   0  0  2  0  0  0  0  0  0  0  0  0
   32.9965   10.9308    6.4297 C   0  0  0  0  0  0  0  0  0  0  0  0
   32.1882    9.8433    6.7086 C   0  0  0  0  0  0  0  0  0  0  0  0
   31.0525   10.1793    7.6458 C   0  0  0  0  0  0  0  0  0  0  0  0
   30.4907   11.3810    7.4661 N   0  0  0  0  0  0  0  0  0  0  0  0
   31.3951   12.5000    7.1683 C   0  0  0  0  0  0  0  0  0  0  0  0
  1  2  1  0
  2  3  2  0
  2  4  2  0
  2  5  1  0
  5  6  1  0
  6  7  2  0
  7  8  1  0
  8  9  1  0
  9 10  2  0
 11 10  1  6
 11 12  1  0
 12 13  1  0
 13 14  1  0
 14 15  1  0
 15 16  1  0
 10  6  1  0
 16 11  1  0
A    1
 C1 
A    2
 S1 
A    3
 O1 
A    4
 O2 
A    5
 N1 
A    6
 C2 
A    7
 C3 
A    8
 N2 
A    9
 N3 
A   10
 C4 
A   11
 C5 
A   12
 C6 
A   13
 C7 
A   14
 C8 
A   15
 N4 
A   16
 C9 
M  END
>  <ref_pdb>  (933) 
Ax0310a

>  <ref_mols>  (933) 
Ax0446a,Ax1080a,Ax0812a,Ax0719a,Ax1140a,Ax0528a,Ax0310a

>  <original SMILES>  (933) 
CS(=O)(=O)Nc1c[nH]nc1[C@@H]1CCCNC1

>  <rationale>  (933) 
info info set:sulfonimide_whole;hbond:S125+G127+T126+E85; 

>  <experiment>  (933) 
sulfonimide_whole

>  <cluster_label>  (933) 
3

>  <cluster_rank>  (933) 
590

>  <N_interactions>  (933) 
5

>  <∆∆G>  (933) 
-1.516677

>  <comRMSD>  (933) 
0.924882

>  <ROCS_TanimotoCombo>  (933) 
0.31

>  <ROCS_ShapeTanimoto>  (933) 
0.185

>  <ROCS_ColorTanimoto>  (933) 
0.125

$$$$
Z899389184
     RDKit          3D

 17 18  0  0  0  0  0  0  0  0999 V2000
   34.8502   13.6840    5.6620 C   0  0  0  0  0  0  0  0  0  0  0  0
   33.6535   13.7880    6.4300 O   0  0  0  0  0  0  0  0  0  0  0  0
   33.0679   12.6009    6.6949 C   0  0  0  0  0  0  0  0  0  0  0  0
   33.6014   11.4473    5.9847 C   0  0  0  0  0  0  0  0  0  0  0  0
   33.0481   10.0683    6.1873 C   0  0  0  0  0  0  0  0  0  0  0  0
   33.8482    8.9152    5.2800 Cl  0  0  0  0  0  0  0  0  0  0  0  0
   31.8575    9.9404    7.1875 C   0  0  0  0  0  0  0  0  0  0  0  0
   31.2859   11.1502    7.9429 C   0  0  0  0  0  0  0  0  0  0  0  0
   32.0429   12.4219    7.5647 C   0  0  0  0  0  0  0  0  0  0  0  0
   31.2839   13.4115    8.4775 C   0  0  0  0  0  0  0  0  0  0  0  0
   31.9131   13.9629    9.3739 O   0  0  0  0  0  0  0  0  0  0  0  0
   30.0177   13.6955    8.2667 N   0  0  0  0  0  0  0  0  0  0  0  0
   29.5983   14.8514    9.0045 C   0  0  0  0  0  0  0  0  0  0  0  0
   28.8361   15.6138    8.1570 C   0  0  0  0  0  0  0  0  0  0  0  0
   27.4022   14.8554    8.0288 S   0  0  0  0  0  0  0  0  0  0  0  0
   27.9898   13.4614    7.0191 C   0  0  0  0  0  0  0  0  0  0  0  0
   29.3476   13.3461    6.9954 C   0  0  0  0  0  0  0  0  0  0  0  0
  1  2  1  0
  2  3  1  0
  3  4  2  0
  4  5  1  0
  5  6  1  0
  5  7  2  0
  7  8  1  0
  8  9  2  0
  9 10  1  0
 10 11  2  0
 10 12  1  0
 12 13  1  0
 13 14  1  0
 14 15  1  0
 15 16  1  0
 16 17  1  0
  9  3  1  0
 17 12  1  0
A    1
 C1 
A    2
 O1 
A    3
 C2 
A    4
 C3 
A    5
 C4 
A    6
CL1 
A    7
 C5 
A    8
 C6 
A    9
 C7 
A   10
 C8 
A   11
 O2 
A   12
 N1 
A   13
 C9 
A   14
 C10
A   15
 S1 
A   16
 C11
A   17
 C12
M  END
>  <ref_pdb>  (934) 
Ax0310a

>  <ref_mols>  (934) 
Ax0446a,Ax1080a,Ax0812a,Ax0719a,Ax1140a,Ax0528a,Ax0310a

>  <original SMILES>  (934) 
COc1cc(Cl)ccc1C(=O)N1CCSCC1

>  <rationale>  (934) 
info info set:3d;hbond:S87; 

>  <experiment>  (934) 
3d

>  <cluster_label>  (934) 
3

>  <cluster_rank>  (934) 
591

>  <N_interactions>  (934) 
1

>  <∆∆G>  (934) 
-5.672289

>  <comRMSD>  (934) 
0.695089

>  <ROCS_TanimotoCombo>  (934) 
0.321

>  <ROCS_ShapeTanimoto>  (934) 
0.215

>  <ROCS_ColorTanimoto>  (934) 
0.106

$$$$
EN300_14975404
     RDKit          3D

 18 18  0  0  0  0  0  0  0  0999 V2000
   29.5580   14.6222   10.8425 N   0  0  0  0  0  0  0  0  0  0  0  0
   30.2773   15.1442    9.4308 S   0  0  0  0  0  6  0  0  0  0  0  0
   31.1733   14.1244    8.9544 O   0  0  0  0  0  0  0  0  0  0  0  0
   30.8166   16.4424    9.7476 O   0  0  0  0  0  0  0  0  0  0  0  0
   28.9076   15.3276    8.2863 C   0  0  0  0  0  0  0  0  0  0  0  0
   28.6083   14.2316    7.2794 C   0  0  0  0  0  0  0  0  0  0  0  0
   29.3226   12.9773    7.7438 C   0  0  0  0  0  0  0  0  0  0  0  0
   30.4893   13.0313    7.3321 O   0  0  0  0  0  0  0  0  0  0  0  0
   31.1478   11.8527    7.1449 C   0  0  0  0  0  0  0  0  0  0  0  0
   30.5627   10.6052    7.9731 C   0  0  0  0  0  0  0  0  0  0  0  0
   31.4507    9.3660    7.5929 C   0  0  0  0  0  0  0  0  0  0  0  0
   32.6158    9.3190    6.6680 C   0  0  0  0  0  0  0  0  0  0  0  0
   33.0119   10.4449    6.0523 C   0  0  0  0  0  0  0  0  0  0  0  0
   34.2358   10.1723    5.1735 C   0  0  0  0  0  0  0  0  0  0  0  0
   35.2317   11.0826    5.3708 F   0  0  0  0  0  0  0  0  0  0  0  0
   34.7878    8.9473    5.3527 F   0  0  0  0  0  0  0  0  0  0  0  0
   33.9689   10.2637    3.8533 F   0  0  0  0  0  0  0  0  0  0  0  0
   32.3766   11.6560    6.2227 C   0  0  0  0  0  0  0  0  0  0  0  0
  1  2  1  0
  2  3  2  0
  2  4  2  0
  2  5  1  0
  5  6  1  0
  6  7  1  0
  7  8  1  0
  8  9  1  0
  9 10  2  0
 10 11  1  0
 11 12  2  0
 12 13  1  0
 13 14  1  0
 14 15  1  0
 14 16  1  0
 14 17  1  0
 13 18  2  0
 18  9  1  0
A    1
 N1 
A    2
 S1 
A    3
 O1 
A    4
 O2 
A    5
 C1 
A    6
 C2 
A    7
 C3 
A    8
 O3 
A    9
 C4 
A   10
 C5 
A   11
 C6 
A   12
 C7 
A   13
 C8 
A   14
 C9 
A   15
 F1 
A   16
 F2 
A   17
 F3 
A   18
 C10
M  END
>  <ref_pdb>  (935) 
Ax0310a

>  <ref_mols>  (935) 
Ax0446a,Ax1080a,Ax0812a,Ax0719a,Ax1140a,Ax0528a,Ax0310a

>  <original SMILES>  (935) 
NS(=O)(=O)CCCOc1cccc(C(F)(F)F)c1

>  <rationale>  (935) 
info info set:sulfonimide_whole;halogenbond:S105; hbond:S87+S125; hydroph_interaction:P107; 

>  <experiment>  (935) 
sulfonimide_whole

>  <cluster_label>  (935) 
3

>  <cluster_rank>  (935) 
592

>  <N_interactions>  (935) 
4

>  <∆∆G>  (935) 
-6.344996

>  <comRMSD>  (935) 
0.841766

>  <ROCS_TanimotoCombo>  (935) 
0.338

>  <ROCS_ShapeTanimoto>  (935) 
0.21

>  <ROCS_ColorTanimoto>  (935) 
0.128

$$$$
EN300_396325
     RDKit          3D

 15 16  0  0  0  0  0  0  0  0999 V2000
   35.8599   10.4426    3.6663 C   0  0  0  0  0  0  0  0  0  0  0  0
   34.8945   10.9589    4.7170 C   0  0  0  0  0  0  0  0  0  0  0  0
   35.5286   12.0040    5.5683 C   0  0  0  0  0  0  0  0  0  0  0  0
   33.7950   11.8506    4.1841 C   0  0  0  0  0  0  0  0  0  0  0  0
   33.1510   12.4355    5.3420 O   0  0  0  0  0  0  0  0  0  0  0  0
   32.5929   11.5160    6.1422 C   0  0  0  0  0  0  0  0  0  0  0  0
   31.5070   11.5453    7.1313 C   0  0  0  0  0  0  0  0  0  0  0  0
   30.5779   12.8701    7.6019 S   0  0  0  0  0  6  0  0  0  0  0  0
   29.1874   12.3709    8.3682 N   0  0  0  0  0  0  0  0  0  0  0  0
   30.1101   13.4471    6.3695 O   0  0  0  0  0  0  0  0  0  0  0  0
   31.3840   13.5852    8.5702 O   0  0  0  0  0  0  0  0  0  0  0  0
   31.4271   10.1298    7.6038 C   0  0  0  0  0  0  0  0  0  0  0  0
   32.3328    9.3465    7.0095 N   0  0  0  0  0  0  0  0  0  0  0  0
   33.0079   10.2021    6.1653 N   0  0  0  0  0  0  0  0  0  0  0  0
   34.1043    9.7536    5.3279 C   0  0  0  0  0  0  0  0  0  0  0  0
  1  2  1  0
  2  3  1  0
  2  4  1  0
  4  5  1  0
  5  6  1  0
  6  7  2  0
  7  8  1  0
  8  9  1  0
  8 10  2  0
  8 11  2  0
  7 12  1  0
 12 13  2  0
 13 14  1  0
 14 15  1  0
 15  2  1  0
 14  6  1  0
A    1
 C1 
A    2
 C2 
A    3
 C3 
A    4
 C4 
A    5
 O1 
A    6
 C5 
A    7
 C6 
A    8
 S1 
A    9
 N1 
A   10
 O2 
A   11
 O3 
A   12
 C7 
A   13
 N2 
A   14
 N3 
A   15
 C8 
M  END
>  <ref_pdb>  (936) 
Ax0310a

>  <ref_mols>  (936) 
Ax0446a,Ax1080a,Ax0812a,Ax0719a,Ax1140a,Ax0528a,Ax0310a

>  <original SMILES>  (936) 
CC1(C)COc2c(S(N)(=O)=O)cnn2C1

>  <rationale>  (936) 
info info set:sulfonimide_whole;hbond:S87+S125; 

>  <experiment>  (936) 
sulfonimide_whole

>  <cluster_label>  (936) 
3

>  <cluster_rank>  (936) 
593

>  <N_interactions>  (936) 
2

>  <∆∆G>  (936) 
-4.735991

>  <comRMSD>  (936) 
0.863326

>  <ROCS_TanimotoCombo>  (936) 
0.346

>  <ROCS_ShapeTanimoto>  (936) 
0.193

>  <ROCS_ColorTanimoto>  (936) 
0.153

$$$$
Z2236049677
     RDKit          3D

 16 17  0  0  0  0  0  0  0  0999 V2000
   30.2597    9.0560    8.9836 C   0  0  0  0  0  0  0  0  0  0  0  0
   30.5825   10.2631    8.4092 C   0  0  0  0  0  0  0  0  0  0  0  0
   31.7368   10.4633    7.7803 N   0  0  0  0  0  0  0  0  0  0  0  0
   32.1459    9.5180    6.9909 C   0  0  0  0  0  0  0  0  0  0  0  0
   31.7793    8.2133    7.2066 O   0  0  0  0  0  0  0  0  0  0  0  0
   32.9481    9.9775    6.0079 C   0  0  0  0  0  0  0  0  0  0  0  0
   32.8862   11.4578    6.0146 C   0  0  2  0  0  0  0  0  0  0  0  0
   34.1286   12.2133    5.8284 C   0  0  0  0  0  0  0  0  0  0  0  0
   35.1086   11.3762    5.2026 O   0  0  0  0  0  0  0  0  0  0  0  0
   32.2792   11.6387    7.4425 C   0  0  1  0  0  0  0  0  0  0  0  0
   31.3757   12.7552    7.8856 C   0  0  0  0  0  0  0  0  0  0  0  0
   29.9736   12.7428    7.3098 C   0  0  0  0  0  0  0  0  0  0  0  0
   29.0079   13.8266    7.7464 C   0  0  0  0  0  0  0  0  0  0  0  0
   29.5592   14.7735    8.6949 C   0  0  0  0  0  0  0  0  0  0  0  0
   30.9529   14.7457    9.2307 N   0  0  0  0  0  0  0  0  0  0  0  0
   31.7596   13.7490    8.7930 C   0  0  0  0  0  0  0  0  0  0  0  0
  1  2  1  0
  2  3  1  0
  3  4  1  0
  4  5  2  0
  4  6  1  0
  6  7  1  0
  7  8  1  1
  8  9  1  0
  7 10  1  0
 10 11  1  6
 11 12  2  0
 12 13  1  0
 13 14  2  0
 14 15  1  0
 15 16  2  0
 10  3  1  0
 16 11  1  0
A    1
 C1 
A    2
 C2 
A    3
 N1 
A    4
 C3 
A    5
 O1 
A    6
 C4 
A    7
 C5 
A    8
 C6 
A    9
 O2 
A   10
 C7 
A   11
 C8 
A   12
 C9 
A   13
 C10
A   14
 C11
A   15
 N2 
A   16
 C12
M  END
>  <ref_pdb>  (937) 
Ax0310a

>  <ref_mols>  (937) 
Ax0446a,Ax1080a,Ax0812a,Ax0719a,Ax1140a,Ax0528a,Ax0310a

>  <original SMILES>  (937) 
CCN1C(=O)C[C@H](CO)[C@H]1c1cccnc1

>  <rationale>  (937) 
info info set:3d;hbond:S87; hydroph_interaction:V124; 

>  <experiment>  (937) 
3d

>  <cluster_label>  (937) 
3

>  <cluster_rank>  (937) 
594

>  <N_interactions>  (937) 
2

>  <∆∆G>  (937) 
-5.931823

>  <comRMSD>  (937) 
0.96551

>  <ROCS_TanimotoCombo>  (937) 
0.324

>  <ROCS_ShapeTanimoto>  (937) 
0.208

>  <ROCS_ColorTanimoto>  (937) 
0.116

$$$$
EN300_372006
     RDKit          3D

 13 14  0  0  0  0  0  0  0  0999 V2000
   34.3696   14.4119    8.1251 N   0  0  0  0  0  0  0  0  0  0  0  0
   33.8118   13.6737    6.7229 S   0  0  0  0  0  6  0  0  0  0  0  0
   33.3454   14.6128    5.7658 O   0  0  0  0  0  0  0  0  0  0  0  0
   34.8521   12.7981    6.2755 O   0  0  0  0  0  0  0  0  0  0  0  0
   32.4713   12.6579    7.2624 C   0  0  0  0  0  0  0  0  0  0  0  0
   31.2346   13.2335    7.9634 C   0  0  0  0  0  0  0  0  0  0  0  0
   30.1073   12.2971    8.4017 C   0  0  0  0  0  0  0  0  0  0  0  0
   30.2467   10.7875    8.1518 C   0  0  0  0  0  0  0  0  0  0  0  0
   31.4615   10.2160    7.4674 C   0  0  0  0  0  0  0  0  0  0  0  0
   32.5500   11.1589    7.0239 C   0  0  0  0  0  0  0  0  0  0  0  0
   33.5050   10.4652    6.4383 O   0  0  0  0  0  0  0  0  0  0  0  0
   32.9605    9.1983    6.2794 C   0  0  0  0  0  0  0  0  0  0  0  0
   31.8021    8.9272    7.1486 O   0  0  0  0  0  0  0  0  0  0  0  0
  1  2  1  0
  2  3  2  0
  2  4  2  0
  2  5  1  0
  5  6  2  0
  6  7  1  0
  7  8  2  0
  8  9  1  0
  9 10  2  0
 10 11  1  0
 11 12  1  0
 12 13  1  0
 10  5  1  0
 13  9  1  0
A    1
 N1 
A    2
 S1 
A    3
 O1 
A    4
 O2 
A    5
 C1 
A    6
 C2 
A    7
 C3 
A    8
 C4 
A    9
 C5 
A   10
 C6 
A   11
 O3 
A   12
 C7 
A   13
 O4 
M  END
>  <ref_pdb>  (938) 
Ax0310a

>  <ref_mols>  (938) 
Ax0446a,Ax1080a,Ax0812a,Ax0719a,Ax1140a,Ax0528a,Ax0310a

>  <original SMILES>  (938) 
NS(=O)(=O)c1cccc2c1OCO2

>  <rationale>  (938) 
info info set:sulfonimide_whole;hbond:G127; 

>  <experiment>  (938) 
sulfonimide_whole

>  <cluster_label>  (938) 
3

>  <cluster_rank>  (938) 
595

>  <N_interactions>  (938) 
1

>  <∆∆G>  (938) 
-2.157774

>  <comRMSD>  (938) 
0.771406

>  <ROCS_TanimotoCombo>  (938) 
0.332

>  <ROCS_ShapeTanimoto>  (938) 
0.178

>  <ROCS_ColorTanimoto>  (938) 
0.154

$$$$
Z1891777174
     RDKit          3D

 13 15  0  0  0  0  0  0  0  0999 V2000
   31.0871   13.4076    5.1220 F   0  0  0  0  0  0  0  0  0  0  0  0
   30.6745   12.5971    6.1039 C   0  0  0  0  0  0  0  0  0  0  0  0
   29.4195   12.9450    6.8518 C   0  0  0  0  0  0  0  0  0  0  0  0
   29.0443   11.9570    7.9693 C   0  0  0  0  0  0  0  0  0  0  0  0
   29.9343   10.7042    8.2512 C   0  0  0  0  0  0  0  0  0  0  0  0
   31.0041   10.5223    7.5093 C   0  0  0  0  0  0  0  0  0  0  0  0
   31.4014   11.4864    6.3984 C   0  0  0  0  0  0  0  0  0  0  0  0
   32.6447   10.9068    5.8439 C   0  0  0  0  0  0  0  0  0  0  0  0
   33.5680   11.7422    6.3987 C   0  0  0  0  0  0  0  0  0  0  0  0
   34.5428   11.5940    5.2980 C   0  0  0  0  0  0  0  0  0  0  0  0
   33.4196   11.1676    4.4680 C   0  0  0  0  0  0  0  0  0  0  0  0
   32.7836    9.5184    6.4170 C   0  0  0  0  0  0  0  0  0  0  0  0
   31.9196    9.4415    7.6278 N   0  0  0  0  0  0  0  0  0  0  0  0
  1  2  1  0
  2  3  2  0
  3  4  1  0
  4  5  2  0
  5  6  1  0
  6  7  2  0
  7  8  1  0
  8  9  1  0
  9 10  1  0
 10 11  1  0
  8 12  1  0
 12 13  1  0
  7  2  1  0
 11  8  1  0
 13  6  1  0
A    1
 F1 
A    2
 C1 
A    3
 C2 
A    4
 C3 
A    5
 C4 
A    6
 C5 
A    7
 C6 
A    8
 C7 
A    9
 C8 
A   10
 C9 
A   11
 C10
A   12
 C11
A   13
 N1 
M  END
>  <ref_pdb>  (939) 
Ax0310a

>  <ref_mols>  (939) 
Ax0446a,Ax1080a,Ax0812a,Ax0719a,Ax1140a,Ax0528a,Ax0310a

>  <original SMILES>  (939) 
Fc1cccc2c1C1(CCC1)CN2

>  <rationale>  (939) 
info info set:3d;hbond:T126; hydroph_interaction:P107; 

>  <experiment>  (939) 
3d

>  <cluster_label>  (939) 
3

>  <cluster_rank>  (939) 
596

>  <N_interactions>  (939) 
3

>  <∆∆G>  (939) 
-2.075066

>  <comRMSD>  (939) 
0.896849

>  <ROCS_TanimotoCombo>  (939) 
0.3

>  <ROCS_ShapeTanimoto>  (939) 
0.181

>  <ROCS_ColorTanimoto>  (939) 
0.119

$$$$
EN300_37375440
     RDKit          3D

 12 13  0  0  0  0  0  0  0  0999 V2000
   30.2404   13.9144    9.3060 C   0  0  0  0  0  0  0  0  0  0  0  0
   31.1942   13.0180    8.7153 O   0  0  0  0  0  0  0  0  0  0  0  0
   30.6481   11.9037    8.1351 C   0  0  0  0  0  0  0  0  0  0  0  0
   29.4569   11.6680    8.1006 O   0  0  0  0  0  0  0  0  0  0  0  0
   31.7044   11.0209    7.5240 C   0  0  2  0  0  0  0  0  0  0  0  0
   31.5657    9.4831    7.6804 C   0  0  0  0  0  0  0  0  0  0  0  0
   32.6905    9.0459    6.9212 O   0  0  0  0  0  0  0  0  0  0  0  0
   33.0967   10.2551    6.2227 C   0  0  2  0  0  0  0  0  0  0  0  0
   34.0680   10.0623    5.0706 C   0  0  0  0  0  0  0  0  0  0  0  0
   34.7611    8.7722    5.0489 N   0  0  0  0  0  0  0  0  0  0  0  0
   33.0840   11.5958    7.0526 C   0  0  0  0  0  0  0  0  0  0  0  0
   31.7607   10.9906    6.0182 C   0  0  0  0  0  0  0  0  0  0  0  0
  1  2  1  0
  2  3  1  0
  3  4  2  0
  5  3  1  6
  5  6  1  0
  6  7  1  0
  7  8  1  0
  8  9  1  6
  9 10  1  0
  8 11  1  0
  8 12  1  0
 11  5  1  0
 12  5  1  0
A    1
 C1 
A    2
 O1 
A    3
 C2 
A    4
 O2 
A    5
 C3 
A    6
 C4 
A    7
 O3 
A    8
 C5 
A    9
 C6 
A   10
 N1 
A   11
 C7 
A   12
 C8 
M  END
>  <ref_pdb>  (940) 
Ax0310a

>  <ref_mols>  (940) 
Ax0446a,Ax1080a,Ax0812a,Ax0719a,Ax1140a,Ax0528a,Ax0310a

>  <original SMILES>  (940) 
COC(=O)[C@]12CO[C@](CN)(C1)C2

>  <rationale>  (940) 
info info set:bb_densepocket;hbond:S105; hydroph_interaction:P107; 

>  <experiment>  (940) 
bb_densepocket

>  <cluster_label>  (940) 
3

>  <cluster_rank>  (940) 
597

>  <N_interactions>  (940) 
2

>  <∆∆G>  (940) 
-0.192138

>  <comRMSD>  (940) 
0.874217

>  <ROCS_TanimotoCombo>  (940) 
0.75

>  <ROCS_ShapeTanimoto>  (940) 
0.227

>  <ROCS_ColorTanimoto>  (940) 
0.523

$$$$
Z183979312
     RDKit          3D

 26 29  0  0  0  0  0  0  0  0999 V2000
   31.7942   12.5074    8.2483 C   0  0  0  0  0  0  0  0  0  0  0  0
   31.9219   13.7904    8.9451 C   0  0  0  0  0  0  0  0  0  0  0  0
   33.3325   14.3225    9.1007 C   0  0  0  0  0  0  0  0  0  0  0  0
   33.4045   15.6701    9.7637 C   0  0  0  0  0  0  0  0  0  0  0  0
   32.0923   16.3011   10.2136 C   0  0  0  0  0  0  0  0  0  0  0  0
   30.8926   15.7651   10.0670 N   0  0  0  0  0  0  0  0  0  0  0  0
   30.8212   14.4885    9.4124 C   0  0  0  0  0  0  0  0  0  0  0  0
   29.5771   13.9413    9.2264 N   0  0  0  0  0  0  0  0  0  0  0  0
   28.6511   14.4585    8.3515 C   0  0  0  0  0  0  0  0  0  0  0  0
   28.6952   15.5097    7.7369 O   0  0  0  0  0  0  0  0  0  0  0  0
   27.5869   13.6306    8.2342 C   0  0  0  0  0  0  0  0  0  0  0  0
   27.8264   12.3388    7.4720 C   0  0  0  0  0  0  0  0  0  0  0  0
   29.0792   11.7220    7.8492 N   0  0  0  0  0  0  0  0  0  0  0  0
   29.0511   10.5099    8.5200 C   0  0  0  0  0  0  0  0  0  0  0  0
   29.9014    9.5488    8.4318 N   0  0  0  0  0  0  0  0  0  0  0  0
   30.9102    9.8643    7.5943 C   0  0  0  0  0  0  0  0  0  0  0  0
   32.1018    8.7493    7.1862 S   0  0  0  0  0  0  0  0  0  0  0  0
   32.9174    9.8591    6.1985 C   0  0  0  0  0  0  0  0  0  0  0  0
   32.2327   11.1599    6.1885 C   0  0  0  0  0  0  0  0  0  0  0  0
   31.1033   11.0776    6.9654 C   0  0  0  0  0  0  0  0  0  0  0  0
   30.1963   12.1058    7.1201 C   0  0  0  0  0  0  0  0  0  0  0  0
   30.3511   13.2077    6.6020 O   0  0  0  0  0  0  0  0  0  0  0  0
   32.8350   12.2495    5.3903 C   0  0  0  0  0  0  0  0  0  0  0  0
   34.2186   12.1396    5.5693 C   0  0  0  0  0  0  0  0  0  0  0  0
   34.8678   10.8219    5.0621 C   0  0  0  0  0  0  0  0  0  0  0  0
   34.1506    9.6253    5.3998 C   0  0  0  0  0  0  0  0  0  0  0  0
  1  2  1  0
  2  3  2  0
  3  4  1  0
  4  5  2  0
  5  6  1  0
  6  7  2  0
  7  8  1  0
  8  9  1  0
  9 10  2  0
  9 11  1  0
 11 12  1  0
 12 13  1  0
 13 14  1  0
 14 15  2  0
 15 16  1  0
 16 17  1  0
 17 18  1  0
 18 19  2  0
 19 20  1  0
 20 21  1  0
 21 22  2  0
 19 23  1  0
 23 24  1  0
 24 25  1  0
 25 26  1  0
  7  2  1  0
 21 13  1  0
 20 16  2  0
 26 18  1  0
A    1
 C1 
A    2
 C2 
A    3
 C3 
A    4
 C4 
A    5
 C5 
A    6
 N1 
A    7
 C6 
A    8
 N2 
A    9
 C7 
A   10
 O1 
A   11
 C8 
A   12
 C9 
A   13
 N3 
A   14
 C10
A   15
 N4 
A   16
 C11
A   17
 S1 
A   18
 C12
A   19
 C13
A   20
 C14
A   21
 C15
A   22
 O2 
A   23
 C16
A   24
 C17
A   25
 C18
A   26
 C19
M  END
>  <ref_pdb>  (941) 
Ax0310a

>  <ref_mols>  (941) 
Ax0446a,Ax1080a,Ax0812a,Ax0719a,Ax1140a,Ax0528a,Ax0310a

>  <original SMILES>  (941) 
Cc1cccnc1NC(=O)CCn1cnc2sc3c(c2c1=O)CCCC3

>  <rationale>  (941) 
info info set:screening_whole;hbond:S87+S105+S125; hydroph_interaction:P107+V84; 

>  <experiment>  (941) 
screening_whole

>  <cluster_label>  (941) 
3

>  <cluster_rank>  (941) 
598

>  <N_interactions>  (941) 
5

>  <∆∆G>  (941) 
-3.151986

>  <comRMSD>  (941) 
0.922608

>  <ROCS_TanimotoCombo>  (941) 
0.46

>  <ROCS_ShapeTanimoto>  (941) 
0.26

>  <ROCS_ColorTanimoto>  (941) 
0.2

$$$$
Z45524387
     RDKit          3D

 18 19  0  0  0  0  0  0  0  0999 V2000
   33.7536   13.2267    8.5804 O   0  0  0  0  0  0  0  0  0  0  0  0
   33.3470   13.1027    7.1921 S   0  0  0  0  0  6  0  0  0  0  0  0
   34.1769   13.4046    6.0555 O   0  0  0  0  0  0  0  0  0  0  0  0
   31.8068   13.6155    7.0100 N   0  0  0  0  0  0  0  0  0  0  0  0
   30.9090   13.6505    8.1459 C   0  0  0  0  0  0  0  0  0  0  0  0
   29.7347   13.0809    7.7245 C   0  0  0  0  0  0  0  0  0  0  0  0
   29.4193   11.8853    8.2598 C   0  0  0  0  0  0  0  0  0  0  0  0
   28.2966   11.2250    7.9518 C   0  0  0  0  0  0  0  0  0  0  0  0
   27.4239   11.8038    7.0319 C   0  0  0  0  0  0  0  0  0  0  0  0
   27.8072   13.0276    6.5019 C   0  0  0  0  0  0  0  0  0  0  0  0
   28.9548   13.7107    6.8114 N   0  0  0  0  0  0  0  0  0  0  0  0
   32.7763   11.4996    7.0924 C   0  0  0  0  0  0  0  0  0  0  0  0
   33.3097   10.5002    6.2173 C   0  0  0  0  0  0  0  0  0  0  0  0
   32.7788    9.1524    6.2771 C   0  0  0  0  0  0  0  0  0  0  0  0
   31.6737    8.5855    7.1818 C   0  0  0  0  0  0  0  0  0  0  0  0
   31.2821    9.7075    7.9077 C   0  0  0  0  0  0  0  0  0  0  0  0
   30.2978    9.4373    8.7728 F   0  0  0  0  0  0  0  0  0  0  0  0
   31.7706   11.1310    7.8985 C   0  0  0  0  0  0  0  0  0  0  0  0
  1  2  2  0
  2  3  2  0
  2  4  1  0
  4  5  1  0
  5  6  1  0
  6  7  2  0
  7  8  1  0
  8  9  2  0
  9 10  1  0
 10 11  2  0
  2 12  1  0
 12 13  2  0
 13 14  1  0
 14 15  2  0
 15 16  1  0
 16 17  1  0
 16 18  2  0
 11  6  1  0
 18 12  1  0
A    1
 O1 
A    2
 S1 
A    3
 O2 
A    4
 N1 
A    5
 C1 
A    6
 C2 
A    7
 C3 
A    8
 C4 
A    9
 C5 
A   10
 C6 
A   11
 N2 
A   12
 C7 
A   13
 C8 
A   14
 C9 
A   15
 C10
A   16
 C11
A   17
 F1 
A   18
 C12
M  END
>  <ref_pdb>  (942) 
Ax0310a

>  <ref_mols>  (942) 
Ax0446a,Ax1080a,Ax0812a,Ax0719a,Ax1140a,Ax0528a,Ax0310a

>  <original SMILES>  (942) 
O=S(=O)(NCc1ccccn1)c1cccc(F)c1

>  <rationale>  (942) 
info info set:3d;hbond:S87+G127; hydroph_interaction:P107; 

>  <experiment>  (942) 
3d

>  <cluster_label>  (942) 
3

>  <cluster_rank>  (942) 
599

>  <N_interactions>  (942) 
3

>  <∆∆G>  (942) 
-0.704019

>  <comRMSD>  (942) 
0.771058

>  <ROCS_TanimotoCombo>  (942) 
0.331

>  <ROCS_ShapeTanimoto>  (942) 
0.215

>  <ROCS_ColorTanimoto>  (942) 
0.116

$$$$
EN300_7435835
     RDKit          3D

 13 13  0  0  0  0  0  0  0  0999 V2000
   34.9888   14.8185    8.9166 N   0  0  0  0  0  0  0  0  0  0  0  0
   33.6083   13.9190    8.6049 S   0  0  0  0  0  6  0  0  0  0  0  0
   33.9978   12.7091    9.1875 O   0  0  0  0  0  0  0  0  0  0  0  0
   32.4790   14.6574    9.1265 O   0  0  0  0  0  0  0  0  0  0  0  0
   33.6512   13.7194    6.8115 C   0  0  0  0  0  0  0  0  0  0  0  0
   32.3871   13.1674    6.1210 C   0  0  0  0  0  0  0  0  0  0  0  0
   32.1518   11.7413    6.5209 C   0  0  0  0  0  0  0  0  0  0  0  0
   33.0405   10.6355    6.1298 C   0  0  0  0  0  0  0  0  0  0  0  0
   32.7944    9.1589    6.5509 C   0  0  0  0  0  0  0  0  0  0  0  0
   31.4659    9.1974    7.4436 C   0  0  0  0  0  0  0  0  0  0  0  0
   30.6183   10.2487    7.8147 N   0  0  0  0  0  0  0  0  0  0  0  0
   30.9283   11.5222    7.3629 C   0  0  0  0  0  0  0  0  0  0  0  0
   29.8387   12.7236    7.8299 Cl  0  0  0  0  0  0  0  0  0  0  0  0
  1  2  1  0
  2  3  2  0
  2  4  2  0
  2  5  1  0
  5  6  1  0
  6  7  1  0
  7  8  2  0
  8  9  1  0
  9 10  2  0
 10 11  1  0
 11 12  2  0
 12 13  1  0
 12  7  1  0
A    1
 N1 
A    2
 S1 
A    3
 O1 
A    4
 O2 
A    5
 C1 
A    6
 C2 
A    7
 C3 
A    8
 C4 
A    9
 C5 
A   10
 C6 
A   11
 N2 
A   12
 C7 
A   13
CL1 
M  END
>  <ref_pdb>  (943) 
Ax0310a

>  <ref_mols>  (943) 
Ax0446a,Ax1080a,Ax0812a,Ax0719a,Ax1140a,Ax0528a,Ax0310a

>  <original SMILES>  (943) 
NS(=O)(=O)CCc1cccnc1Cl

>  <rationale>  (943) 
info info set:sulfonimide_whole;hbond:S87+G127+E85; 

>  <experiment>  (943) 
sulfonimide_whole

>  <cluster_label>  (943) 
3

>  <cluster_rank>  (943) 
600

>  <N_interactions>  (943) 
3

>  <∆∆G>  (943) 
-3.998887

>  <comRMSD>  (943) 
0.481548

>  <ROCS_TanimotoCombo>  (943) 
0.343

>  <ROCS_ShapeTanimoto>  (943) 
0.19

>  <ROCS_ColorTanimoto>  (943) 
0.153

$$$$
Z361883962
     RDKit          3D

 14 16  0  0  0  0  0  0  0  0999 V2000
   34.8181   14.4769    7.7147 N   0  0  0  0  0  0  0  0  0  0  0  0
   35.7589   13.9752    6.7183 C   0  0  0  0  0  0  0  0  0  0  0  0
   35.2108   13.1873    5.5938 C   0  0  0  0  0  0  0  0  0  0  0  0
   34.2892   12.0081    5.8935 C   0  0  0  0  0  0  0  0  0  0  0  0
   34.7726   10.5835    5.3102 C   0  0  0  0  0  0  0  0  0  0  0  0
   33.7688    9.6586    5.7416 C   0  0  0  0  0  0  0  0  0  0  0  0
   32.6441    9.9571    6.4853 C   0  0  0  0  0  0  0  0  0  0  0  0
   32.2802   11.1904    6.9375 C   0  0  0  0  0  0  0  0  0  0  0  0
   33.1161   12.2408    6.6412 C   0  0  0  0  0  0  0  0  0  0  0  0
   31.1140   11.1954    7.6383 O   0  0  0  0  0  0  0  0  0  0  0  0
   30.9713    9.7703    7.8378 C   0  0  0  0  0  0  0  0  0  0  0  0
   31.7341    9.0213    6.8736 O   0  0  0  0  0  0  0  0  0  0  0  0
   35.0533   13.8934    4.1318 C   0  0  0  0  0  0  0  0  0  0  0  0
   36.0168   13.0525    4.5657 C   0  0  0  0  0  0  0  0  0  0  0  0
  1  2  1  0
  2  3  1  0
  3  4  1  0
  4  5  2  0
  5  6  1  0
  6  7  2  0
  7  8  1  0
  8  9  2  0
  8 10  1  0
 10 11  1  0
 11 12  1  0
  3 13  1  0
 13 14  1  0
 14  3  1  0
  9  4  1  0
 12  7  1  0
A    1
 N1 
A    2
 C1 
A    3
 C2 
A    4
 C3 
A    5
 C4 
A    6
 C5 
A    7
 C6 
A    8
 C7 
A    9
 C8 
A   10
 O1 
A   11
 C9 
A   12
 O2 
A   13
 C10
A   14
 C11
M  END
>  <ref_pdb>  (944) 
Ax0310a

>  <ref_mols>  (944) 
Ax0446a,Ax1080a,Ax0812a,Ax0719a,Ax1140a,Ax0528a,Ax0310a

>  <original SMILES>  (944) 
NCC1(c2ccc3c(c2)OCO3)CC1

>  <rationale>  (944) 
info info set:3d;hbond:G127+E85; 

>  <experiment>  (944) 
3d

>  <cluster_label>  (944) 
3

>  <cluster_rank>  (944) 
601

>  <N_interactions>  (944) 
2

>  <∆∆G>  (944) 
-4.470191

>  <comRMSD>  (944) 
0.643822

>  <ROCS_TanimotoCombo>  (944) 
0.316

>  <ROCS_ShapeTanimoto>  (944) 
0.165

>  <ROCS_ColorTanimoto>  (944) 
0.151

$$$$
EN300_89828
     RDKit          3D

 14 14  0  0  0  0  0  0  0  0999 V2000
   34.9075   10.2151    4.8571 N   0  0  0  0  0  0  0  0  0  0  0  0
   33.9336   10.3567    5.4689 C   0  0  0  0  0  0  0  0  0  0  0  0
   32.7263   10.5602    6.2796 C   0  0  0  0  0  0  0  0  0  0  0  0
   32.2282    9.5889    7.1386 C   0  0  0  0  0  0  0  0  0  0  0  0
   31.0238    9.8466    7.9764 C   0  0  0  0  0  0  0  0  0  0  0  0
   30.4403   11.1143    7.7961 C   0  0  0  0  0  0  0  0  0  0  0  0
   29.4004   11.5094    8.4348 F   0  0  0  0  0  0  0  0  0  0  0  0
   30.9338   12.0105    6.9172 C   0  0  0  0  0  0  0  0  0  0  0  0
   30.1743   13.2278    6.8007 C   0  0  0  0  0  0  0  0  0  0  0  0
   29.9043   14.1625    8.3385 S   0  0  0  0  0  6  0  0  0  0  0  0
   28.6841   13.3949    9.1558 N   0  0  0  0  0  0  0  0  0  0  0  0
   29.2321   15.4045    8.0220 O   0  0  0  0  0  0  0  0  0  0  0  0
   31.1000   14.1291    9.1515 O   0  0  0  0  0  0  0  0  0  0  0  0
   32.0725   11.7666    6.1688 C   0  0  0  0  0  0  0  0  0  0  0  0
  1  2  3  0
  2  3  1  0
  3  4  2  0
  4  5  1  0
  5  6  2  0
  6  7  1  0
  6  8  1  0
  8  9  1  0
  9 10  1  0
 10 11  1  0
 10 12  2  0
 10 13  2  0
  8 14  2  0
 14  3  1  0
A    1
 N1 
A    2
 C1 
A    3
 C2 
A    4
 C3 
A    5
 C4 
A    6
 C5 
A    7
 F1 
A    8
 C6 
A    9
 C7 
A   10
 S1 
A   11
 N2 
A   12
 O1 
A   13
 O2 
A   14
 C8 
M  END
>  <ref_pdb>  (945) 
Ax0310a

>  <ref_mols>  (945) 
Ax0446a,Ax1080a,Ax0812a,Ax0719a,Ax1140a,Ax0528a,Ax0310a

>  <original SMILES>  (945) 
N#Cc1ccc(F)c(CS(N)(=O)=O)c1

>  <rationale>  (945) 
info info set:sulfonimide_whole;hbond:S87+S125; hydroph_interaction:P107; 

>  <experiment>  (945) 
sulfonimide_whole

>  <cluster_label>  (945) 
3

>  <cluster_rank>  (945) 
602

>  <N_interactions>  (945) 
3

>  <∆∆G>  (945) 
-2.764825

>  <comRMSD>  (945) 
0.587131

>  <ROCS_TanimotoCombo>  (945) 
0.342

>  <ROCS_ShapeTanimoto>  (945) 
0.2

>  <ROCS_ColorTanimoto>  (945) 
0.142

$$$$
Z1827719547
     RDKit          3D

 17 19  0  0  0  0  0  0  0  0999 V2000
   35.2760   12.1169    4.4374 C   0  0  0  0  0  0  0  0  0  0  0  0
   34.6047   10.8738    4.9716 C   0  0  0  0  0  0  0  0  0  0  0  0
   35.1532    9.6026    4.5891 N   0  0  0  0  0  0  0  0  0  0  0  0
   34.3328    8.7531    5.2403 N   0  0  0  0  0  0  0  0  0  0  0  0
   33.3447    9.3440    5.9767 C   0  0  0  0  0  0  0  0  0  0  0  0
   32.4301    8.6365    6.7105 N   0  0  0  0  0  0  0  0  0  0  0  0
   31.5694    9.4234    7.3211 C   0  0  0  0  0  0  0  0  0  0  0  0
   30.6525    8.7361    8.0478 O   0  0  0  0  0  0  0  0  0  0  0  0
   31.6454   10.9169    7.1819 C   0  0  0  0  0  0  0  0  0  0  0  0
   30.4084   11.2165    8.0656 C   0  0  0  0  0  0  0  0  0  0  0  0
   30.2823   10.4953    9.0203 O   0  0  0  0  0  0  0  0  0  0  0  0
   29.5119   12.1941    7.6442 N   0  0  0  0  0  0  0  0  0  0  0  0
   29.3982   13.5422    8.1144 C   0  0  0  0  0  0  0  0  0  0  0  0
   30.0289   14.0416    9.2809 C   0  0  0  0  0  0  0  0  0  0  0  0
   28.4584   13.8388    9.3539 C   0  0  0  0  0  0  0  0  0  0  0  0
   32.5762   11.6028    6.4605 C   0  0  0  0  0  0  0  0  0  0  0  0
   33.4893   10.7411    5.8113 C   0  0  0  0  0  0  0  0  0  0  0  0
  1  2  1  0
  2  3  2  0
  3  4  1  0
  4  5  1  0
  5  6  2  0
  6  7  1  0
  7  8  1  0
  7  9  2  0
  9 10  1  0
 10 11  2  0
 10 12  1  0
 12 13  1  0
 13 14  1  0
 14 15  1  0
  9 16  1  0
 16 17  2  0
 17  2  1  0
 17  5  1  0
 15 13  1  0
A    1
 C1 
A    2
 C2 
A    3
 N1 
A    4
 N2 
A    5
 C3 
A    6
 N3 
A    7
 C4 
A    8
 O1 
A    9
 C5 
A   10
 C6 
A   11
 O2 
A   12
 N4 
A   13
 C7 
A   14
 C8 
A   15
 C9 
A   16
 C10
A   17
 C11
M  END
>  <ref_pdb>  (946) 
Ax0310a

>  <ref_mols>  (946) 
Ax0446a,Ax1080a,Ax0812a,Ax0719a,Ax1140a,Ax0528a,Ax0310a

>  <original SMILES>  (946) 
Cc1n[nH]c2nc(O)c(C(=O)NC3CC3)cc12

>  <rationale>  (946) 
info info set:screening_pocket;hbond:S105; 

>  <experiment>  (946) 
screening_pocket

>  <cluster_label>  (946) 
3

>  <cluster_rank>  (946) 
603

>  <N_interactions>  (946) 
1

>  <∆∆G>  (946) 
-2.885816

>  <comRMSD>  (946) 
0.665935

>  <ROCS_TanimotoCombo>  (946) 
0.669

>  <ROCS_ShapeTanimoto>  (946) 
0.272

>  <ROCS_ColorTanimoto>  (946) 
0.397

$$$$
EN300_1987404
     RDKit          3D

 13 14  0  0  0  0  0  0  0  0999 V2000
   28.7852   13.6314    9.3452 N   0  0  0  0  0  0  0  0  0  0  0  0
   30.0153   13.9615    8.2705 S   0  0  0  0  0  6  0  0  0  0  0  0
   29.2931   14.4847    7.1427 O   0  0  0  0  0  0  0  0  0  0  0  0
   30.9863   14.7162    9.0356 O   0  0  0  0  0  0  0  0  0  0  0  0
   30.7625   12.4207    7.7882 C   0  0  0  0  0  0  0  0  0  0  0  0
   30.1416   11.1921    8.3794 C   0  0  0  0  0  0  0  0  0  0  0  0
   30.6458    9.8051    8.1046 C   0  0  0  0  0  0  0  0  0  0  0  0
   31.8255    9.7179    7.1601 C   0  0  0  0  0  0  0  0  0  0  0  0
   32.4515    8.5675    6.7525 O   0  0  0  0  0  0  0  0  0  0  0  0
   33.4285    9.0256    5.9136 C   0  0  0  0  0  0  0  0  0  0  0  0
   33.4362   10.3741    5.7920 C   0  0  0  0  0  0  0  0  0  0  0  0
   32.4221   10.8294    6.5808 C   0  0  0  0  0  0  0  0  0  0  0  0
   31.9570   12.2422    6.8432 C   0  0  0  0  0  0  0  0  0  0  0  0
  1  2  1  0
  2  3  2  0
  2  4  2  0
  2  5  1  0
  5  6  2  0
  6  7  1  0
  7  8  2  0
  8  9  1  0
  9 10  1  0
 10 11  2  0
 11 12  1  0
 12 13  2  0
 13  5  1  0
 12  8  1  0
A    1
 N1 
A    2
 S1 
A    3
 O1 
A    4
 O2 
A    5
 C1 
A    6
 C2 
A    7
 C3 
A    8
 C4 
A    9
 O3 
A   10
 C5 
A   11
 C6 
A   12
 C7 
A   13
 C8 
M  END
>  <ref_pdb>  (947) 
Ax0310a

>  <ref_mols>  (947) 
Ax0446a,Ax1080a,Ax0812a,Ax0719a,Ax1140a,Ax0528a,Ax0310a

>  <original SMILES>  (947) 
NS(=O)(=O)c1ccc2occc2c1

>  <rationale>  (947) 
info info set:sulfonimide_whole;hbond:S87+S125; 

>  <experiment>  (947) 
sulfonimide_whole

>  <cluster_label>  (947) 
3

>  <cluster_rank>  (947) 
604

>  <N_interactions>  (947) 
2

>  <∆∆G>  (947) 
-6.346578

>  <comRMSD>  (947) 
0.575747

>  <ROCS_TanimotoCombo>  (947) 
0.334

>  <ROCS_ShapeTanimoto>  (947) 
0.189

>  <ROCS_ColorTanimoto>  (947) 
0.145

$$$$
EN300_274096
     RDKit          3D

 15 15  0  0  0  0  0  0  0  0999 V2000
   29.2519   14.1433   10.2288 N   0  0  0  0  0  0  0  0  0  0  0  0
   30.3611   13.8015    9.0188 S   0  0  0  0  0  6  0  0  0  0  0  0
   29.9729   14.8063    8.1299 O   0  0  0  0  0  0  0  0  0  0  0  0
   31.6666   13.7454    9.6228 O   0  0  0  0  0  0  0  0  0  0  0  0
   29.9822   12.2826    8.1494 C   0  0  0  0  0  0  0  0  0  0  0  0
   31.0492   11.3625    7.5374 C   0  0  0  0  0  0  0  0  0  0  0  0
   32.1031   12.0424    6.7259 C   0  0  0  0  0  0  0  0  0  0  0  0
   33.1698   11.1654    6.0738 C   0  0  0  0  0  0  0  0  0  0  0  0
   34.1301   11.8363    5.3542 N   0  0  0  0  0  4  0  0  0  0  0  0
   34.3203   13.0245    5.6434 O   0  0  0  0  0  0  0  0  0  0  0  0
   34.9938   11.1110    4.8293 O   0  0  0  0  0  1  0  0  0  0  0  0
   33.3092    9.5919    6.1259 C   0  0  0  0  0  0  0  0  0  0  0  0
   32.1639    9.0455    7.0084 C   0  0  0  0  0  0  0  0  0  0  0  0
   31.0496    9.8261    7.7265 C   0  0  0  0  0  0  0  0  0  0  0  0
   29.9982    8.8575    8.6111 Cl  0  0  0  0  0  0  0  0  0  0  0  0
  1  2  1  0
  2  3  2  0
  2  4  2  0
  2  5  1  0
  5  6  1  0
  6  7  2  0
  7  8  1  0
  8  9  1  0
  9 10  2  0
  9 11  1  0
  8 12  2  0
 12 13  1  0
 13 14  2  0
 14 15  1  0
 14  6  1  0
M  CHG  2   9   1  11  -1
A    1
 N1 
A    2
 S1 
A    3
 O1 
A    4
 O2 
A    5
 C1 
A    6
 C2 
A    7
 C3 
A    8
 C4 
A    9
 N2 
A   10
 O3 
A   11
 O4 
A   12
 C5 
A   13
 C6 
A   14
 C7 
A   15
CL1 
M  END
>  <ref_pdb>  (948) 
Ax0310a

>  <ref_mols>  (948) 
Ax0446a,Ax1080a,Ax0812a,Ax0719a,Ax1140a,Ax0528a,Ax0310a

>  <original SMILES>  (948) 
NS(=O)(=O)Cc1cc([N+](=O)[O-])ccc1Cl

>  <rationale>  (948) 
info info set:sulfonimide_whole;hbond:S87+S125; 

>  <experiment>  (948) 
sulfonimide_whole

>  <cluster_label>  (948) 
3

>  <cluster_rank>  (948) 
605

>  <N_interactions>  (948) 
2

>  <∆∆G>  (948) 
-4.117461

>  <comRMSD>  (948) 
0.782311

>  <ROCS_TanimotoCombo>  (948) 
0.348

>  <ROCS_ShapeTanimoto>  (948) 
0.205

>  <ROCS_ColorTanimoto>  (948) 
0.143

$$$$
Z8346438374
     RDKit          3D

 21 23  0  0  0  0  0  0  0  0999 V2000
   28.5658   14.1627    5.4820 C   0  0  0  0  0  0  0  0  0  0  0  0
   28.5909   14.3697    6.9934 C   0  0  0  0  0  0  0  0  0  0  0  0
   27.7398   15.0935    7.6582 N   0  0  0  0  0  0  0  0  0  0  0  0
   28.1261   15.0544    9.2509 S   0  0  0  0  0  0  0  0  0  0  0  0
   29.4610   14.0416    9.0513 C   0  0  0  0  0  0  0  0  0  0  0  0
   29.6802   13.6833    7.7540 C   0  0  0  0  0  0  0  0  0  0  0  0
   30.6867   12.8676    7.2573 N   0  0  0  0  0  0  0  0  0  0  0  0
   30.9474   12.9637    5.8460 C   0  0  0  0  0  0  0  0  0  0  0  0
   30.7075   11.6151    7.8043 C   0  0  0  0  0  0  0  0  0  0  0  0
   30.0430   11.2517    8.7208 O   0  0  0  0  0  0  0  0  0  0  0  0
   31.5681   10.5812    7.2493 C   0  0  0  0  0  0  0  0  0  0  0  0
   32.5428   11.4482    6.3943 C   0  0  0  0  0  0  0  0  0  0  0  0
   33.4597   10.4421    5.7581 C   0  0  0  0  0  0  0  0  0  0  0  0
   34.5791   10.7383    4.8332 C   0  0  0  0  0  0  0  0  0  0  0  0
   34.9177   12.1731    4.4444 C   0  0  0  0  0  0  0  0  0  0  0  0
   35.1497    9.5804    4.4702 N   0  0  0  0  0  0  0  0  0  0  0  0
   34.4028    8.6354    5.1581 N   0  0  0  0  0  0  0  0  0  0  0  0
   33.3790    9.1272    5.9489 C   0  0  0  0  0  0  0  0  0  0  0  0
   32.4896    8.4584    6.7442 N   0  0  0  0  0  0  0  0  0  0  0  0
   31.6057    9.2387    7.3685 C   0  0  0  0  0  0  0  0  0  0  0  0
   30.7501    8.5325    8.1353 O   0  0  0  0  0  0  0  0  0  0  0  0
  1  2  1  0
  2  3  2  0
  3  4  1  0
  4  5  1  0
  5  6  2  0
  6  7  1  0
  7  8  1  0
  7  9  1  0
  9 10  2  0
  9 11  1  0
 11 12  2  0
 12 13  1  0
 13 14  1  0
 14 15  1  0
 14 16  2  0
 16 17  1  0
 17 18  1  0
 18 19  1  0
 19 20  2  0
 20 21  1  0
  6  2  1  0
 20 11  1  0
 18 13  2  0
A    1
 C1 
A    2
 C2 
A    3
 N1 
A    4
 S1 
A    5
 C3 
A    6
 C4 
A    7
 N2 
A    8
 C5 
A    9
 C6 
A   10
 O1 
A   11
 C7 
A   12
 C8 
A   13
 C9 
A   14
 C10
A   15
 C11
A   16
 N3 
A   17
 N4 
A   18
 C12
A   19
 N5 
A   20
 C13
A   21
 O2 
M  END
>  <ref_pdb>  (949) 
Ax0310a

>  <ref_mols>  (949) 
Ax0446a,Ax1080a,Ax0812a,Ax0719a,Ax1140a,Ax0528a,Ax0310a

>  <original SMILES>  (949) 
Cc1nscc1N(C)C(=O)c1cc2c(C)n[nH]c2nc1O

>  <rationale>  (949) 
info info set:screening_pocket;pistack:H21; 

>  <experiment>  (949) 
screening_pocket

>  <cluster_label>  (949) 
3

>  <cluster_rank>  (949) 
606

>  <N_interactions>  (949) 
1

>  <∆∆G>  (949) 
-4.213545

>  <comRMSD>  (949) 
0.639202

>  <ROCS_TanimotoCombo>  (949) 
0.704

>  <ROCS_ShapeTanimoto>  (949) 
0.298

>  <ROCS_ColorTanimoto>  (949) 
0.406

$$$$
EN300_91261
     RDKit          3D

 12 12  0  0  0  0  0  0  0  0999 V2000
   34.6291   14.7527    8.9924 C   0  0  0  0  0  0  0  0  0  0  0  0
   34.7808   14.7099    7.5549 N   0  0  0  0  0  0  0  0  0  0  0  0
   33.8685   13.6832    6.5903 S   0  0  0  0  0  6  0  0  0  0  0  0
   34.7687   12.6687    6.1414 O   0  0  0  0  0  0  0  0  0  0  0  0
   33.1628   14.4509    5.6141 O   0  0  0  0  0  0  0  0  0  0  0  0
   32.6610   12.9815    7.7187 C   0  0  0  0  0  0  0  0  0  0  0  0
   31.6280   12.1455    6.9749 C   0  0  0  0  0  0  0  0  0  0  0  0
   30.4498   11.6040    7.8403 C   0  0  0  0  0  0  0  0  0  0  0  0
   30.6003   10.1074    8.2227 C   0  0  0  0  0  0  0  0  0  0  0  0
   31.6575    9.2224    7.6426 C   0  0  0  0  0  0  0  0  0  0  0  0
   32.6367    9.9028    6.6999 C   0  0  0  0  0  0  0  0  0  0  0  0
   32.0872   10.9472    6.0863 C   0  0  0  0  0  0  0  0  0  0  0  0
  1  2  1  0
  2  3  1  0
  3  4  2  0
  3  5  2  0
  3  6  1  0
  6  7  1  0
  7  8  1  0
  8  9  1  0
  9 10  1  0
 10 11  1  0
 11 12  1  0
 12  7  1  0
A    1
 C1 
A    2
 N1 
A    3
 S1 
A    4
 O1 
A    5
 O2 
A    6
 C2 
A    7
 C3 
A    8
 C4 
A    9
 C5 
A   10
 C6 
A   11
 C7 
A   12
 C8 
M  END
>  <ref_pdb>  (950) 
Ax0310a

>  <ref_mols>  (950) 
Ax0446a,Ax1080a,Ax0812a,Ax0719a,Ax1140a,Ax0528a,Ax0310a

>  <original SMILES>  (950) 
CNS(=O)(=O)CC1CCCCC1

>  <rationale>  (950) 
info info set:sulfonimide_joint;hbond:G127; hydroph_interaction:P107; 

>  <experiment>  (950) 
sulfonimide_joint

>  <cluster_label>  (950) 
3

>  <cluster_rank>  (950) 
607

>  <N_interactions>  (950) 
2

>  <∆∆G>  (950) 
-2.409138

>  <comRMSD>  (950) 
0.85833

>  <ROCS_TanimotoCombo>  (950) 
0.335

>  <ROCS_ShapeTanimoto>  (950) 
0.169

>  <ROCS_ColorTanimoto>  (950) 
0.166

$$$$
Z3687346960
     RDKit          3D

 23 26  0  0  0  0  0  0  0  0999 V2000
   35.1479   13.0887    4.8533 C   0  0  0  0  0  0  0  0  0  0  0  0
   34.2548   11.8510    4.8819 C   0  0  2  0  0  0  0  0  0  0  0  0
   32.9417   12.1933    5.5700 C   0  0  0  0  0  0  0  0  0  0  0  0
   32.4273   10.9569    6.2866 C   0  0  0  0  0  0  0  0  0  0  0  0
   31.2701   11.0539    7.1710 C   0  0  0  0  0  0  0  0  0  0  0  0
   30.4894   12.2881    7.3957 C   0  0  0  0  0  0  0  0  0  0  0  0
   30.6062   13.2644    6.6731 O   0  0  0  0  0  0  0  0  0  0  0  0
   29.5342   12.2287    8.4975 N   0  0  0  0  0  0  0  0  0  0  0  0
   28.5041   13.1929    8.5268 C   0  0  0  0  0  0  0  0  0  0  0  0
   28.9423   14.3827    9.3312 C   0  0  0  0  0  0  0  0  0  0  0  0
   30.4095   14.4859    9.5566 N   0  0  0  0  0  0  0  0  0  0  0  0
   30.9640   15.0317   10.6644 C   0  0  0  0  0  0  0  0  0  0  0  0
   32.4254   14.8868   10.3801 C   0  0  0  0  0  0  0  0  0  0  0  0
   32.5764   14.2495    9.1085 N   0  0  0  0  0  0  0  0  0  0  0  0
   31.3310   14.0389    8.6688 N   0  0  0  0  0  0  0  0  0  0  0  0
   27.8028   15.5598    9.3752 C   0  0  0  0  0  0  0  0  0  0  0  0
   28.0907   14.7550   10.4117 C   0  0  0  0  0  0  0  0  0  0  0  0
   31.1185    9.7900    7.6650 N   0  0  0  0  0  0  0  0  0  0  0  0
   32.1301    9.0265    7.0561 N   0  0  0  0  0  0  0  0  0  0  0  0
   32.9363    9.7698    6.1783 C   0  0  0  0  0  0  0  0  0  0  0  0
   34.0007    9.6801    5.2929 C   0  0  2  0  0  0  0  0  0  0  0  0
   34.8419    8.6304    5.1203 C   0  0  0  0  0  0  0  0  0  0  0  0
   34.7821   10.8840    5.4447 O   0  0  0  0  0  0  0  0  0  0  0  0
  2  1  1  1
  2  3  1  0
  3  4  1  0
  4  5  1  0
  5  6  1  0
  6  7  2  0
  6  8  1  0
  8  9  1  0
  9 10  1  0
 10 11  1  0
 11 12  1  0
 12 13  2  0
 13 14  1  0
 14 15  2  0
 10 16  1  0
 16 17  1  0
  5 18  2  0
 18 19  1  0
 19 20  1  0
 20 21  1  0
 21 22  1  1
 21 23  1  0
 23  2  1  0
 20  4  2  0
 17 10  1  0
 15 11  1  0
A    1
 C1 
A    2
 C2 
A    3
 C3 
A    4
 C4 
A    5
 C5 
A    6
 C6 
A    7
 O1 
A    8
 N1 
A    9
 C7 
A   10
 C8 
A   11
 N2 
A   12
 C9 
A   13
 C10
A   14
 N3 
A   15
 N4 
A   16
 C11
A   17
 C12
A   18
 N5 
A   19
 N6 
A   20
 C13
A   21
 C14
A   22
 C15
A   23
 O2 
M  END
>  <ref_pdb>  (951) 
Ax0310a

>  <ref_mols>  (951) 
Ax0446a,Ax1080a,Ax0812a,Ax0719a,Ax1140a,Ax0528a,Ax0310a

>  <original SMILES>  (951) 
C[C@@H]1Cc2c(C(=O)NCC3(n4ccnn4)CC3)n[nH]c2[C@H](C)O1

>  <rationale>  (951) 
info info set:screening_whole;hbond:S87+S125; hydroph_interaction:P107+Y89+Y90; 

>  <experiment>  (951) 
screening_whole

>  <cluster_label>  (951) 
3

>  <cluster_rank>  (951) 
608

>  <N_interactions>  (951) 
5

>  <∆∆G>  (951) 
-2.815336

>  <comRMSD>  (951) 
0.771359

>  <ROCS_TanimotoCombo>  (951) 
0.461

>  <ROCS_ShapeTanimoto>  (951) 
0.239

>  <ROCS_ColorTanimoto>  (951) 
0.222

$$$$
EN300_37158275
     RDKit          3D

 15 16  0  0  0  0  0  0  0  0999 V2000
   35.0167    9.1832    4.3034 C   0  0  0  0  0  0  0  0  0  0  0  0
   34.9370   10.5726    4.5859 O   0  0  0  0  0  0  0  0  0  0  0  0
   34.0012   10.8287    5.6204 C   0  0  0  0  0  0  0  0  0  0  0  0
   33.0507    9.7357    5.9021 C   0  0  0  0  0  0  0  0  0  0  0  0
   32.0830   10.0247    6.9996 C   0  0  0  0  0  0  0  0  0  0  0  0
   32.1895   11.3836    7.6480 C   0  0  0  0  0  0  0  0  0  0  0  0
   33.1743   12.2875    7.3085 C   0  0  0  0  0  0  0  0  0  0  0  0
   33.2662   13.7076    8.2812 S   0  0  0  0  0  6  0  0  0  0  0  0
   34.4520   14.6946    7.5768 N   0  0  0  0  0  0  0  0  0  0  0  0
   31.9183   14.2111    8.3671 O   0  0  0  0  0  0  0  0  0  0  0  0
   33.9025   13.2180    9.4395 O   0  0  0  0  0  0  0  0  0  0  0  0
   34.0415   12.0467    6.3182 C   0  0  0  0  0  0  0  0  0  0  0  0
   31.2381   11.5023    8.5567 O   0  0  0  0  0  0  0  0  0  0  0  0
   30.3705   10.3739    8.3579 C   0  0  0  0  0  0  0  0  0  0  0  0
   31.0035    9.3203    7.7131 C   0  0  0  0  0  0  0  0  0  0  0  0
  1  2  1  0
  2  3  1  0
  3  4  2  0
  4  5  1  0
  5  6  2  0
  6  7  1  0
  7  8  1  0
  8  9  1  0
  8 10  2  0
  8 11  2  0
  7 12  2  0
  6 13  1  0
 13 14  1  0
 14 15  1  0
 12  3  1  0
 15  5  1  0
A    1
 C1 
A    2
 O1 
A    3
 C2 
A    4
 C3 
A    5
 C4 
A    6
 C5 
A    7
 C6 
A    8
 S1 
A    9
 N1 
A   10
 O2 
A   11
 O3 
A   12
 C7 
A   13
 O4 
A   14
 C8 
A   15
 C9 
M  END
>  <ref_pdb>  (952) 
Ax0310a

>  <ref_mols>  (952) 
Ax0446a,Ax1080a,Ax0812a,Ax0719a,Ax1140a,Ax0528a,Ax0310a

>  <original SMILES>  (952) 
COc1cc2c(c(S(N)(=O)=O)c1)OCC2

>  <rationale>  (952) 
info info set:sulfonimide_whole;hbond:S87+G127+E85; 

>  <experiment>  (952) 
sulfonimide_whole

>  <cluster_label>  (952) 
3

>  <cluster_rank>  (952) 
609

>  <N_interactions>  (952) 
3

>  <∆∆G>  (952) 
-3.070017

>  <comRMSD>  (952) 
0.719036

>  <ROCS_TanimotoCombo>  (952) 
0.345

>  <ROCS_ShapeTanimoto>  (952) 
0.182

>  <ROCS_ColorTanimoto>  (952) 
0.163

$$$$
EN300_341922
     RDKit          3D

 11 11  0  0  0  0  0  0  0  0999 V2000
   28.7903   16.1227    8.1692 N   0  0  0  0  0  0  0  0  0  0  0  0
   28.7069   14.7976    7.6190 C   0  0  0  0  0  0  0  0  0  0  0  0
   29.6486   13.8128    8.3127 C   0  0  0  0  0  0  0  0  0  0  0  0
   29.3056   12.5198    7.5872 C   0  0  0  0  0  0  0  0  0  0  0  0
   30.0182   11.4206    8.2016 N   0  0  0  0  0  0  0  0  0  0  0  0
   31.0035   10.7834    7.4732 C   0  0  0  0  0  0  0  0  0  0  0  0
   31.7472   11.5005    6.3939 C   0  0  0  0  0  0  0  0  0  0  0  0
   32.8079   10.6753    5.6359 C   0  0  0  0  0  0  0  0  0  0  0  0
   32.9082    9.2379    6.1394 C   0  0  0  0  0  0  0  0  0  0  0  0
   32.1840    8.6918    7.1268 N   0  0  0  0  0  0  0  0  0  0  0  0
   31.2836    9.4591    7.7446 C   0  0  0  0  0  0  0  0  0  0  0  0
  1  2  3  0
  2  3  1  0
  3  4  1  0
  4  5  1  0
  5  6  1  0
  6  7  2  0
  7  8  1  0
  8  9  2  0
  9 10  1  0
 10 11  2  0
 11  6  1  0
A    1
 N1 
A    2
 C1 
A    3
 C2 
A    4
 C3 
A    5
 N2 
A    6
 C4 
A    7
 C5 
A    8
 C6 
A    9
 C7 
A   10
 N3 
A   11
 C8 
M  END
>  <ref_pdb>  (953) 
Ax0310a

>  <ref_mols>  (953) 
Ax0446a,Ax1080a,Ax0812a,Ax0719a,Ax1140a,Ax0528a,Ax0310a

>  <original SMILES>  (953) 
N#CCCNc1cccnc1

>  <rationale>  (953) 
info info set:bb_densepocket2;hbond:S87+S125+Y90; hydroph_interaction:P107; 

>  <experiment>  (953) 
bb_densepocket2

>  <cluster_label>  (953) 
3

>  <cluster_rank>  (953) 
610

>  <N_interactions>  (953) 
5

>  <∆∆G>  (953) 
-4.517613

>  <comRMSD>  (953) 
0.671023

>  <ROCS_TanimotoCombo>  (953) 
0.608

>  <ROCS_ShapeTanimoto>  (953) 
0.169

>  <ROCS_ColorTanimoto>  (953) 
0.439

$$$$
EN300_79466
     RDKit          3D

 13 14  0  0  0  0  0  0  0  0999 V2000
   34.4825   14.3453    8.0357 N   0  0  0  0  0  0  0  0  0  0  0  0
   33.7757   13.5847    6.7049 S   0  0  0  0  0  6  0  0  0  0  0  0
   34.6848   12.5955    6.2306 O   0  0  0  0  0  0  0  0  0  0  0  0
   33.3418   14.5684    5.7674 O   0  0  0  0  0  0  0  0  0  0  0  0
   32.3714   12.7509    7.3384 C   0  0  0  0  0  0  0  0  0  0  0  0
   31.3345   13.4006    8.0381 C   0  0  0  0  0  0  0  0  0  0  0  0
   30.2533   12.6921    8.5027 C   0  0  0  0  0  0  0  0  0  0  0  0
   30.1916   11.3250    8.2970 C   0  0  0  0  0  0  0  0  0  0  0  0
   31.1871   10.6655    7.6331 C   0  0  0  0  0  0  0  0  0  0  0  0
   31.4270    9.3290    7.2813 C   0  0  0  0  0  0  0  0  0  0  0  0
   32.6094    9.3314    6.6004 C   0  0  0  0  0  0  0  0  0  0  0  0
   33.1148   10.5828    6.5281 O   0  0  0  0  0  0  0  0  0  0  0  0
   32.2400   11.3962    7.1673 C   0  0  0  0  0  0  0  0  0  0  0  0
  1  2  1  0
  2  3  2  0
  2  4  2  0
  2  5  1  0
  5  6  2  0
  6  7  1  0
  7  8  2  0
  8  9  1  0
  9 10  1  0
 10 11  2  0
 11 12  1  0
 12 13  1  0
 13  5  1  0
 13  9  2  0
A    1
 N1 
A    2
 S1 
A    3
 O1 
A    4
 O2 
A    5
 C1 
A    6
 C2 
A    7
 C3 
A    8
 C4 
A    9
 C5 
A   10
 C6 
A   11
 C7 
A   12
 O3 
A   13
 C8 
M  END
>  <ref_pdb>  (954) 
Ax0310a

>  <ref_mols>  (954) 
Ax0446a,Ax1080a,Ax0812a,Ax0719a,Ax1140a,Ax0528a,Ax0310a

>  <original SMILES>  (954) 
NS(=O)(=O)c1cccc2ccoc12

>  <rationale>  (954) 
info info set:sulfonimide_whole;hbond:G127; 

>  <experiment>  (954) 
sulfonimide_whole

>  <cluster_label>  (954) 
3

>  <cluster_rank>  (954) 
611

>  <N_interactions>  (954) 
1

>  <∆∆G>  (954) 
-3.765237

>  <comRMSD>  (954) 
0.728127

>  <ROCS_TanimotoCombo>  (954) 
0.322

>  <ROCS_ShapeTanimoto>  (954) 
0.172

>  <ROCS_ColorTanimoto>  (954) 
0.15

$$$$
EN300_125966
     RDKit          3D

 13 14  0  0  0  0  0  0  0  0999 V2000
   28.8356   13.6418    9.3450 N   0  0  0  0  0  0  0  0  0  0  0  0
   30.0754   13.9648    8.2777 S   0  0  0  0  0  6  0  0  0  0  0  0
   31.0270   14.7355    9.0479 O   0  0  0  0  0  0  0  0  0  0  0  0
   29.3405   14.4669    7.1490 O   0  0  0  0  0  0  0  0  0  0  0  0
   30.8289   12.4047    7.8125 C   0  0  0  0  0  0  0  0  0  0  0  0
   30.1035   11.2435    8.3797 C   0  0  0  0  0  0  0  0  0  0  0  0
   30.5941    9.8169    8.1137 C   0  0  0  0  0  0  0  0  0  0  0  0
   31.8290    9.6817    7.2355 C   0  0  0  0  0  0  0  0  0  0  0  0
   32.4298   10.8589    6.7472 C   0  0  0  0  0  0  0  0  0  0  0  0
   31.9491   12.2839    7.0226 C   0  0  0  0  0  0  0  0  0  0  0  0
   33.5055   10.5608    5.9914 O   0  0  0  0  0  0  0  0  0  0  0  0
   33.4101    9.1287    5.9260 C   0  0  0  0  0  0  0  0  0  0  0  0
   32.4439    8.5573    6.8493 O   0  0  0  0  0  0  0  0  0  0  0  0
  1  2  1  0
  2  3  2  0
  2  4  2  0
  2  5  1  0
  5  6  2  0
  6  7  1  0
  7  8  2  0
  8  9  1  0
  9 10  2  0
  9 11  1  0
 11 12  1  0
 12 13  1  0
 10  5  1  0
 13  8  1  0
A    1
 N1 
A    2
 S1 
A    3
 O1 
A    4
 O2 
A    5
 C1 
A    6
 C2 
A    7
 C3 
A    8
 C4 
A    9
 C5 
A   10
 C6 
A   11
 O3 
A   12
 C7 
A   13
 O4 
M  END
>  <ref_pdb>  (955) 
Ax0310a

>  <ref_mols>  (955) 
Ax0446a,Ax1080a,Ax0812a,Ax0719a,Ax1140a,Ax0528a,Ax0310a

>  <original SMILES>  (955) 
NS(=O)(=O)c1ccc2c(c1)OCO2

>  <rationale>  (955) 
info info set:sulfonimide_whole;hbond:S87+S125+G127; 

>  <experiment>  (955) 
sulfonimide_whole

>  <cluster_label>  (955) 
3

>  <cluster_rank>  (955) 
612

>  <N_interactions>  (955) 
3

>  <∆∆G>  (955) 
-4.043305

>  <comRMSD>  (955) 
0.545138

>  <ROCS_TanimotoCombo>  (955) 
0.334

>  <ROCS_ShapeTanimoto>  (955) 
0.191

>  <ROCS_ColorTanimoto>  (955) 
0.144

$$$$
Z1262557271
     RDKit          3D

 12 12  0  0  0  0  0  0  0  0999 V2000
   33.1747   12.9418    8.6943 O   0  0  0  0  0  0  0  0  0  0  0  0
   32.0689   13.3655    8.3839 C   0  0  0  0  0  0  0  0  0  0  0  0
   31.5885   14.4341    9.0606 O   0  0  0  0  0  0  0  0  0  0  0  0
   31.2199   12.8726    7.3761 C   0  0  0  0  0  0  0  0  0  0  0  0
   31.4110   13.4929    6.1850 F   0  0  0  0  0  0  0  0  0  0  0  0
   29.9235   13.1562    7.7118 F   0  0  0  0  0  0  0  0  0  0  0  0
   31.2848   11.5377    7.0207 C   0  0  0  0  0  0  0  0  0  0  0  0
   32.5351   11.0544    6.6511 C   0  0  0  0  0  0  0  0  0  0  0  0
   32.6256    9.5759    6.4208 C   0  0  0  0  0  0  0  0  0  0  0  0
   32.1053    8.8376    7.5265 O   0  0  0  0  0  0  0  0  0  0  0  0
   30.9247    9.2153    8.1133 C   0  0  0  0  0  0  0  0  0  0  0  0
   30.5295   10.6870    8.0458 C   0  0  0  0  0  0  0  0  0  0  0  0
  1  2  2  0
  2  3  1  0
  2  4  1  0
  4  5  1  0
  4  6  1  0
  4  7  1  0
  7  8  1  0
  8  9  1  0
  9 10  1  0
 10 11  1  0
 11 12  1  0
 12  7  1  0
A    1
 O1 
A    2
 C1 
A    3
 O2 
A    4
 C2 
A    5
 F1 
A    6
 F2 
A    7
 C3 
A    8
 C4 
A    9
 C5 
A   10
 O3 
A   11
 C6 
A   12
 C7 
M  END
>  <ref_pdb>  (956) 
Ax0310a

>  <ref_mols>  (956) 
Ax0446a,Ax1080a,Ax0812a,Ax0719a,Ax1140a,Ax0528a,Ax0310a

>  <original SMILES>  (956) 
O=C(O)C(F)(F)C1CCOCC1

>  <rationale>  (956) 
info info set:3d;hbond:S87+G127; 

>  <experiment>  (956) 
3d

>  <cluster_label>  (956) 
3

>  <cluster_rank>  (956) 
613

>  <N_interactions>  (956) 
3

>  <∆∆G>  (956) 
-0.77809

>  <comRMSD>  (956) 
0.395521

>  <ROCS_TanimotoCombo>  (956) 
0.316

>  <ROCS_ShapeTanimoto>  (956) 
0.181

>  <ROCS_ColorTanimoto>  (956) 
0.135

$$$$
Z228654120
     RDKit          3D

 19 21  0  0  0  0  0  0  0  0999 V2000
   32.6255   14.1915    9.0249 C   0  0  0  0  0  0  0  0  0  0  0  0
   31.3368   14.4775    9.5558 O   0  0  0  0  0  0  0  0  0  0  0  0
   30.2227   14.2809    8.7814 C   0  0  0  0  0  0  0  0  0  0  0  0
   28.9739   14.7452    9.0855 C   0  0  0  0  0  0  0  0  0  0  0  0
   27.8308   14.5106    8.1903 C   0  0  0  0  0  0  0  0  0  0  0  0
   27.9757   13.7932    7.0130 C   0  0  0  0  0  0  0  0  0  0  0  0
   29.2523   13.3239    6.7251 C   0  0  0  0  0  0  0  0  0  0  0  0
   30.3477   13.5616    7.5750 C   0  0  0  0  0  0  0  0  0  0  0  0
   31.5674   13.0911    7.1979 O   0  0  0  0  0  0  0  0  0  0  0  0
   31.7502   11.7413    7.1099 C   0  0  0  0  0  0  0  0  0  0  0  0
   30.9289   10.8670    7.7333 N   0  0  0  0  0  0  0  0  0  0  0  0
   31.2087    9.5645    7.5825 C   0  0  0  0  0  0  0  0  0  0  0  0
   32.2124    9.0230    6.8719 N   0  0  0  0  0  0  0  0  0  0  0  0
   32.9700    9.9615    6.2831 C   0  0  0  0  0  0  0  0  0  0  0  0
   32.8163   11.3139    6.3531 C   0  0  0  0  0  0  0  0  0  0  0  0
   33.7924   11.9508    5.6299 C   0  0  0  0  0  0  0  0  0  0  0  0
   34.6000   11.0552    5.0633 N   0  0  0  0  0  0  0  0  0  0  0  0
   34.0818    9.8596    5.4682 N   0  0  0  0  0  0  0  0  0  0  0  0
   34.7222    8.7447    5.0209 C   0  0  0  0  0  0  0  0  0  0  0  0
  1  2  1  0
  2  3  1  0
  3  4  2  0
  4  5  1  0
  5  6  2  0
  6  7  1  0
  7  8  2  0
  8  9  1  0
  9 10  1  0
 10 11  2  0
 11 12  1  0
 12 13  2  0
 13 14  1  0
 14 15  2  0
 15 16  1  0
 16 17  2  0
 17 18  1  0
 18 19  1  0
  8  3  1  0
 15 10  1  0
 18 14  1  0
A    1
 C1 
A    2
 O1 
A    3
 C2 
A    4
 C3 
A    5
 C4 
A    6
 C5 
A    7
 C6 
A    8
 C7 
A    9
 O2 
A   10
 C8 
A   11
 N1 
A   12
 C9 
A   13
 N2 
A   14
 C10
A   15
 C11
A   16
 C12
A   17
 N3 
A   18
 N4 
A   19
 C13
M  END
>  <ref_pdb>  (957) 
Ax0310a

>  <ref_mols>  (957) 
Ax0446a,Ax1080a,Ax0812a,Ax0719a,Ax1140a,Ax0528a,Ax0310a

>  <original SMILES>  (957) 
COc1ccccc1Oc1ncnc2c1cnn2C

>  <rationale>  (957) 
info info set:screening_whole;hbond:S87; hydroph_interaction:Y90; 

>  <experiment>  (957) 
screening_whole

>  <cluster_label>  (957) 
3

>  <cluster_rank>  (957) 
614

>  <N_interactions>  (957) 
2

>  <∆∆G>  (957) 
-6.19609

>  <comRMSD>  (957) 
0.739394

>  <ROCS_TanimotoCombo>  (957) 
0.463

>  <ROCS_ShapeTanimoto>  (957) 
0.239

>  <ROCS_ColorTanimoto>  (957) 
0.225

$$$$
EN300_122163
     RDKit          3D

 15 16  0  0  0  0  0  0  0  0999 V2000
   29.0154   12.4277    8.3294 N   0  0  0  0  0  0  0  0  0  0  0  0
   30.4447   12.9534    7.6483 S   0  0  0  0  0  6  0  0  0  0  0  0
   31.1534   13.7432    8.6259 O   0  0  0  0  0  0  0  0  0  0  0  0
   30.0598   13.4656    6.3559 O   0  0  0  0  0  0  0  0  0  0  0  0
   31.2682   11.4276    7.3391 C   0  0  0  0  0  0  0  0  0  0  0  0
   30.6766   10.1784    7.9087 C   0  0  0  0  0  0  0  0  0  0  0  0
   31.3304    9.0563    7.6085 C   0  0  0  0  0  0  0  0  0  0  0  0
   32.5223    9.0643    6.8022 C   0  0  0  0  0  0  0  0  0  0  0  0
   33.2330   10.2303    6.1892 C   0  0  0  0  0  0  0  0  0  0  0  0
   32.5631   11.4348    6.4855 C   0  0  0  0  0  0  0  0  0  0  0  0
   33.1019   12.6129    5.9902 N   0  0  0  0  0  0  0  0  0  0  0  0
   34.3535   12.5733    5.4609 C   0  0  0  0  0  0  0  0  0  0  0  0
   34.9719   13.6254    5.3661 O   0  0  0  0  0  0  0  0  0  0  0  0
   34.9596   11.2560    5.0047 C   0  0  0  0  0  0  0  0  0  0  0  0
   34.3748   10.0479    5.4582 O   0  0  0  0  0  0  0  0  0  0  0  0
  1  2  1  0
  2  3  2  0
  2  4  2  0
  2  5  1  0
  5  6  2  0
  6  7  1  0
  7  8  2  0
  8  9  1  0
  9 10  2  0
 10 11  1  0
 11 12  1  0
 12 13  2  0
 12 14  1  0
 14 15  1  0
 10  5  1  0
 15  9  1  0
A    1
 N1 
A    2
 S1 
A    3
 O1 
A    4
 O2 
A    5
 C1 
A    6
 C2 
A    7
 C3 
A    8
 C4 
A    9
 C5 
A   10
 C6 
A   11
 N2 
A   12
 C7 
A   13
 O3 
A   14
 C8 
A   15
 O4 
M  END
>  <ref_pdb>  (958) 
Ax0310a

>  <ref_mols>  (958) 
Ax0446a,Ax1080a,Ax0812a,Ax0719a,Ax1140a,Ax0528a,Ax0310a

>  <original SMILES>  (958) 
NS(=O)(=O)c1cccc2c1NC(=O)CO2

>  <rationale>  (958) 
info info set:sulfonimide_whole;hbond:S87+S125; 

>  <experiment>  (958) 
sulfonimide_whole

>  <cluster_label>  (958) 
3

>  <cluster_rank>  (958) 
615

>  <N_interactions>  (958) 
2

>  <∆∆G>  (958) 
-5.732232

>  <comRMSD>  (958) 
0.496443

>  <ROCS_TanimotoCombo>  (958) 
0.335

>  <ROCS_ShapeTanimoto>  (958) 
0.212

>  <ROCS_ColorTanimoto>  (958) 
0.123

$$$$
Z1171222256
     RDKit          3D

 18 19  0  0  0  0  0  0  0  0999 V2000
   33.6970    9.2664    5.5857 C   0  0  0  0  0  0  0  0  0  0  0  0
   32.9718   10.2951    6.3408 C   0  0  0  0  0  0  0  0  0  0  0  0
   33.2604   11.7490    6.2521 C   0  0  0  0  0  0  0  0  0  0  0  0
   32.5590   12.7137    6.9871 C   0  0  0  0  0  0  0  0  0  0  0  0
   31.5304   12.2953    7.8316 C   0  0  0  0  0  0  0  0  0  0  0  0
   30.5754   13.4589    8.7896 S   0  0  0  0  0  6  0  0  0  0  0  0
   30.8759   13.5518   10.1763 O   0  0  0  0  0  0  0  0  0  0  0  0
   30.5673   14.6722    8.2217 O   0  0  0  0  0  0  0  0  0  0  0  0
   29.0375   13.0210    8.4256 N   0  0  0  0  0  0  0  0  0  0  0  0
   28.8287   13.1145    7.0853 C   0  0  0  0  0  0  0  0  0  0  0  0
   28.5081   14.3791    6.5751 C   0  0  0  0  0  0  0  0  0  0  0  0
   28.6908   15.4575    7.5280 O   0  0  0  0  0  0  0  0  0  0  0  0
   28.4454   15.1451    8.9003 C   0  0  0  0  0  0  0  0  0  0  0  0
   28.0648   13.8379    9.0747 C   0  0  0  0  0  0  0  0  0  0  0  0
   31.2664   10.9128    7.8939 C   0  0  0  0  0  0  0  0  0  0  0  0
   30.2017   10.2939    8.6975 C   0  0  0  0  0  0  0  0  0  0  0  0
   31.9504    9.9658    7.2146 C   0  0  0  0  0  0  0  0  0  0  0  0
   31.4783    8.5729    7.5480 C   0  0  0  0  0  0  0  0  0  0  0  0
  1  2  1  0
  2  3  2  0
  3  4  1  0
  4  5  2  0
  5  6  1  0
  6  7  2  0
  6  8  2  0
  6  9  1  0
  9 10  1  0
 10 11  1  0
 11 12  1  0
 12 13  1  0
 13 14  1  0
  5 15  1  0
 15 16  1  0
 15 17  2  0
 17 18  1  0
 17  2  1  0
 14  9  1  0
A    1
 C1 
A    2
 C2 
A    3
 C3 
A    4
 C4 
A    5
 C5 
A    6
 S1 
A    7
 O1 
A    8
 O2 
A    9
 N1 
A   10
 C6 
A   11
 C7 
A   12
 O3 
A   13
 C8 
A   14
 C9 
A   15
 C10
A   16
 C11
A   17
 C12
A   18
 C13
M  END
>  <ref_pdb>  (959) 
Ax0310a

>  <ref_mols>  (959) 
Ax0446a,Ax1080a,Ax0812a,Ax0719a,Ax1140a,Ax0528a,Ax0310a

>  <original SMILES>  (959) 
Cc1ccc(S(=O)(=O)N2CCOCC2)c(C)c1C

>  <rationale>  (959) 
info info set:3d;hbond:S87; 

>  <experiment>  (959) 
3d

>  <cluster_label>  (959) 
3

>  <cluster_rank>  (959) 
616

>  <N_interactions>  (959) 
1

>  <∆∆G>  (959) 
-4.281816

>  <comRMSD>  (959) 
0.800834

>  <ROCS_TanimotoCombo>  (959) 
0.348

>  <ROCS_ShapeTanimoto>  (959) 
0.215

>  <ROCS_ColorTanimoto>  (959) 
0.133

$$$$
EN300_114627
     RDKit          3D

 19 21  0  0  0  0  0  0  0  0999 V2000
   28.3915   13.0607    7.9745 C   0  0  0  0  0  0  0  0  0  0  0  0
   29.4367   11.9802    7.8232 C   0  0  0  0  0  0  0  0  0  0  0  0
   29.0592   10.6696    8.3693 C   0  0  0  0  0  0  0  0  0  0  0  0
   29.9045    9.5683    8.2312 C   0  0  0  0  0  0  0  0  0  0  0  0
   31.0875    9.8378    7.5497 C   0  0  0  0  0  0  0  0  0  0  0  0
   32.0794    9.0167    7.2091 N   0  0  0  0  0  0  0  0  0  0  0  0
   33.0150    9.8124    6.5803 N   0  0  0  0  0  0  0  0  0  0  0  0
   32.5857   11.0654    6.5560 C   0  0  0  0  0  0  0  0  0  0  0  0
   33.3355   12.2645    6.0097 C   0  0  0  0  0  0  0  0  0  0  0  0
   33.7916   12.2903    4.7070 C   0  0  0  0  0  0  0  0  0  0  0  0
   34.5010   13.3996    4.2255 C   0  0  0  0  0  0  0  0  0  0  0  0
   34.7532   14.4834    5.0629 C   0  0  0  0  0  0  0  0  0  0  0  0
   34.3037   14.4754    6.3691 C   0  0  0  0  0  0  0  0  0  0  0  0
   33.5888   13.3783    6.8493 C   0  0  0  0  0  0  0  0  0  0  0  0
   33.1266   13.4409    8.2630 C   0  0  0  0  0  0  0  0  0  0  0  0
   33.7572   13.0599    9.2155 O   0  0  0  0  0  0  0  0  0  0  0  0
   31.9028   13.9809    8.4328 O   0  0  0  0  0  0  0  0  0  0  0  0
   31.3468   11.1260    7.1269 N   0  0  0  0  0  0  0  0  0  0  0  0
   30.5550   12.2370    7.2465 N   0  0  0  0  0  0  0  0  0  0  0  0
  1  2  1  0
  2  3  1  0
  3  4  2  0
  4  5  1  0
  5  6  2  0
  6  7  1  0
  7  8  2  0
  8  9  1  0
  9 10  2  0
 10 11  1  0
 11 12  2  0
 12 13  1  0
 13 14  2  0
 14 15  1  0
 15 16  2  0
 15 17  1  0
  8 18  1  0
 18 19  1  0
 19  2  2  0
 18  5  1  0
 14  9  1  0
A    1
 C1 
A    2
 C2 
A    3
 C3 
A    4
 C4 
A    5
 C5 
A    6
 N1 
A    7
 N2 
A    8
 C6 
A    9
 C7 
A   10
 C8 
A   11
 C9 
A   12
 C10
A   13
 C11
A   14
 C12
A   15
 C13
A   16
 O1 
A   17
 O2 
A   18
 N3 
A   19
 N4 
M  END
>  <ref_pdb>  (960) 
Ax0310a

>  <ref_mols>  (960) 
Ax0446a,Ax1080a,Ax0812a,Ax0719a,Ax1140a,Ax0528a,Ax0310a

>  <original SMILES>  (960) 
Cc1ccc2nnc(-c3ccccc3C(=O)O)n2n1

>  <rationale>  (960) 
info info set:bb_whole;hbond:S87+G127; 

>  <experiment>  (960) 
bb_whole

>  <cluster_label>  (960) 
3

>  <cluster_rank>  (960) 
617

>  <N_interactions>  (960) 
3

>  <∆∆G>  (960) 
-3.026372

>  <comRMSD>  (960) 
0.384825

>  <ROCS_TanimotoCombo>  (960) 
0.418

>  <ROCS_ShapeTanimoto>  (960) 
0.244

>  <ROCS_ColorTanimoto>  (960) 
0.174

$$$$
EN300_256324
     RDKit          3D

 20 21  0  0  0  0  0  0  0  0999 V2000
   33.4516   13.6522    6.8114 N   0  0  0  0  0  0  0  0  0  0  0  0
   31.8588   13.1323    6.8704 S   0  0  0  0  0  6  0  0  0  0  0  0
   31.1843   13.4431    5.6364 O   0  0  0  0  0  0  0  0  0  0  0  0
   31.3397   13.4715    8.1760 O   0  0  0  0  0  0  0  0  0  0  0  0
   31.9819   11.4938    6.9108 C   0  0  0  0  0  0  0  0  0  0  0  0
   32.9840   10.9587    6.1806 C   0  0  0  0  0  0  0  0  0  0  0  0
   33.1374    9.6315    6.1760 C   0  0  0  0  0  0  0  0  0  0  0  0
   34.2557    9.1501    5.3521 N   0  0  0  0  0  4  0  0  0  0  0  0
   34.6911    9.9635    4.5234 O   0  0  0  0  0  0  0  0  0  0  0  0
   34.9649    8.2807    5.8326 O   0  0  0  0  0  1  0  0  0  0  0  0
   32.2414    8.8578    6.9450 C   0  0  0  0  0  0  0  0  0  0  0  0
   31.2238    9.4626    7.6790 C   0  0  0  0  0  0  0  0  0  0  0  0
   31.0926   10.8230    7.6545 C   0  0  0  0  0  0  0  0  0  0  0  0
   30.1241   11.6190    8.3221 N   0  0  0  0  0  0  0  0  0  0  0  0
   28.9087   12.2027    7.7005 C   0  0  0  0  0  0  0  0  0  0  0  0
   28.3623   13.4682    8.3602 C   0  0  0  0  0  0  0  0  0  0  0  0
   26.8802   13.6253    8.7238 C   0  0  0  0  0  0  0  0  0  0  0  0
   25.8883   12.7642    7.9328 C   0  0  0  0  0  0  0  0  0  0  0  0
   26.5584   11.6482    7.1901 C   0  0  0  0  0  0  0  0  0  0  0  0
   27.8112   11.2526    7.9610 C   0  0  0  0  0  0  0  0  0  0  0  0
  1  2  1  0
  2  3  2  0
  2  4  2  0
  2  5  1  0
  5  6  2  0
  6  7  1  0
  7  8  1  0
  8  9  2  0
  8 10  1  0
  7 11  2  0
 11 12  1  0
 12 13  2  0
 13 14  1  0
 14 15  1  0
 15 16  1  0
 16 17  1  0
 17 18  1  0
 18 19  1  0
 19 20  1  0
 13  5  1  0
 20 15  1  0
M  CHG  2   8   1  10  -1
A    1
 N1 
A    2
 S1 
A    3
 O1 
A    4
 O2 
A    5
 C1 
A    6
 C2 
A    7
 C3 
A    8
 N2 
A    9
 O3 
A   10
 O4 
A   11
 C4 
A   12
 C5 
A   13
 C6 
A   14
 N3 
A   15
 C7 
A   16
 C8 
A   17
 C9 
A   18
 C10
A   19
 C11
A   20
 C12
M  END
>  <ref_pdb>  (961) 
Ax0310a

>  <ref_mols>  (961) 
Ax0446a,Ax1080a,Ax0812a,Ax0719a,Ax1140a,Ax0528a,Ax0310a

>  <original SMILES>  (961) 
NS(=O)(=O)c1cc([N+](=O)[O-])ccc1NC1CCCCC1

>  <rationale>  (961) 
info info set:sulfonimide_whole;hbond:S87+S125+G127; hydroph_interaction:Y89+Y90; 

>  <experiment>  (961) 
sulfonimide_whole

>  <cluster_label>  (961) 
3

>  <cluster_rank>  (961) 
618

>  <N_interactions>  (961) 
5

>  <∆∆G>  (961) 
-0.771588

>  <comRMSD>  (961) 
0.960464

>  <ROCS_TanimotoCombo>  (961) 
0.343

>  <ROCS_ShapeTanimoto>  (961) 
0.214

>  <ROCS_ColorTanimoto>  (961) 
0.129

$$$$
EN300_196187
     RDKit          3D

 13 13  0  0  0  0  0  0  0  0999 V2000
   28.7177    9.4986    8.4810 C   0  0  0  0  0  0  0  0  0  0  0  0
   29.9772    8.8474    8.4369 C   0  0  0  0  0  0  0  0  0  0  0  0
   30.1325    7.4921    8.5020 C   0  0  0  0  0  0  0  0  0  0  0  0
   30.2874    9.0383    9.7228 C   0  0  0  0  0  0  0  0  0  0  0  0
   30.9148    9.4112    7.6355 O   0  0  0  0  0  0  0  0  0  0  0  0
   31.2234   10.7083    7.7590 C   0  0  0  0  0  0  0  0  0  0  0  0
   30.5640   11.4796    8.4829 O   0  0  0  0  0  0  0  0  0  0  0  0
   32.3115   11.0368    7.0124 N   0  0  0  0  0  0  0  0  0  0  0  0
   32.5323   12.2455    6.4484 C   0  0  0  0  0  0  0  0  0  0  0  0
   33.3745   12.0471    5.1921 C   0  0  0  0  0  0  0  0  0  0  0  0
   33.5681   10.5520    5.1194 C   0  0  0  0  0  0  0  0  0  0  0  0
   32.8388    9.9611    6.3032 C   0  0  0  0  0  0  0  0  0  0  0  0
   32.7473    8.5461    6.5636 O   0  0  0  0  0  0  0  0  0  0  0  0
  1  2  1  0
  2  3  1  0
  2  4  1  0
  2  5  1  0
  5  6  1  0
  6  7  2  0
  6  8  1  0
  8  9  1  0
  9 10  1  0
 10 11  2  0
 11 12  1  0
 12 13  2  0
 12  8  1  0
A    1
 C1 
A    2
 C2 
A    3
 C3 
A    4
 C4 
A    5
 O1 
A    6
 C5 
A    7
 O2 
A    8
 N1 
A    9
 C6 
A   10
 C7 
A   11
 C8 
A   12
 C9 
A   13
 O3 
M  END
>  <ref_pdb>  (962) 
Ax0310a

>  <ref_mols>  (962) 
Ax0446a,Ax1080a,Ax0812a,Ax0719a,Ax1140a,Ax0528a,Ax0310a

>  <original SMILES>  (962) 
CC(C)(C)OC(=O)N1CC=CC1=O

>  <rationale>  (962) 
info info set:bb_densepocket2;hbond:G127; hydroph_interaction:D109; 

>  <experiment>  (962) 
bb_densepocket2

>  <cluster_label>  (962) 
3

>  <cluster_rank>  (962) 
619

>  <N_interactions>  (962) 
2

>  <∆∆G>  (962) 
-1.385217

>  <comRMSD>  (962) 
0.969846

>  <ROCS_TanimotoCombo>  (962) 
0.616

>  <ROCS_ShapeTanimoto>  (962) 
0.202

>  <ROCS_ColorTanimoto>  (962) 
0.414

$$$$
Z45515849
     RDKit          3D

 16 17  0  0  0  0  0  0  0  0999 V2000
   32.8932   13.6838    6.4491 O   0  0  0  0  0  0  0  0  0  0  0  0
   32.3443   13.0454    7.6271 S   0  0  0  0  0  6  0  0  0  0  0  0
   33.1466   12.9472    8.8309 O   0  0  0  0  0  0  0  0  0  0  0  0
   30.7023   13.6820    7.9827 C   0  0  0  0  0  0  0  0  0  0  0  0
   30.4404   14.0273    9.3980 C   0  0  0  0  0  0  0  0  0  0  0  0
   29.0924   14.6130    9.8967 C   0  0  0  0  0  0  0  0  0  0  0  0
   28.0079   14.8238    8.7516 C   0  0  0  0  0  0  0  0  0  0  0  0
   28.4511   14.4002    7.3244 C   0  0  0  0  0  0  0  0  0  0  0  0
   29.6393   13.8861    6.9377 C   0  0  0  0  0  0  0  0  0  0  0  0
   29.8034   13.5589    5.2646 Cl  0  0  0  0  0  0  0  0  0  0  0  0
   31.9476   11.5019    7.1785 N   0  0  0  0  0  0  0  0  0  0  0  0
   30.9078   10.9274    7.8499 C   0  0  0  0  0  0  0  0  0  0  0  0
   30.9350    9.4090    8.0007 C   0  0  0  0  0  0  0  0  0  0  0  0
   32.1325    8.8134    7.4659 O   0  0  0  0  0  0  0  0  0  0  0  0
   32.6328    9.3336    6.4398 C   0  0  0  0  0  0  0  0  0  0  0  0
   32.9172   10.8436    6.4645 C   0  0  0  0  0  0  0  0  0  0  0  0
  1  2  2  0
  2  3  2  0
  2  4  1  0
  4  5  2  0
  5  6  1  0
  6  7  2  0
  7  8  1  0
  8  9  2  0
  9 10  1  0
  2 11  1  0
 11 12  1  0
 12 13  1  0
 13 14  1  0
 14 15  1  0
 15 16  1  0
  9  4  1  0
 16 11  1  0
A    1
 O1 
A    2
 S1 
A    3
 O2 
A    4
 C1 
A    5
 C2 
A    6
 C3 
A    7
 C4 
A    8
 C5 
A    9
 C6 
A   10
CL1 
A   11
 N1 
A   12
 C7 
A   13
 C8 
A   14
 O3 
A   15
 C9 
A   16
 C10
M  END
>  <ref_pdb>  (963) 
Ax0310a

>  <ref_mols>  (963) 
Ax0446a,Ax1080a,Ax0812a,Ax0719a,Ax1140a,Ax0528a,Ax0310a

>  <original SMILES>  (963) 
O=S(=O)(c1ccccc1Cl)N1CCOCC1

>  <rationale>  (963) 
info info set:3d;hbond:G127; hydroph_interaction:Y90; 

>  <experiment>  (963) 
3d

>  <cluster_label>  (963) 
3

>  <cluster_rank>  (963) 
620

>  <N_interactions>  (963) 
2

>  <∆∆G>  (963) 
-3.635037

>  <comRMSD>  (963) 
0.43139

>  <ROCS_TanimotoCombo>  (963) 
0.313

>  <ROCS_ShapeTanimoto>  (963) 
0.197

>  <ROCS_ColorTanimoto>  (963) 
0.115

$$$$
EN300_26579892
     RDKit          3D

 14 14  0  0  0  0  0  0  0  0999 V2000
   28.5393   15.6463    7.6251 N   0  0  0  0  0  0  0  0  0  0  0  0
   28.8950   14.6605    8.0915 C   0  0  0  0  0  0  0  0  0  0  0  0
   29.4319   13.3747    8.6996 C   0  0  0  0  0  0  0  0  0  0  0  0
   30.2584   12.6735    7.7358 O   0  0  0  0  0  0  0  0  0  0  0  0
   30.5574   11.3783    8.0137 C   0  0  0  0  0  0  0  0  0  0  0  0
   30.1399   10.6737    8.8799 O   0  0  0  0  0  0  0  0  0  0  0  0
   31.5621   10.8435    7.0214 C   0  0  0  0  0  0  0  0  0  0  0  0
   31.9389    9.5377    7.2500 C   0  0  0  0  0  0  0  0  0  0  0  0
   32.8305    8.9057    6.4629 N   0  0  0  0  0  0  0  0  0  0  0  0
   33.3384    9.6079    5.4255 C   0  0  0  0  0  0  0  0  0  0  0  0
   34.4712    8.7704    4.4422 Cl  0  0  0  0  0  0  0  0  0  0  0  0
   32.9885   10.9072    5.1430 C   0  0  0  0  0  0  0  0  0  0  0  0
   33.6294   11.7563    3.7988 Cl  0  0  0  0  0  0  0  0  0  0  0  0
   32.0819   11.5444    5.9689 C   0  0  0  0  0  0  0  0  0  0  0  0
  1  2  3  0
  2  3  1  0
  3  4  1  0
  4  5  1  0
  5  6  2  0
  5  7  1  0
  7  8  2  0
  8  9  1  0
  9 10  2  0
 10 11  1  0
 10 12  1  0
 12 13  1  0
 12 14  2  0
 14  7  1  0
A    1
 N1 
A    2
 C1 
A    3
 C2 
A    4
 O1 
A    5
 C3 
A    6
 O2 
A    7
 C4 
A    8
 C5 
A    9
 N2 
A   10
 C6 
A   11
CL1 
A   12
 C7 
A   13
CL2 
A   14
 C8 
M  END
>  <ref_pdb>  (964) 
Ax0310a

>  <ref_mols>  (964) 
Ax0446a,Ax1080a,Ax0812a,Ax0719a,Ax1140a,Ax0528a,Ax0310a

>  <original SMILES>  (964) 
N#CCOC(=O)c1cnc(Cl)c(Cl)c1

>  <rationale>  (964) 
info info set:bb_densepocket2;hydroph_interaction:P107; 

>  <experiment>  (964) 
bb_densepocket2

>  <cluster_label>  (964) 
3

>  <cluster_rank>  (964) 
621

>  <N_interactions>  (964) 
1

>  <∆∆G>  (964) 
-1.604623

>  <comRMSD>  (964) 
0.751761

>  <ROCS_TanimotoCombo>  (964) 
0.631

>  <ROCS_ShapeTanimoto>  (964) 
0.193

>  <ROCS_ColorTanimoto>  (964) 
0.438

$$$$
EN300_9485690
     RDKit          3D

 15 15  0  0  0  0  0  0  0  0999 V2000
   28.7701   12.9857    7.9741 C   0  0  0  0  0  0  0  0  0  0  0  0
   30.1108   12.6247    7.6106 O   0  0  0  0  0  0  0  0  0  0  0  0
   30.5105   11.3804    7.9849 C   0  0  0  0  0  0  0  0  0  0  0  0
   30.1034   10.7160    8.8861 O   0  0  0  0  0  0  0  0  0  0  0  0
   31.5470   10.8470    7.1197 C   0  0  0  0  0  0  0  0  0  0  0  0
   32.2997   11.6371    6.2676 C   0  0  0  0  0  0  0  0  0  0  0  0
   33.2528   11.0425    5.4647 C   0  0  0  0  0  0  0  0  0  0  0  0
   33.4355    9.6703    5.5269 C   0  0  0  0  0  0  0  0  0  0  0  0
   34.4948    9.0735    4.5874 C   0  0  0  0  0  0  0  0  0  0  0  0
   34.0257    8.4536    3.4763 F   0  0  0  0  0  0  0  0  0  0  0  0
   35.3170   10.0361    4.0964 F   0  0  0  0  0  0  0  0  0  0  0  0
   35.3259    8.1768    5.1593 F   0  0  0  0  0  0  0  0  0  0  0  0
   32.6944    8.9000    6.3832 N   0  0  0  0  0  0  0  0  0  0  0  0
   31.7631    9.4845    7.1696 C   0  0  0  0  0  0  0  0  0  0  0  0
   31.0133    8.6672    8.0342 N   0  0  0  0  0  0  0  0  0  0  0  0
  1  2  1  0
  2  3  1  0
  3  4  2  0
  3  5  1  0
  5  6  2  0
  6  7  1  0
  7  8  2  0
  8  9  1  0
  9 10  1  0
  9 11  1  0
  9 12  1  0
  8 13  1  0
 13 14  2  0
 14 15  1  0
 14  5  1  0
A    1
 C1 
A    2
 O1 
A    3
 C2 
A    4
 O2 
A    5
 C3 
A    6
 C4 
A    7
 C5 
A    8
 C6 
A    9
 C7 
A   10
 F1 
A   11
 F2 
A   12
 F3 
A   13
 N1 
A   14
 C8 
A   15
 N2 
M  END
>  <ref_pdb>  (965) 
Ax0310a

>  <ref_mols>  (965) 
Ax0446a,Ax1080a,Ax0812a,Ax0719a,Ax1140a,Ax0528a,Ax0310a

>  <original SMILES>  (965) 
COC(=O)c1ccc(C(F)(F)F)nc1N

>  <rationale>  (965) 
info info set:bb_densepocket2;hbond:S105; hydroph_interaction:P107; 

>  <experiment>  (965) 
bb_densepocket2

>  <cluster_label>  (965) 
3

>  <cluster_rank>  (965) 
622

>  <N_interactions>  (965) 
2

>  <∆∆G>  (965) 
-1.82995

>  <comRMSD>  (965) 
0.572606

>  <ROCS_TanimotoCombo>  (965) 
0.627

>  <ROCS_ShapeTanimoto>  (965) 
0.255

>  <ROCS_ColorTanimoto>  (965) 
0.373

$$$$
EN300_24003
     RDKit          3D

 14 14  0  0  0  0  0  0  0  0999 V2000
   35.9855   14.0833    8.2777 C   0  0  0  0  0  0  0  0  0  0  0  0
   34.7167   14.7071    7.9950 N   0  0  0  0  0  0  0  0  0  0  0  0
   33.4162   13.7381    8.3805 S   0  0  0  0  0  6  0  0  0  0  0  0
   34.0714   12.7480    9.1398 O   0  0  0  0  0  0  0  0  0  0  0  0
   32.3798   14.5346    9.0024 O   0  0  0  0  0  0  0  0  0  0  0  0
   32.9592   13.0609    6.7629 C   0  0  0  0  0  0  0  0  0  0  0  0
   32.3369   11.8544    7.0155 C   0  0  0  0  0  0  0  0  0  0  0  0
   32.8772   10.6565    6.5892 C   0  0  0  0  0  0  0  0  0  0  0  0
   32.2777    9.4469    6.8616 C   0  0  0  0  0  0  0  0  0  0  0  0
   31.1074    9.3647    7.5795 C   0  0  0  0  0  0  0  0  0  0  0  0
   30.5452   10.5635    8.0068 C   0  0  0  0  0  0  0  0  0  0  0  0
   31.1367   11.8046    7.7272 C   0  0  0  0  0  0  0  0  0  0  0  0
   30.4676   13.0668    8.2078 C   0  0  0  0  0  0  0  0  0  0  0  0
   29.0786   12.8630    8.5370 N   0  0  0  0  0  0  0  0  0  0  0  0
  1  2  1  0
  2  3  1  0
  3  4  2  0
  3  5  2  0
  3  6  1  0
  6  7  1  0
  7  8  2  0
  8  9  1  0
  9 10  2  0
 10 11  1  0
 11 12  2  0
 12 13  1  0
 13 14  1  0
 12  7  1  0
A    1
 C1 
A    2
 N1 
A    3
 S1 
A    4
 O1 
A    5
 O2 
A    6
 C2 
A    7
 C3 
A    8
 C4 
A    9
 C5 
A   10
 C6 
A   11
 C7 
A   12
 C8 
A   13
 C9 
A   14
 N2 
M  END
>  <ref_pdb>  (966) 
Ax0310a

>  <ref_mols>  (966) 
Ax0446a,Ax1080a,Ax0812a,Ax0719a,Ax1140a,Ax0528a,Ax0310a

>  <original SMILES>  (966) 
CNS(=O)(=O)Cc1ccccc1CN

>  <rationale>  (966) 
info info set:sulfonimide_whole;hbond:S87+S125+G127+E85; 

>  <experiment>  (966) 
sulfonimide_whole

>  <cluster_label>  (966) 
3

>  <cluster_rank>  (966) 
623

>  <N_interactions>  (966) 
4

>  <∆∆G>  (966) 
-8.003243

>  <comRMSD>  (966) 
0.424271

>  <ROCS_TanimotoCombo>  (966) 
0.334

>  <ROCS_ShapeTanimoto>  (966) 
0.196

>  <ROCS_ColorTanimoto>  (966) 
0.138

$$$$
EN300_256921
     RDKit          3D

 13 13  0  0  0  0  0  0  0  0999 V2000
   34.4090   15.0917    9.0471 N   0  0  0  0  0  0  0  0  0  0  0  0
   33.4440   13.8242    8.5173 S   0  0  0  0  0  6  0  0  0  0  0  0
   34.0778   12.7619    9.1910 O   0  0  0  0  0  0  0  0  0  0  0  0
   32.0833   14.2366    8.8066 O   0  0  0  0  0  0  0  0  0  0  0  0
   33.7663   13.6624    6.7814 C   0  0  0  0  0  0  0  0  0  0  0  0
   32.7093   13.0130    5.8675 C   0  0  0  0  0  0  0  0  0  0  0  0
   32.2086   11.7330    6.5203 C   0  0  0  0  0  0  0  0  0  0  0  0
   32.7873   10.5470    6.1046 C   0  0  0  0  0  0  0  0  0  0  0  0
   32.2710    9.3092    6.7827 C   0  0  0  0  0  0  0  0  0  0  0  0
   31.2313    9.4290    7.7997 C   0  0  0  0  0  0  0  0  0  0  0  0
   30.5786    8.1093    8.6373 Cl  0  0  0  0  0  0  0  0  0  0  0  0
   30.7428   10.6688    8.1116 C   0  0  0  0  0  0  0  0  0  0  0  0
   31.2223   11.7754    7.4859 C   0  0  0  0  0  0  0  0  0  0  0  0
  1  2  1  0
  2  3  2  0
  2  4  2  0
  2  5  1  0
  5  6  1  0
  6  7  1  0
  7  8  2  0
  8  9  1  0
  9 10  2  0
 10 11  1  0
 10 12  1  0
 12 13  2  0
 13  7  1  0
A    1
 N1 
A    2
 S1 
A    3
 O1 
A    4
 O2 
A    5
 C1 
A    6
 C2 
A    7
 C3 
A    8
 C4 
A    9
 C5 
A   10
 C6 
A   11
CL1 
A   12
 C7 
A   13
 C8 
M  END
>  <ref_pdb>  (967) 
Ax0310a

>  <ref_mols>  (967) 
Ax0446a,Ax1080a,Ax0812a,Ax0719a,Ax1140a,Ax0528a,Ax0310a

>  <original SMILES>  (967) 
NS(=O)(=O)CCc1ccc(Cl)cc1

>  <rationale>  (967) 
info info set:sulfonimide_whole;hbond:S87+G127+E85; hydroph_interaction:P107; 

>  <experiment>  (967) 
sulfonimide_whole

>  <cluster_label>  (967) 
3

>  <cluster_rank>  (967) 
624

>  <N_interactions>  (967) 
4

>  <∆∆G>  (967) 
-6.745709

>  <comRMSD>  (967) 
0.584745

>  <ROCS_TanimotoCombo>  (967) 
0.331

>  <ROCS_ShapeTanimoto>  (967) 
0.18

>  <ROCS_ColorTanimoto>  (967) 
0.151

$$$$
EN300_680272
     RDKit          3D

 16 16  0  0  0  0  0  0  0  0999 V2000
   29.9352   14.4741    9.3573 C   0  0  0  0  0  0  0  0  0  0  0  0
   30.8012   13.3954    9.2698 N   0  0  0  0  0  0  0  0  0  0  0  0
   32.3883   13.7573    8.7751 S   0  0  0  0  0  6  0  0  0  0  0  0
   32.5560   15.1082    9.2291 O   0  0  0  0  0  0  0  0  0  0  0  0
   33.3634   12.8234    9.2313 O   0  0  0  0  0  0  0  0  0  0  0  0
   32.2300   13.3061    7.0036 C   0  0  1  0  0  0  0  0  0  0  0  0
   33.4831   13.5929    6.1278 C   0  0  0  0  0  0  0  0  0  0  0  0
   32.8680   13.1575    4.7713 C   0  0  0  0  0  0  0  0  0  0  0  0
   34.1229   13.6725    4.0707 C   0  0  0  0  0  0  0  0  0  0  0  0
   31.5770   13.7873    4.2612 C   0  0  0  0  0  0  0  0  0  0  0  0
   32.0408   11.8069    7.0926 C   0  0  0  0  0  0  0  0  0  0  0  0
   33.0166   10.8770    6.3831 C   0  0  0  0  0  0  0  0  0  0  0  0
   32.8153    9.3754    6.4939 C   0  0  0  0  0  0  0  0  0  0  0  0
   31.7650    8.8470    7.2369 C   0  0  0  0  0  0  0  0  0  0  0  0
   30.8629    9.6529    7.8899 C   0  0  0  0  0  0  0  0  0  0  0  0
   30.9188   11.1503    7.8703 C   0  0  0  0  0  0  0  0  0  0  0  0
  1  2  1  0
  2  3  1  0
  3  4  2  0
  3  5  2  0
  3  6  1  0
  6  7  1  6
  7  8  1  0
  8  9  1  0
  8 10  1  0
  6 11  1  0
 11 12  2  0
 12 13  1  0
 13 14  2  0
 14 15  1  0
 15 16  2  0
 16 11  1  0
A    1
 C1 
A    2
 N1 
A    3
 S1 
A    4
 O1 
A    5
 O2 
A    6
 C2 
A    7
 C3 
A    8
 C4 
A    9
 C5 
A   10
 C6 
A   11
 C7 
A   12
 C8 
A   13
 C9 
A   14
 C10
A   15
 C11
A   16
 C12
M  END
>  <ref_pdb>  (968) 
Ax0310a

>  <ref_mols>  (968) 
Ax0446a,Ax1080a,Ax0812a,Ax0719a,Ax1140a,Ax0528a,Ax0310a

>  <original SMILES>  (968) 
CNS(=O)(=O)[C@@H](CC(C)C)c1ccccc1

>  <rationale>  (968) 
info info set:sulfonimide_whole;hbond:S87+G127; hydroph_interaction:P107; 

>  <experiment>  (968) 
sulfonimide_whole

>  <cluster_label>  (968) 
3

>  <cluster_rank>  (968) 
625

>  <N_interactions>  (968) 
3

>  <∆∆G>  (968) 
-6.562737

>  <comRMSD>  (968) 
0.459579

>  <ROCS_TanimotoCombo>  (968) 
0.332

>  <ROCS_ShapeTanimoto>  (968) 
0.17

>  <ROCS_ColorTanimoto>  (968) 
0.162

$$$$
EN300_44826956
     RDKit          3D

 19 19  0  0  0  0  0  0  0  0999 V2000
   30.5820    7.5811    8.9389 C   0  0  0  0  0  0  0  0  0  0  0  0
   29.9612    8.8102    9.1567 C   0  0  0  0  0  0  0  0  0  0  0  0
   29.1544    8.6376   10.1250 C   0  0  0  0  0  0  0  0  0  0  0  0
   29.1030    8.9209    8.0944 C   0  0  0  0  0  0  0  0  0  0  0  0
   30.6445    9.7570    9.2637 O   0  0  0  0  0  0  0  0  0  0  0  0
   30.5369   10.7189    8.3697 C   0  0  0  0  0  0  0  0  0  0  0  0
   29.7408   11.6216    8.3835 O   0  0  0  0  0  0  0  0  0  0  0  0
   31.5422   10.7200    7.1936 C   0  0  0  0  0  0  0  0  0  0  0  0
   32.3766    9.4986    6.8836 C   0  0  0  0  0  0  0  0  0  0  0  0
   33.3498    9.6890    5.6632 C   0  0  0  0  0  0  0  0  0  0  0  0
   34.2150    8.7035    5.2047 N   0  0  0  0  0  0  0  0  0  0  0  0
   33.4369   11.0304    4.8211 C   0  0  0  0  0  0  0  0  0  0  0  0
   32.5140   11.9467    5.3730 C   0  0  0  0  0  0  0  0  0  0  0  0
   32.4235   13.2561    4.6979 C   0  0  0  0  0  0  0  0  0  0  0  0
   33.0778   14.1883    5.4042 F   0  0  0  0  0  0  0  0  0  0  0  0
   31.1270   13.6479    4.5680 F   0  0  0  0  0  0  0  0  0  0  0  0
   32.9403   13.2474    3.4385 F   0  0  0  0  0  0  0  0  0  0  0  0
   31.6576   11.8223    6.4473 C   0  0  0  0  0  0  0  0  0  0  0  0
   30.8891   12.8712    6.7532 F   0  0  0  0  0  0  0  0  0  0  0  0
  1  2  1  0
  2  3  1  0
  2  4  1  0
  2  5  1  0
  5  6  1  0
  6  7  2  0
  6  8  1  0
  8  9  2  0
  9 10  1  0
 10 11  1  0
 10 12  2  0
 12 13  1  0
 13 14  1  0
 14 15  1  0
 14 16  1  0
 14 17  1  0
 13 18  2  0
 18 19  1  0
 18  8  1  0
A    1
 C1 
A    2
 C2 
A    3
 C3 
A    4
 C4 
A    5
 O1 
A    6
 C5 
A    7
 O2 
A    8
 C6 
A    9
 C7 
A   10
 C8 
A   11
 N1 
A   12
 C9 
A   13
 C10
A   14
 C11
A   15
 F1 
A   16
 F2 
A   17
 F3 
A   18
 C12
A   19
 F4 
M  END
>  <ref_pdb>  (969) 
Ax0310a

>  <ref_mols>  (969) 
Ax0446a,Ax1080a,Ax0812a,Ax0719a,Ax1140a,Ax0528a,Ax0310a

>  <original SMILES>  (969) 
CC(C)(C)OC(=O)c1cc(N)cc(C(F)(F)F)c1F

>  <rationale>  (969) 
info info set:bb_densepocket2;hbond:S105; hydroph_interaction:P107; 

>  <experiment>  (969) 
bb_densepocket2

>  <cluster_label>  (969) 
3

>  <cluster_rank>  (969) 
626

>  <N_interactions>  (969) 
2

>  <∆∆G>  (969) 
-2.859744

>  <comRMSD>  (969) 
0.76191

>  <ROCS_TanimotoCombo>  (969) 
0.619

>  <ROCS_ShapeTanimoto>  (969) 
0.235

>  <ROCS_ColorTanimoto>  (969) 
0.384

$$$$
EN300_6510686
     RDKit          3D

 13 13  0  0  0  0  0  0  0  0999 V2000
   29.1012    8.8124    8.0607 C   0  0  0  0  0  0  0  0  0  0  0  0
   29.8633    8.4216    9.1021 C   0  0  0  0  0  0  0  0  0  0  0  0
   29.8797    7.0453    9.2057 C   0  0  0  0  0  0  0  0  0  0  0  0
   29.1626    8.7042   10.2057 C   0  0  0  0  0  0  0  0  0  0  0  0
   31.0590    9.1088    9.0213 O   0  0  0  0  0  0  0  0  0  0  0  0
   31.0395   10.2190    8.2598 C   0  0  0  0  0  0  0  0  0  0  0  0
   30.3224   11.1847    8.4371 O   0  0  0  0  0  0  0  0  0  0  0  0
   32.0177   10.1374    7.1765 C   0  0  0  0  0  0  0  0  0  0  0  0
   32.5239   11.3130    6.4138 C   0  0  0  0  0  0  0  0  0  0  0  0
   33.4076   10.8164    5.5207 O   0  0  0  0  0  0  0  0  0  0  0  0
   33.4197    9.4676    5.7431 C   0  0  0  0  0  0  0  0  0  0  0  0
   34.2454    8.7828    4.9607 N   0  0  0  0  0  0  0  0  0  0  0  0
   32.6295    9.0066    6.6948 N   0  0  0  0  0  0  0  0  0  0  0  0
  1  2  1  0
  2  3  1  0
  2  4  1  0
  2  5  1  0
  5  6  1  0
  6  7  2  0
  6  8  1  0
  8  9  2  0
  9 10  1  0
 10 11  1  0
 11 12  1  0
 11 13  2  0
 13  8  1  0
A    1
 C1 
A    2
 C2 
A    3
 C3 
A    4
 C4 
A    5
 O1 
A    6
 C5 
A    7
 O2 
A    8
 C6 
A    9
 C7 
A   10
 O3 
A   11
 C8 
A   12
 N1 
A   13
 N2 
M  END
>  <ref_pdb>  (970) 
Ax0310a

>  <ref_mols>  (970) 
Ax0446a,Ax1080a,Ax0812a,Ax0719a,Ax1140a,Ax0528a,Ax0310a

>  <original SMILES>  (970) 
CC(C)(C)OC(=O)c1coc(N)n1

>  <rationale>  (970) 
info info set:bb_densepocket2;hbond:S105; hydroph_interaction:V124+D109; 

>  <experiment>  (970) 
bb_densepocket2

>  <cluster_label>  (970) 
3

>  <cluster_rank>  (970) 
627

>  <N_interactions>  (970) 
4

>  <∆∆G>  (970) 
-0.187844

>  <comRMSD>  (970) 
0.5601

>  <ROCS_TanimotoCombo>  (970) 
0.616

>  <ROCS_ShapeTanimoto>  (970) 
0.197

>  <ROCS_ColorTanimoto>  (970) 
0.419

$$$$
EN300_5457789
     RDKit          3D

 14 15  0  0  0  0  0  0  0  0999 V2000
   28.3647   14.0467    9.8485 C   0  0  0  0  0  0  0  0  0  0  0  0
   29.4401   14.3983    8.4819 S   0  0  0  0  0  6  0  0  0  0  0  0
   28.8558   15.4952    7.7501 O   0  0  0  0  0  0  0  0  0  0  0  0
   30.8100   14.4547    8.9594 O   0  0  0  0  0  0  0  0  0  0  0  0
   29.3182   13.0091    7.5572 N   0  0  0  0  0  0  0  0  0  0  0  0
   30.3825   12.6075    6.6414 C   0  0  0  0  0  0  0  0  0  0  0  0
   31.3267   11.8004    7.2695 C   0  0  1  0  0  0  0  0  0  0  0  0
   30.8826   10.6166    7.8725 C   0  0  0  0  0  0  0  0  0  0  0  0
   31.6779    9.5497    7.3610 N   0  0  0  0  0  0  0  0  0  0  0  0
   32.6213    9.9064    6.4771 C   0  0  0  0  0  0  0  0  0  0  0  0
   32.4859   11.3085    6.3272 C   0  0  0  0  0  0  0  0  0  0  0  0
   32.8606   11.7473    5.1078 C   0  0  0  0  0  0  0  0  0  0  0  0
   34.3054   11.6916    5.6305 C   0  0  0  0  0  0  0  0  0  0  0  0
   33.6467   12.2783    6.7016 C   0  0  0  0  0  0  0  0  0  0  0  0
  1  2  1  0
  2  3  2  0
  2  4  2  0
  2  5  1  0
  5  6  1  0
  7  6  1  6
  7  8  1  0
  8  9  1  0
  9 10  1  0
 10 11  1  0
 11 12  1  0
 12 13  1  0
 13 14  1  0
 11  7  1  0
 14 11  1  0
A    1
 C1 
A    2
 S1 
A    3
 O1 
A    4
 O2 
A    5
 N1 
A    6
 C2 
A    7
 C3 
A    8
 C4 
A    9
 N2 
A   10
 C5 
A   11
 C6 
A   12
 C7 
A   13
 C8 
A   14
 C9 
M  END
>  <ref_pdb>  (971) 
Ax0310a

>  <ref_mols>  (971) 
Ax0446a,Ax1080a,Ax0812a,Ax0719a,Ax1140a,Ax0528a,Ax0310a

>  <original SMILES>  (971) 
CS(=O)(=O)NC[C@H]1CNCC12CCC2

>  <rationale>  (971) 
info info set:sulfonimide_whole;hbond:S87; hydroph_interaction:P107; 

>  <experiment>  (971) 
sulfonimide_whole

>  <cluster_label>  (971) 
3

>  <cluster_rank>  (971) 
628

>  <N_interactions>  (971) 
2

>  <∆∆G>  (971) 
-2.992482

>  <comRMSD>  (971) 
0.782248

>  <ROCS_TanimotoCombo>  (971) 
0.351

>  <ROCS_ShapeTanimoto>  (971) 
0.195

>  <ROCS_ColorTanimoto>  (971) 
0.156

$$$$
Z1564422316
     RDKit          3D

 17 18  0  0  0  0  0  0  0  0999 V2000
   35.0578   10.5272    4.8388 C   0  0  0  0  0  0  0  0  0  0  0  0
   33.7074    9.8899    4.7088 C   0  0  0  0  0  0  0  0  0  0  0  0
   32.8285   10.0086    5.8638 N   0  0  0  0  0  0  0  0  0  0  0  0
   32.4391    8.9063    6.5493 N   0  0  0  0  0  0  0  0  0  0  0  0
   31.6487    9.3864    7.5258 C   0  0  0  0  0  0  0  0  0  0  0  0
   30.9657    8.4885    8.5577 C   0  0  0  0  0  0  0  0  0  0  0  0
   31.5688   10.7793    7.4427 C   0  0  0  0  0  0  0  0  0  0  0  0
   30.9129   11.6215    8.2270 N   0  0  0  0  0  0  0  0  0  0  0  0
   31.2169   13.0380    8.2567 C   0  0  0  0  0  0  0  0  0  0  0  0
   29.9223   13.5363    8.1038 C   0  0  0  0  0  0  0  0  0  0  0  0
   28.9390   12.7478    7.3770 C   0  0  0  0  0  0  0  0  0  0  0  0
   27.7633   13.3335    7.3480 C   0  0  0  0  0  0  0  0  0  0  0  0
   27.7373   14.6489    7.0058 C   0  0  0  0  0  0  0  0  0  0  0  0
   28.7292   15.5019    7.6312 O   0  0  0  0  0  0  0  0  0  0  0  0
   29.4704   14.8337    8.6529 C   0  0  0  0  0  0  0  0  0  0  0  0
   32.3164   11.1599    6.3644 C   0  0  0  0  0  0  0  0  0  0  0  0
   32.5965   12.4842    5.7662 C   0  0  0  0  0  0  0  0  0  0  0  0
  1  2  1  0
  2  3  1  0
  3  4  1  0
  4  5  2  0
  5  6  1  0
  5  7  1  0
  7  8  1  0
  8  9  1  0
  9 10  1  0
 10 11  2  0
 11 12  1  0
 12 13  1  0
 13 14  1  0
 14 15  1  0
  7 16  2  0
 16 17  1  0
 16  3  1  0
 15 10  1  0
A    1
 C1 
A    2
 C2 
A    3
 N1 
A    4
 N2 
A    5
 C3 
A    6
 C4 
A    7
 C5 
A    8
 N3 
A    9
 C6 
A   10
 C7 
A   11
 C8 
A   12
 C9 
A   13
 C10
A   14
 O1 
A   15
 C11
A   16
 C12
A   17
 C13
M  END
>  <ref_pdb>  (972) 
Ax0310a

>  <ref_mols>  (972) 
Ax0446a,Ax1080a,Ax0812a,Ax0719a,Ax1140a,Ax0528a,Ax0310a

>  <original SMILES>  (972) 
CCn1nc(C)c(NCC2=CCCOC2)c1C

>  <rationale>  (972) 
info info set:screening_pocket;hbond:S87+S125+G127; hydroph_interaction:V124; 

>  <experiment>  (972) 
screening_pocket

>  <cluster_label>  (972) 
3

>  <cluster_rank>  (972) 
629

>  <N_interactions>  (972) 
4

>  <∆∆G>  (972) 
-5.916326

>  <comRMSD>  (972) 
0.609664

>  <ROCS_TanimotoCombo>  (972) 
0.639

>  <ROCS_ShapeTanimoto>  (972) 
0.245

>  <ROCS_ColorTanimoto>  (972) 
0.394

$$$$
EN300_6510693
     RDKit          3D

 16 17  0  0  0  0  0  0  0  0999 V2000
   29.7871    7.9583   10.2414 C   0  0  0  0  0  0  0  0  0  0  0  0
   30.0632    8.8294    9.0658 C   0  0  0  0  0  0  0  0  0  0  0  0
   30.8746    7.9687    8.2731 C   0  0  0  0  0  0  0  0  0  0  0  0
   28.7965    9.0149    8.4321 C   0  0  0  0  0  0  0  0  0  0  0  0
   30.6402   10.0566    9.2568 O   0  0  0  0  0  0  0  0  0  0  0  0
   30.9183   10.8230    8.2180 C   0  0  0  0  0  0  0  0  0  0  0  0
   30.4277   11.9186    8.0456 O   0  0  0  0  0  0  0  0  0  0  0  0
   31.9040   10.3991    7.1898 C   0  0  0  0  0  0  0  0  0  0  0  0
   32.4946   11.5283    6.4144 C   0  0  0  0  0  0  0  0  0  0  0  0
   33.3289   10.9651    5.5468 N   0  0  0  0  0  0  0  0  0  0  0  0
   33.3020    9.5869    5.7264 C   0  0  0  0  0  0  0  0  0  0  0  0
   32.4228    9.1902    6.7657 N   0  0  0  0  0  0  0  0  0  0  0  0
   34.0628    8.7973    4.9383 N   0  0  0  0  0  0  0  0  0  0  0  0
   35.1572    9.6152    4.3481 C   0  0  0  0  0  0  0  0  0  0  0  0
   34.6117   10.6197    3.5631 C   0  0  0  0  0  0  0  0  0  0  0  0
   34.1331   11.6479    4.5688 C   0  0  0  0  0  0  0  0  0  0  0  0
  1  2  1  0
  2  3  1  0
  2  4  1  0
  2  5  1  0
  5  6  1  0
  6  7  2  0
  6  8  1  0
  8  9  2  0
  9 10  1  0
 10 11  1  0
 11 12  2  0
 11 13  1  0
 13 14  1  0
 14 15  1  0
 15 16  1  0
 12  8  1  0
 16 10  1  0
A    1
 C1 
A    2
 C2 
A    3
 C3 
A    4
 C4 
A    5
 O1 
A    6
 C5 
A    7
 O2 
A    8
 C6 
A    9
 C7 
A   10
 N1 
A   11
 C8 
A   12
 N2 
A   13
 N3 
A   14
 C9 
A   15
 C10
A   16
 C11
M  END
>  <ref_pdb>  (973) 
Ax0310a

>  <ref_mols>  (973) 
Ax0446a,Ax1080a,Ax0812a,Ax0719a,Ax1140a,Ax0528a,Ax0310a

>  <original SMILES>  (973) 
CC(C)(C)OC(=O)c1cn2c(n1)NCCC2

>  <rationale>  (973) 
info info set:bb_densepocket2;hbond:S105; hydroph_interaction:V124; 

>  <experiment>  (973) 
bb_densepocket2

>  <cluster_label>  (973) 
3

>  <cluster_rank>  (973) 
630

>  <N_interactions>  (973) 
2

>  <∆∆G>  (973) 
-4.070267

>  <comRMSD>  (973) 
0.908526

>  <ROCS_TanimotoCombo>  (973) 
0.614

>  <ROCS_ShapeTanimoto>  (973) 
0.238

>  <ROCS_ColorTanimoto>  (973) 
0.377

$$$$
Z1723952047
     RDKit          3D

 16 17  0  0  0  0  0  0  0  0999 V2000
   29.1993   13.9392    9.4723 N   0  0  0  0  0  0  0  0  0  0  0  0
   30.3806   13.7635    8.6480 C   0  0  0  0  0  0  0  0  0  0  0  0
   30.1150   12.9800    7.3909 C   0  0  0  0  0  0  0  0  0  0  0  0
   30.8861   11.8963    7.1937 C   0  0  0  0  0  0  0  0  0  0  0  0
   30.5357   10.7156    7.9535 C   0  0  0  0  0  0  0  0  0  0  0  0
   31.3021    9.4773    7.7837 C   0  0  0  0  0  0  0  0  0  0  0  0
   30.9687    8.4019    8.4810 F   0  0  0  0  0  0  0  0  0  0  0  0
   32.4389    9.5019    6.8133 C   0  0  0  0  0  0  0  0  0  0  0  0
   32.7761   10.6546    6.0998 C   0  0  0  0  0  0  0  0  0  0  0  0
   33.9649   10.6475    5.1079 C   0  0  0  0  0  0  0  0  0  0  0  0
   33.8515   11.6118    4.1676 F   0  0  0  0  0  0  0  0  0  0  0  0
   35.1775   10.8969    5.6145 F   0  0  0  0  0  0  0  0  0  0  0  0
   34.1040    9.4675    4.4547 F   0  0  0  0  0  0  0  0  0  0  0  0
   31.9954   11.8290    6.3006 C   0  0  0  0  0  0  0  0  0  0  0  0
   28.6276   12.7797    7.0675 C   0  0  0  0  0  0  0  0  0  0  0  0
   29.4948   13.6308    6.1376 C   0  0  0  0  0  0  0  0  0  0  0  0
  1  2  1  0
  2  3  1  0
  3  4  1  0
  4  5  2  0
  5  6  1  0
  6  7  1  0
  6  8  2  0
  8  9  1  0
  9 10  1  0
 10 11  1  0
 10 12  1  0
 10 13  1  0
  9 14  2  0
  3 15  1  0
 15 16  1  0
 16  3  1  0
 14  4  1  0
A    1
 N1 
A    2
 C1 
A    3
 C2 
A    4
 C3 
A    5
 C4 
A    6
 C5 
A    7
 F1 
A    8
 C6 
A    9
 C7 
A   10
 C8 
A   11
 F2 
A   12
 F3 
A   13
 F4 
A   14
 C9 
A   15
 C10
A   16
 C11
M  END
>  <ref_pdb>  (974) 
Ax0310a

>  <ref_mols>  (974) 
Ax0446a,Ax1080a,Ax0812a,Ax0719a,Ax1140a,Ax0528a,Ax0310a

>  <original SMILES>  (974) 
NCC1(c2cc(F)cc(C(F)(F)F)c2)CC1

>  <rationale>  (974) 
info info set:3d;halogenbond:S105; hbond:S87+S125; hydroph_interaction:P107; 

>  <experiment>  (974) 
3d

>  <cluster_label>  (974) 
3

>  <cluster_rank>  (974) 
631

>  <N_interactions>  (974) 
5

>  <∆∆G>  (974) 
-4.52665

>  <comRMSD>  (974) 
0.675879

>  <ROCS_TanimotoCombo>  (974) 
0.289

>  <ROCS_ShapeTanimoto>  (974) 
0.217

>  <ROCS_ColorTanimoto>  (974) 
0.072

$$$$
Z1802346605
     RDKit          3D

 22 24  0  0  0  0  0  0  0  0999 V2000
   31.6955   16.8423   12.0241 C   0  0  0  0  0  0  0  0  0  0  0  0
   32.1389   16.4614   10.7515 O   0  0  0  0  0  0  0  0  0  0  0  0
   31.3221   15.5979    9.9551 C   0  0  0  0  0  0  0  0  0  0  0  0
   31.9340   14.2304    9.6749 C   0  0  0  0  0  0  0  0  0  0  0  0
   31.1718   13.2640    8.8108 C   0  0  0  0  0  0  0  0  0  0  0  0
   29.8637   13.7862    8.3363 C   0  0  0  0  0  0  0  0  0  0  0  0
   29.5037   12.5761    7.5885 C   0  0  0  0  0  0  0  0  0  0  0  0
   29.9812   11.4433    8.0872 N   0  0  0  0  0  0  0  0  0  0  0  0
   31.0098   10.7880    7.4509 C   0  0  0  0  0  0  0  0  0  0  0  0
   31.3465    9.3046    7.5311 C   0  0  0  0  0  0  0  0  0  0  0  0
   32.2974    8.6063    6.9311 N   0  0  0  0  0  0  0  0  0  0  0  0
   33.1060    9.3102    6.1079 C   0  0  0  0  0  0  0  0  0  0  0  0
   34.1288    8.7947    5.3829 N   0  0  0  0  0  0  0  0  0  0  0  0
   34.8022    9.6938    4.6402 N   0  0  0  0  0  0  0  0  0  0  0  0
   34.1623   10.8406    4.9130 C   0  0  0  0  0  0  0  0  0  0  0  0
   34.6142   12.1538    4.2642 C   0  0  0  0  0  0  0  0  0  0  0  0
   33.0888   10.6507    5.8218 C   0  0  0  0  0  0  0  0  0  0  0  0
   32.0117   11.4600    6.5066 C   0  0  0  0  0  0  0  0  0  0  0  0
   29.3821   14.9911    8.6173 C   0  0  0  0  0  0  0  0  0  0  0  0
   28.2583   15.4353    8.1745 O   0  0  0  0  0  0  0  0  0  0  0  0
   28.5917   16.7416    8.5050 C   0  0  0  0  0  0  0  0  0  0  0  0
   30.0923   15.8674    9.3974 C   0  0  0  0  0  0  0  0  0  0  0  0
  1  2  1  0
  2  3  1  0
  3  4  2  0
  4  5  1  0
  5  6  2  0
  6  7  1  0
  7  8  1  0
  8  9  1  0
  9 10  2  0
 10 11  1  0
 11 12  2  0
 12 13  1  0
 13 14  1  0
 14 15  2  0
 15 16  1  0
 15 17  1  0
 17 18  2  0
  6 19  1  0
 19 20  1  0
 20 21  1  0
 19 22  2  0
 22  3  1  0
 18  9  1  0
 17 12  1  0
A    1
 C1 
A    2
 O1 
A    3
 C2 
A    4
 C3 
A    5
 C4 
A    6
 C5 
A    7
 C6 
A    8
 N1 
A    9
 C7 
A   10
 C8 
A   11
 N2 
A   12
 C9 
A   13
 N3 
A   14
 N4 
A   15
 C10
A   16
 C11
A   17
 C12
A   18
 C13
A   19
 C14
A   20
 O2 
A   21
 C15
A   22
 C16
M  END
>  <ref_pdb>  (975) 
Ax0310a

>  <ref_mols>  (975) 
Ax0446a,Ax1080a,Ax0812a,Ax0719a,Ax1140a,Ax0528a,Ax0310a

>  <original SMILES>  (975) 
COc1ccc(CNc2cnc3[nH]nc(C)c3c2)c(OC)c1

>  <rationale>  (975) 
info info set:screening_pocket;hbond:S87+S105+S125; hydroph_interaction:P107+Y90+T126+V84; 

>  <experiment>  (975) 
screening_pocket

>  <cluster_label>  (975) 
3

>  <cluster_rank>  (975) 
632

>  <N_interactions>  (975) 
7

>  <∆∆G>  (975) 
-5.267235

>  <comRMSD>  (975) 
0.645584

>  <ROCS_TanimotoCombo>  (975) 
0.63

>  <ROCS_ShapeTanimoto>  (975) 
0.254

>  <ROCS_ColorTanimoto>  (975) 
0.376

$$$$
EN300_215384
     RDKit          3D

 13 13  0  0  0  0  0  0  0  0999 V2000
   34.7235   14.8945    8.8652 N   0  0  0  0  0  0  0  0  0  0  0  0
   33.4904   13.8324    8.4951 S   0  0  0  0  0  6  0  0  0  0  0  0
   33.9834   12.6966    9.1524 O   0  0  0  0  0  0  0  0  0  0  0  0
   32.2429   14.4261    8.9439 O   0  0  0  0  0  0  0  0  0  0  0  0
   33.5562   13.6034    6.7022 C   0  0  0  0  0  0  0  0  0  0  0  0
   32.3729   13.0022    6.2168 C   0  0  0  0  0  0  0  0  0  0  0  0
   32.1192   11.7025    6.6082 C   0  0  0  0  0  0  0  0  0  0  0  0
   32.9689   10.6805    6.2049 C   0  0  0  0  0  0  0  0  0  0  0  0
   32.7241    9.3773    6.6010 C   0  0  0  0  0  0  0  0  0  0  0  0
   31.5897    9.0785    7.4480 C   0  0  0  0  0  0  0  0  0  0  0  0
   30.7528   10.0941    7.8414 C   0  0  0  0  0  0  0  0  0  0  0  0
   31.0057   11.3974    7.4166 C   0  0  0  0  0  0  0  0  0  0  0  0
   29.7828   12.7370    7.9703 Br  0  0  0  0  0  0  0  0  0  0  0  0
  1  2  1  0
  2  3  2  0
  2  4  2  0
  2  5  1  0
  5  6  1  0
  6  7  1  0
  7  8  2  0
  8  9  1  0
  9 10  2  0
 10 11  1  0
 11 12  2  0
 12 13  1  0
 12  7  1  0
A    1
 N1 
A    2
 S1 
A    3
 O1 
A    4
 O2 
A    5
 C1 
A    6
 C2 
A    7
 C3 
A    8
 C4 
A    9
 C5 
A   10
 C6 
A   11
 C7 
A   12
 C8 
A   13
BR1 
M  END
>  <ref_pdb>  (976) 
Ax0310a

>  <ref_mols>  (976) 
Ax0446a,Ax1080a,Ax0812a,Ax0719a,Ax1140a,Ax0528a,Ax0310a

>  <original SMILES>  (976) 
NS(=O)(=O)CCc1ccccc1Br

>  <rationale>  (976) 
info info set:sulfonimide_whole;hbond:S87+G127+E85; 

>  <experiment>  (976) 
sulfonimide_whole

>  <cluster_label>  (976) 
3

>  <cluster_rank>  (976) 
633

>  <N_interactions>  (976) 
3

>  <∆∆G>  (976) 
-5.719662

>  <comRMSD>  (976) 
0.444508

>  <ROCS_TanimotoCombo>  (976) 
0.337

>  <ROCS_ShapeTanimoto>  (976) 
0.19

>  <ROCS_ColorTanimoto>  (976) 
0.147

$$$$
Z1065887986
     RDKit          3D

 17 17  0  0  0  0  0  0  0  0999 V2000
   33.9358    9.9172    5.4851 C   0  0  0  0  0  0  0  0  0  0  0  0
   32.7072   10.1446    6.3615 C   0  0  0  0  0  0  0  0  0  0  0  0
   32.0509    9.0909    6.8247 N   0  0  0  0  0  0  0  0  0  0  0  0
   31.0482    9.6344    7.5298 N   0  0  0  0  0  0  0  0  0  0  0  0
   30.1778    8.8697    8.1574 C   0  0  0  0  0  0  0  0  0  0  0  0
   30.6888    7.6195    8.3091 C   0  0  0  0  0  0  0  0  0  0  0  0
   30.2110    9.1568    9.5439 C   0  0  0  0  0  0  0  0  0  0  0  0
   31.0448   10.9596    7.5260 C   0  0  0  0  0  0  0  0  0  0  0  0
   30.0759   11.6625    8.1924 C   0  0  0  0  0  0  0  0  0  0  0  0
   32.0923   11.3275    6.8065 C   0  0  0  0  0  0  0  0  0  0  0  0
   32.3615   12.6269    6.6443 N   0  0  0  0  0  0  0  0  0  0  0  0
   33.0171   13.4622    7.9210 S   0  0  0  0  0  6  0  0  0  0  0  0
   31.9472   14.2702    8.4552 O   0  0  0  0  0  0  0  0  0  0  0  0
   33.7549   12.6673    8.8423 O   0  0  0  0  0  0  0  0  0  0  0  0
   34.1948   14.1990    6.7940 C   0  0  0  0  0  0  0  0  0  0  0  0
   35.0879   13.1968    6.1113 C   0  0  0  0  0  0  0  0  0  0  0  0
   35.0428   15.0666    7.5813 C   0  0  0  0  0  0  0  0  0  0  0  0
  1  2  1  0
  2  3  2  0
  3  4  1  0
  4  5  1  0
  5  6  1  0
  5  7  1  0
  4  8  1  0
  8  9  1  0
  8 10  2  0
 10 11  1  0
 11 12  1  0
 12 13  2  0
 12 14  2  0
 12 15  1  0
 15 16  1  0
 15 17  1  0
 10  2  1  0
A    1
 C1 
A    2
 C2 
A    3
 N1 
A    4
 N2 
A    5
 C3 
A    6
 C4 
A    7
 C5 
A    8
 C6 
A    9
 C7 
A   10
 C8 
A   11
 N3 
A   12
 S1 
A   13
 O1 
A   14
 O2 
A   15
 C9 
A   16
 C10
A   17
 C11
M  END
>  <ref_pdb>  (977) 
Ax0310a

>  <ref_mols>  (977) 
Ax0446a,Ax1080a,Ax0812a,Ax0719a,Ax1140a,Ax0528a,Ax0310a

>  <original SMILES>  (977) 
Cc1nn(C(C)C)c(C)c1NS(=O)(=O)C(C)C

>  <rationale>  (977) 
info info set:3d;hbond:S87+G127; hydroph_interaction:V84+E85; 

>  <experiment>  (977) 
3d

>  <cluster_label>  (977) 
3

>  <cluster_rank>  (977) 
634

>  <N_interactions>  (977) 
4

>  <∆∆G>  (977) 
-5.188669

>  <comRMSD>  (977) 
0.763793

>  <ROCS_TanimotoCombo>  (977) 
0.347

>  <ROCS_ShapeTanimoto>  (977) 
0.215

>  <ROCS_ColorTanimoto>  (977) 
0.133

$$$$
Z118437284
     RDKit          3D

 15 16  0  0  0  0  0  0  0  0999 V2000
   32.3277   14.5255    8.8842 O   0  0  0  0  0  0  0  0  0  0  0  0
   33.3335   13.7351    8.1950 S   0  0  0  0  0  6  0  0  0  0  0  0
   33.9795   12.7110    8.9192 O   0  0  0  0  0  0  0  0  0  0  0  0
   34.5995   14.6090    7.3769 C   0  0  0  0  0  0  0  0  0  0  0  0
   34.5623   14.4357    6.0027 C   0  0  0  0  0  0  0  0  0  0  0  0
   33.7605   13.3461    5.6196 C   0  0  0  0  0  0  0  0  0  0  0  0
   32.7365   13.2086    6.6952 N   0  0  0  0  0  0  0  0  0  0  0  0
   32.1920   11.9711    7.0014 C   0  0  0  0  0  0  0  0  0  0  0  0
   32.7890   10.7903    6.5480 C   0  0  0  0  0  0  0  0  0  0  0  0
   32.2938    9.5349    6.9125 C   0  0  0  0  0  0  0  0  0  0  0  0
   31.0747    9.3623    7.8462 C   0  0  0  0  0  0  0  0  0  0  0  0
   30.2145    7.9422    8.5812 Br  0  0  0  0  0  0  0  0  0  0  0  0
   30.6078   10.7269    8.1487 C   0  0  0  0  0  0  0  0  0  0  0  0
   31.0880   11.9561    7.7782 C   0  0  0  0  0  0  0  0  0  0  0  0
   30.4682   13.0560    8.2099 F   0  0  0  0  0  0  0  0  0  0  0  0
  1  2  2  0
  2  3  2  0
  2  4  1  0
  4  5  1  0
  5  6  1  0
  6  7  1  0
  7  8  1  0
  8  9  2  0
  9 10  1  0
 10 11  2  0
 11 12  1  0
 11 13  1  0
 13 14  2  0
 14 15  1  0
  7  2  1  0
 14  8  1  0
A    1
 O1 
A    2
 S1 
A    3
 O2 
A    4
 C1 
A    5
 C2 
A    6
 C3 
A    7
 N1 
A    8
 C4 
A    9
 C5 
A   10
 C6 
A   11
 C7 
A   12
BR1 
A   13
 C8 
A   14
 C9 
A   15
 F1 
M  END
>  <ref_pdb>  (978) 
Ax0310a

>  <ref_mols>  (978) 
Ax0446a,Ax1080a,Ax0812a,Ax0719a,Ax1140a,Ax0528a,Ax0310a

>  <original SMILES>  (978) 
O=S1(=O)CCCN1c1ccc(Br)cc1F

>  <rationale>  (978) 
info info set:3d;hbond:S87+G127; 

>  <experiment>  (978) 
3d

>  <cluster_label>  (978) 
3

>  <cluster_rank>  (978) 
635

>  <N_interactions>  (978) 
2

>  <∆∆G>  (978) 
-3.31691

>  <comRMSD>  (978) 
0.769375

>  <ROCS_TanimotoCombo>  (978) 
0.308

>  <ROCS_ShapeTanimoto>  (978) 
0.199

>  <ROCS_ColorTanimoto>  (978) 
0.11

$$$$
Z3832637605
     RDKit          3D

 20 23  0  0  0  0  0  0  0  0999 V2000
   32.7861   13.7821    4.4582 C   0  0  0  0  0  0  0  0  0  0  0  0
   33.8604   13.3316    5.4660 C   0  0  0  0  0  0  0  0  0  0  0  0
   33.5746   11.8596    5.7998 C   0  0  0  0  0  0  0  0  0  0  0  0
   34.3590   10.8295    5.4004 C   0  0  0  0  0  0  0  0  0  0  0  0
   33.9588    9.6304    5.7890 N   0  0  0  0  0  0  0  0  0  0  0  0
   32.8102    9.8186    6.5219 C   0  0  0  0  0  0  0  0  0  0  0  0
   32.0570    8.8087    7.1431 N   0  0  0  0  0  0  0  0  0  0  0  0
   30.9078    9.3400    7.8320 C   0  0  0  0  0  0  0  0  0  0  0  0
   30.5822   10.6394    7.8705 N   0  0  0  0  0  0  0  0  0  0  0  0
   31.3568   11.5761    7.2442 C   0  0  0  0  0  0  0  0  0  0  0  0
   30.9648   12.8969    7.3124 N   0  0  0  0  0  0  0  0  0  0  0  0
   29.5618   13.0511    7.5773 C   0  0  1  0  0  0  0  0  0  0  0  0
   29.4251   13.3949    8.9096 C   0  0  0  0  0  0  0  0  0  0  0  0
   29.3806   14.7176    9.3621 C   0  0  1  0  0  0  0  0  0  0  0  0
   30.6836   15.1175    9.8886 C   0  0  0  0  0  0  0  0  0  0  0  0
   31.6972   14.5091    9.5498 O   0  0  0  0  0  0  0  0  0  0  0  0
   28.7554   15.3157    8.1406 C   0  0  2  0  0  0  0  0  0  0  0  0
   27.7965   14.6000    7.4727 C   0  0  0  0  0  0  0  0  0  0  0  0
   28.9041   14.2006    6.9487 C   0  0  2  0  0  0  0  0  0  0  0  0
   32.5194   11.1966    6.5468 C   0  0  0  0  0  0  0  0  0  0  0  0
  1  2  1  0
  2  3  1  0
  3  4  2  0
  4  5  1  0
  5  6  1  0
  6  7  2  0
  7  8  1  0
  8  9  2  0
  9 10  1  0
 10 11  1  0
 12 11  1  6
 12 13  1  0
 13 14  1  0
 14 15  1  6
 15 16  1  0
 14 17  1  0
 17 18  1  1
 19 18  1  1
 10 20  2  0
 20  3  1  0
 20  6  1  0
 19 12  1  0
 19 17  1  0
A    1
 C1 
A    2
 C2 
A    3
 C3 
A    4
 C4 
A    5
 N1 
A    6
 C5 
A    7
 N2 
A    8
 C6 
A    9
 N3 
A   10
 C7 
A   11
 N4 
A   12
 C8 
A   13
 C9 
A   14
 C10
A   15
 C11
A   16
 O1 
A   17
 C12
A   18
 C13
A   19
 C14
A   20
 C15
M  END
>  <ref_pdb>  (979) 
Ax0310a

>  <ref_mols>  (979) 
Ax0446a,Ax1080a,Ax0812a,Ax0719a,Ax1140a,Ax0528a,Ax0310a

>  <original SMILES>  (979) 
CCc1c[nH]c2ncnc(N[C@H]3C[C@@H](CO)[C@@H]4C[C@@H]43)c12

>  <rationale>  (979) 
info info set:screening_whole;hbond:S87; hydroph_interaction:Y89+Y90; 

>  <experiment>  (979) 
screening_whole

>  <cluster_label>  (979) 
3

>  <cluster_rank>  (979) 
636

>  <N_interactions>  (979) 
4

>  <∆∆G>  (979) 
-3.90431

>  <comRMSD>  (979) 
0.527439

>  <ROCS_TanimotoCombo>  (979) 
0.462

>  <ROCS_ShapeTanimoto>  (979) 
0.258

>  <ROCS_ColorTanimoto>  (979) 
0.204

$$$$
Z432742450
     RDKit          3D

 21 23  0  0  0  0  0  0  0  0999 V2000
   30.9925    7.6834    8.2288 C   0  0  0  0  0  0  0  0  0  0  0  0
   30.5433    8.8743    8.0925 C   0  0  0  0  0  0  0  0  0  0  0  0
   30.4331    9.3422    9.3871 C   0  0  0  0  0  0  0  0  0  0  0  0
   29.0816    8.8265    8.1131 C   0  0  0  0  0  0  0  0  0  0  0  0
   31.4813    9.6988    7.3051 N   0  0  0  0  0  0  0  0  0  0  0  0
   32.5297    9.1397    6.4928 N   0  0  0  0  0  0  0  0  0  0  0  0
   33.1644   10.2590    6.0015 C   0  0  0  0  0  0  0  0  0  0  0  0
   34.3743   10.3740    5.0995 C   0  0  0  0  0  0  0  0  0  0  0  0
   34.3750    9.8961    3.8228 C   0  0  0  0  0  0  0  0  0  0  0  0
   34.2511    8.8011    4.9305 C   0  0  0  0  0  0  0  0  0  0  0  0
   32.5804   11.4387    6.4357 C   0  0  0  0  0  0  0  0  0  0  0  0
   31.5443   11.0303    7.2416 C   0  0  0  0  0  0  0  0  0  0  0  0
   30.7828   12.0436    7.8450 C   0  0  0  0  0  0  0  0  0  0  0  0
   31.2679   12.8095    8.6490 O   0  0  0  0  0  0  0  0  0  0  0  0
   29.4922   12.1350    7.4490 N   0  0  0  0  0  0  0  0  0  0  0  0
   28.9013   13.2649    7.9247 C   0  0  0  0  0  0  0  0  0  0  0  0
   28.2399   13.3410    9.1268 C   0  0  0  0  0  0  0  0  0  0  0  0
   27.7258   14.4871    9.5642 C   0  0  0  0  0  0  0  0  0  0  0  0
   27.9017   15.6243    8.7006 C   0  0  0  0  0  0  0  0  0  0  0  0
   28.5270   15.5761    7.5147 N   0  0  0  0  0  0  0  0  0  0  0  0
   29.0064   14.3891    7.1639 C   0  0  0  0  0  0  0  0  0  0  0  0
  1  2  1  0
  2  3  1  0
  2  4  1  0
  2  5  1  0
  5  6  1  0
  6  7  2  0
  7  8  1  0
  8  9  1  0
  9 10  1  0
  7 11  1  0
 11 12  2  0
 12 13  1  0
 13 14  2  0
 13 15  1  0
 15 16  1  0
 16 17  2  0
 17 18  1  0
 18 19  2  0
 19 20  1  0
 20 21  2  0
 12  5  1  0
 21 16  1  0
 10  8  1  0
A    1
 C1 
A    2
 C2 
A    3
 C3 
A    4
 C4 
A    5
 N1 
A    6
 N2 
A    7
 C5 
A    8
 C6 
A    9
 C7 
A   10
 C8 
A   11
 C9 
A   12
 C10
A   13
 C11
A   14
 O1 
A   15
 N3 
A   16
 C12
A   17
 C13
A   18
 C14
A   19
 C15
A   20
 N4 
A   21
 C16
M  END
>  <ref_pdb>  (980) 
Ax0310a

>  <ref_mols>  (980) 
Ax0446a,Ax1080a,Ax0812a,Ax0719a,Ax1140a,Ax0528a,Ax0310a

>  <original SMILES>  (980) 
CC(C)(C)n1nc(C2CC2)cc1C(=O)Nc1cccnc1

>  <rationale>  (980) 
info info set:screening_pocket;hbond:S87+G127; hydroph_interaction:Y90+V124; 

>  <experiment>  (980) 
screening_pocket

>  <cluster_label>  (980) 
3

>  <cluster_rank>  (980) 
637

>  <N_interactions>  (980) 
4

>  <∆∆G>  (980) 
-0.365544

>  <comRMSD>  (980) 
0.791368

>  <ROCS_TanimotoCombo>  (980) 
0.637

>  <ROCS_ShapeTanimoto>  (980) 
0.273

>  <ROCS_ColorTanimoto>  (980) 
0.365

$$$$
Z729056182
     RDKit          3D

 18 20  0  0  0  0  0  0  0  0999 V2000
   35.1849    9.3327    4.4311 C   0  0  0  0  0  0  0  0  0  0  0  0
   34.2583    8.5922    5.0623 N   0  0  0  0  0  0  0  0  0  0  0  0
   33.4078    9.6137    5.7888 C   0  0  0  0  0  0  0  0  0  0  0  0
   33.8233   11.0432    5.4027 C   0  0  0  0  0  0  0  0  0  0  0  0
   32.9093   11.9469    6.2241 C   0  0  0  0  0  0  0  0  0  0  0  0
   31.8662   11.4907    7.1638 C   0  0  0  0  0  0  0  0  0  0  0  0
   31.1605   12.4715    7.8191 N   0  0  0  0  0  0  0  0  0  0  0  0
   30.0144   13.1686    7.5428 C   0  0  0  0  0  0  0  0  0  0  0  0
   29.3896   13.1675    6.3546 N   0  0  0  0  0  0  0  0  0  0  0  0
   28.2601   13.8644    6.2515 C   0  0  0  0  0  0  0  0  0  0  0  0
   27.6583   14.5526    7.2116 N   0  0  0  0  0  0  0  0  0  0  0  0
   28.2911   14.5512    8.3880 C   0  0  0  0  0  0  0  0  0  0  0  0
   27.8158   15.1795    9.5234 C   0  0  0  0  0  0  0  0  0  0  0  0
   28.8363   14.9377   10.6280 C   0  0  0  0  0  0  0  0  0  0  0  0
   30.1607   14.0869   10.1204 S   0  0  0  0  0  0  0  0  0  0  0  0
   29.4839   13.8955    8.5673 C   0  0  0  0  0  0  0  0  0  0  0  0
   31.6938   10.1276    7.3104 C   0  0  0  0  0  0  0  0  0  0  0  0
   32.4371    9.2179    6.6552 N   0  0  0  0  0  0  0  0  0  0  0  0
  1  2  1  0
  2  3  1  0
  3  4  2  0
  4  5  1  0
  5  6  2  0
  6  7  1  0
  7  8  1  0
  8  9  2  0
  9 10  1  0
 10 11  2  0
 11 12  1  0
 12 13  1  0
 13 14  2  0
 14 15  1  0
 15 16  1  0
  6 17  1  0
 17 18  2  0
 18  3  1  0
 16  8  1  0
 16 12  2  0
A    1
 C1 
A    2
 N1 
A    3
 C2 
A    4
 C3 
A    5
 C4 
A    6
 C5 
A    7
 N2 
A    8
 C6 
A    9
 N3 
A   10
 C7 
A   11
 N4 
A   12
 C8 
A   13
 C9 
A   14
 C10
A   15
 S1 
A   16
 C11
A   17
 C12
A   18
 N5 
M  END
>  <ref_pdb>  (981) 
Ax0310a

>  <ref_mols>  (981) 
Ax0446a,Ax1080a,Ax0812a,Ax0719a,Ax1140a,Ax0528a,Ax0310a

>  <original SMILES>  (981) 
CNc1ccc(Nc2ncnc3ccsc23)cn1

>  <rationale>  (981) 
info info set:screening_pocket;hbond:S87+S105+S125+G127; hydroph_interaction:Y90; 

>  <experiment>  (981) 
screening_pocket

>  <cluster_label>  (981) 
3

>  <cluster_rank>  (981) 
638

>  <N_interactions>  (981) 
5

>  <∆∆G>  (981) 
-3.045356

>  <comRMSD>  (981) 
0.775186

>  <ROCS_TanimotoCombo>  (981) 
0.63

>  <ROCS_ShapeTanimoto>  (981) 
0.227

>  <ROCS_ColorTanimoto>  (981) 
0.403

$$$$
EN300_37102155
     RDKit          3D

 19 19  0  0  0  0  0  0  0  0999 V2000
   34.3056   11.0975    3.5766 C   0  0  0  0  0  0  0  0  0  0  0  0
   33.4352   10.8964    4.7873 C   0  0  0  0  0  0  0  0  0  0  0  0
   33.5611    9.5399    5.4164 C   0  0  0  0  0  0  0  0  0  0  0  0
   34.4135    8.6394    4.8800 N   0  0  0  0  0  0  0  0  0  0  0  0
   32.6686    9.3365    6.6215 C   0  0  0  0  0  0  0  0  0  0  0  0
   31.7772   10.4589    7.1022 C   0  0  0  0  0  0  0  0  0  0  0  0
   30.9494   10.1908    8.2963 C   0  0  0  0  0  0  0  0  0  0  0  0
   30.1862   11.0306    8.6913 O   0  0  0  0  0  0  0  0  0  0  0  0
   31.1448    8.9779    8.8336 O   0  0  0  0  0  0  0  0  0  0  0  0
   29.9169    8.3554    9.1383 C   0  0  0  0  0  0  0  0  0  0  0  0
   29.2480    8.6883   10.2339 C   0  0  0  0  0  0  0  0  0  0  0  0
   29.1357    8.7983    8.0888 C   0  0  0  0  0  0  0  0  0  0  0  0
   29.8181    6.9722    9.1755 C   0  0  0  0  0  0  0  0  0  0  0  0
   31.7589   11.6611    6.4296 C   0  0  0  0  0  0  0  0  0  0  0  0
   32.5539   11.8821    5.2958 C   0  0  0  0  0  0  0  0  0  0  0  0
   32.4140   13.2110    4.6172 C   0  0  0  0  0  0  0  0  0  0  0  0
   32.3013   13.0815    3.2653 F   0  0  0  0  0  0  0  0  0  0  0  0
   33.4302   14.0757    4.8407 F   0  0  0  0  0  0  0  0  0  0  0  0
   31.2588   13.8335    4.9651 F   0  0  0  0  0  0  0  0  0  0  0  0
  1  2  1  0
  2  3  2  0
  3  4  1  0
  3  5  1  0
  5  6  2  0
  6  7  1  0
  7  8  2  0
  7  9  1  0
  9 10  1  0
 10 11  1  0
 10 12  1  0
 10 13  1  0
  6 14  1  0
 14 15  2  0
 15 16  1  0
 16 17  1  0
 16 18  1  0
 16 19  1  0
 15  2  1  0
A    1
 C1 
A    2
 C2 
A    3
 C3 
A    4
 N1 
A    5
 C4 
A    6
 C5 
A    7
 C6 
A    8
 O1 
A    9
 O2 
A   10
 C7 
A   11
 C8 
A   12
 C9 
A   13
 C10
A   14
 C11
A   15
 C12
A   16
 C13
A   17
 F1 
A   18
 F2 
A   19
 F3 
M  END
>  <ref_pdb>  (982) 
Ax0310a

>  <ref_mols>  (982) 
Ax0446a,Ax1080a,Ax0812a,Ax0719a,Ax1140a,Ax0528a,Ax0310a

>  <original SMILES>  (982) 
Cc1c(N)cc(C(=O)OC(C)(C)C)cc1C(F)(F)F

>  <rationale>  (982) 
info info set:bb_densepocket2;hbond:S105; hydroph_interaction:P107+V124+D109; 

>  <experiment>  (982) 
bb_densepocket2

>  <cluster_label>  (982) 
3

>  <cluster_rank>  (982) 
639

>  <N_interactions>  (982) 
5

>  <∆∆G>  (982) 
-1.495422

>  <comRMSD>  (982) 
0.539359

>  <ROCS_TanimotoCombo>  (982) 
0.612

>  <ROCS_ShapeTanimoto>  (982) 
0.228

>  <ROCS_ColorTanimoto>  (982) 
0.384

$$$$
EN300_78532
     RDKit          3D

 15 16  0  0  0  0  0  0  0  0999 V2000
   36.2371   13.8675    6.4151 N   0  0  0  0  0  0  0  0  0  0  0  0
   34.7582   14.5751    6.0996 S   0  0  0  0  0  6  0  0  0  0  0  0
   34.6627   14.9777    4.7184 O   0  0  0  0  0  0  0  0  0  0  0  0
   34.5296   15.3838    7.2432 O   0  0  0  0  0  0  0  0  0  0  0  0
   33.9385   13.0785    6.3083 C   0  0  0  0  0  0  0  0  0  0  0  0
   34.5238   11.9169    5.5770 C   0  0  0  0  0  0  0  0  0  0  0  0
   33.8349   10.6125    5.8176 C   0  0  0  0  0  0  0  0  0  0  0  0
   32.5821   10.3359    6.7403 C   0  0  0  0  0  0  0  0  0  0  0  0
   32.2528   11.6167    7.2482 C   0  0  0  0  0  0  0  0  0  0  0  0
   32.8416   12.9555    7.1022 C   0  0  0  0  0  0  0  0  0  0  0  0
   31.0417   11.3240    8.0658 C   0  0  0  0  0  0  0  0  0  0  0  0
   30.4121   12.4444    8.6933 O   0  0  0  0  0  0  0  0  0  0  0  0
   30.5066   10.1162    8.2296 N   0  0  0  0  0  0  0  0  0  0  0  0
   31.1205    8.9727    7.9583 C   0  0  0  0  0  0  0  0  0  0  0  0
   32.0210    9.0158    6.9140 C   0  0  0  0  0  0  0  0  0  0  0  0
  1  2  1  0
  2  3  2  0
  2  4  2  0
  2  5  1  0
  5  6  2  0
  6  7  1  0
  7  8  2  0
  8  9  1  0
  9 10  2  0
  9 11  1  0
 11 12  2  0
 11 13  1  0
 13 14  1  0
 14 15  1  0
 10  5  1  0
 15  8  1  0
A    1
 N1 
A    2
 S1 
A    3
 O1 
A    4
 O2 
A    5
 C1 
A    6
 C2 
A    7
 C3 
A    8
 C4 
A    9
 C5 
A   10
 C6 
A   11
 C7 
A   12
 O3 
A   13
 N2 
A   14
 C8 
A   15
 C9 
M  END
>  <ref_pdb>  (983) 
Ax0310a

>  <ref_mols>  (983) 
Ax0446a,Ax1080a,Ax0812a,Ax0719a,Ax1140a,Ax0528a,Ax0310a

>  <original SMILES>  (983) 
NS(=O)(=O)c1ccc2c(c1)C(=O)NCC2

>  <rationale>  (983) 
info info set:sulfonimide_joint;hbond:S125+E85; 

>  <experiment>  (983) 
sulfonimide_joint

>  <cluster_label>  (983) 
3

>  <cluster_rank>  (983) 
640

>  <N_interactions>  (983) 
3

>  <∆∆G>  (983) 
-1.650289

>  <comRMSD>  (983) 
0.840299

>  <ROCS_TanimotoCombo>  (983) 
0.313

>  <ROCS_ShapeTanimoto>  (983) 
0.194

>  <ROCS_ColorTanimoto>  (983) 
0.118

$$$$
EN300_1671698
     RDKit          3D

 12 12  0  0  0  0  0  0  0  0999 V2000
   34.1706   15.1691    9.0493 N   0  0  0  0  0  0  0  0  0  0  0  0
   34.5120   13.6840    8.3807 S   0  0  0  0  0  6  0  0  0  0  0  0
   35.9500   13.6316    8.4014 O   0  0  0  0  0  0  0  0  0  0  0  0
   33.6899   12.8548    9.1869 O   0  0  0  0  0  0  0  0  0  0  0  0
   33.8508   13.6413    6.6954 C   0  0  0  0  0  0  0  0  0  0  0  0
   33.6100   12.3645    6.1487 C   0  0  0  0  0  0  0  0  0  0  0  0
   32.7355   11.5199    6.8358 C   0  0  1  0  0  0  0  0  0  0  0  0
   31.2897   11.9746    6.9511 C   0  0  0  0  0  0  0  0  0  0  0  0
   30.5083   11.0057    7.8732 C   0  0  0  0  0  0  0  0  0  0  0  0
   30.9778    9.5094    7.9227 C   0  0  0  0  0  0  0  0  0  0  0  0
   32.1840    9.1430    7.2174 O   0  0  0  0  0  0  0  0  0  0  0  0
   32.7671   10.0818    6.3022 C   0  0  0  0  0  0  0  0  0  0  0  0
  1  2  1  0
  2  3  2  0
  2  4  2  0
  2  5  1  0
  5  6  1  0
  7  6  1  6
  7  8  1  0
  8  9  1  0
  9 10  1  0
 10 11  1  0
 11 12  1  0
 12  7  1  0
A    1
 N1 
A    2
 S1 
A    3
 O1 
A    4
 O2 
A    5
 C1 
A    6
 C2 
A    7
 C3 
A    8
 C4 
A    9
 C5 
A   10
 C6 
A   11
 O3 
A   12
 C7 
M  END
>  <ref_pdb>  (984) 
Ax0310a

>  <ref_mols>  (984) 
Ax0446a,Ax1080a,Ax0812a,Ax0719a,Ax1140a,Ax0528a,Ax0310a

>  <original SMILES>  (984) 
NS(=O)(=O)CC[C@H]1CCCOC1

>  <rationale>  (984) 
info info set:sulfonimide_joint;hbond:S87+G127+E85; 

>  <experiment>  (984) 
sulfonimide_joint

>  <cluster_label>  (984) 
3

>  <cluster_rank>  (984) 
641

>  <N_interactions>  (984) 
3

>  <∆∆G>  (984) 
-2.376832

>  <comRMSD>  (984) 
0.548661

>  <ROCS_TanimotoCombo>  (984) 
0.32

>  <ROCS_ShapeTanimoto>  (984) 
0.156

>  <ROCS_ColorTanimoto>  (984) 
0.164

$$$$
EN300_801205
     RDKit          3D

 17 18  0  0  0  0  0  0  0  0999 V2000
   29.1232    7.6938    8.4284 C   0  0  0  0  0  0  0  0  0  0  0  0
   29.5109    9.0062    8.7585 C   0  0  0  0  0  0  0  0  0  0  0  0
   29.1683    8.6597   10.0687 C   0  0  0  0  0  0  0  0  0  0  0  0
   28.7478   10.2798    8.4556 C   0  0  0  0  0  0  0  0  0  0  0  0
   30.9619    9.1431    8.7011 C   0  0  0  0  0  0  0  0  0  0  0  0
   31.6096    9.7505    7.5705 C   0  0  0  0  0  0  0  0  0  0  0  0
   32.4663    9.0113    6.8027 N   0  0  0  0  0  0  0  0  0  0  0  0
   33.0347    9.6710    5.7621 C   0  0  0  0  0  0  0  0  0  0  0  0
   34.0511    9.0715    4.7336 C   0  0  0  0  0  0  0  0  0  0  0  0
   34.6424    9.8037    3.5889 C   0  0  0  0  0  0  0  0  0  0  0  0
   34.3095   11.1369    3.3629 C   0  0  0  0  0  0  0  0  0  0  0  0
   33.4073   11.7316    4.2695 C   0  0  0  0  0  0  0  0  0  0  0  0
   32.9923   13.5557    3.9106 Br  0  0  0  0  0  0  0  0  0  0  0  0
   32.7761   11.0039    5.4654 C   0  0  0  0  0  0  0  0  0  0  0  0
   31.8398   11.8187    6.3227 C   0  0  0  0  0  0  0  0  0  0  0  0
   31.2381   11.2353    7.3872 C   0  0  0  0  0  0  0  0  0  0  0  0
   30.3835   11.9525    8.1940 O   0  0  0  0  0  0  0  0  0  0  0  0
  1  2  1  0
  2  3  1  0
  2  4  1  0
  2  5  1  0
  5  6  1  0
  6  7  2  0
  7  8  1  0
  8  9  2  0
  9 10  1  0
 10 11  2  0
 11 12  1  0
 12 13  1  0
 12 14  2  0
 14 15  1  0
 15 16  2  0
 16 17  1  0
 16  6  1  0
 14  8  1  0
A    1
 C1 
A    2
 C2 
A    3
 C3 
A    4
 C4 
A    5
 C5 
A    6
 C6 
A    7
 N1 
A    8
 C7 
A    9
 C8 
A   10
 C9 
A   11
 C10
A   12
 C11
A   13
BR1 
A   14
 C12
A   15
 C13
A   16
 C14
A   17
 O1 
M  END
>  <ref_pdb>  (985) 
Ax0310a

>  <ref_mols>  (985) 
Ax0446a,Ax1080a,Ax0812a,Ax0719a,Ax1140a,Ax0528a,Ax0310a

>  <original SMILES>  (985) 
CC(C)(C)Cc1nc2cccc(Br)c2cc1O

>  <rationale>  (985) 
info info set:bb_densepocket2;hbond:S125; hydroph_interaction:P107+V124+D109; 

>  <experiment>  (985) 
bb_densepocket2

>  <cluster_label>  (985) 
3

>  <cluster_rank>  (985) 
642

>  <N_interactions>  (985) 
4

>  <∆∆G>  (985) 
-3.690035

>  <comRMSD>  (985) 
0.77025

>  <ROCS_TanimotoCombo>  (985) 
0.61

>  <ROCS_ShapeTanimoto>  (985) 
0.241

>  <ROCS_ColorTanimoto>  (985) 
0.369

$$$$
EN300_45217297
     RDKit          3D

 14 15  0  0  0  0  0  0  0  0999 V2000
   29.3440   12.1068    8.3817 N   0  0  0  0  0  0  0  0  0  0  0  0
   30.7008   12.7893    7.7323 S   0  0  0  0  0  6  0  0  0  0  0  0
   31.3998   13.4813    8.7914 O   0  0  0  0  0  0  0  0  0  0  0  0
   30.1726   13.4740    6.5749 O   0  0  0  0  0  0  0  0  0  0  0  0
   31.6505   11.3921    7.1516 C   0  0  0  0  0  0  0  0  0  0  0  0
   31.3717    9.9163    7.4361 C   0  0  0  0  0  0  0  0  0  0  0  0
   32.3601    9.2544    6.7380 N   0  0  0  0  0  0  0  0  0  0  0  0
   33.1696   10.1869    6.0870 C   0  0  0  0  0  0  0  0  0  0  0  0
   34.2954   10.1072    5.2217 C   0  0  0  0  0  0  0  0  0  0  0  0
   34.9956    8.5296    4.5747 Br  0  0  0  0  0  0  0  0  0  0  0  0
   34.9367   11.2442    4.7493 C   0  0  0  0  0  0  0  0  0  0  0  0
   34.4898   12.5013    5.0892 C   0  0  0  0  0  0  0  0  0  0  0  0
   33.3707   12.6245    5.8918 C   0  0  0  0  0  0  0  0  0  0  0  0
   32.7453   11.4832    6.3660 N   0  0  0  0  0  0  0  0  0  0  0  0
  1  2  1  0
  2  3  2  0
  2  4  2  0
  2  5  1  0
  5  6  2  0
  6  7  1  0
  7  8  2  0
  8  9  1  0
  9 10  1  0
  9 11  2  0
 11 12  1  0
 12 13  2  0
 13 14  1  0
 14  5  1  0
 14  8  1  0
A    1
 N1 
A    2
 S1 
A    3
 O1 
A    4
 O2 
A    5
 C1 
A    6
 C2 
A    7
 N2 
A    8
 C3 
A    9
 C4 
A   10
BR1 
A   11
 C5 
A   12
 C6 
A   13
 C7 
A   14
 N3 
M  END
>  <ref_pdb>  (986) 
Ax0310a

>  <ref_mols>  (986) 
Ax0446a,Ax1080a,Ax0812a,Ax0719a,Ax1140a,Ax0528a,Ax0310a

>  <original SMILES>  (986) 
NS(=O)(=O)c1cnc2c(Br)cccn12

>  <rationale>  (986) 
info info set:sulfonimide_whole;hbond:S87+S125; 

>  <experiment>  (986) 
sulfonimide_whole

>  <cluster_label>  (986) 
3

>  <cluster_rank>  (986) 
643

>  <N_interactions>  (986) 
2

>  <∆∆G>  (986) 
-3.050383

>  <comRMSD>  (986) 
0.738151

>  <ROCS_TanimotoCombo>  (986) 
0.341

>  <ROCS_ShapeTanimoto>  (986) 
0.196

>  <ROCS_ColorTanimoto>  (986) 
0.144

$$$$
EN300_321573
     RDKit          3D

 12 12  0  0  0  0  0  0  0  0999 V2000
   35.0531   14.3105    7.8248 C   0  0  0  0  0  0  0  0  0  0  0  0
   33.3948   13.7497    8.3009 S   0  0  0  0  0  6  0  0  0  0  0  0
   33.4657   12.4707    8.8212 O   0  0  0  0  0  0  0  0  0  0  0  0
   32.6972   14.7425    9.0863 O   0  0  0  0  0  0  0  0  0  0  0  0
   32.7124   13.5736    6.7835 N   0  0  0  0  0  0  0  0  0  0  0  0
   31.4850   12.9076    6.6494 C   0  0  0  0  0  0  0  0  0  0  0  0
   31.5213   11.4626    7.0089 C   0  0  0  0  0  0  0  0  0  0  0  0
   30.7009   10.9724    8.0194 C   0  0  0  0  0  0  0  0  0  0  0  0
   30.7720    9.6282    8.3172 C   0  0  0  0  0  0  0  0  0  0  0  0
   31.6610    8.8697    7.5815 C   0  0  0  0  0  0  0  0  0  0  0  0
   32.4425    9.3670    6.6105 N   0  0  0  0  0  0  0  0  0  0  0  0
   32.3720   10.6731    6.3213 N   0  0  0  0  0  0  0  0  0  0  0  0
  1  2  1  0
  2  3  2  0
  2  4  2  0
  2  5  1  0
  5  6  1  0
  6  7  1  0
  7  8  2  0
  8  9  1  0
  9 10  2  0
 10 11  1  0
 11 12  2  0
 12  7  1  0
A    1
 C1 
A    2
 S1 
A    3
 O1 
A    4
 O2 
A    5
 N1 
A    6
 C2 
A    7
 C3 
A    8
 C4 
A    9
 C5 
A   10
 C6 
A   11
 N2 
A   12
 N3 
M  END
>  <ref_pdb>  (987) 
Ax0310a

>  <ref_mols>  (987) 
Ax0446a,Ax1080a,Ax0812a,Ax0719a,Ax1140a,Ax0528a,Ax0310a

>  <original SMILES>  (987) 
CS(=O)(=O)NCc1cccnn1

>  <rationale>  (987) 
info info set:sulfonimide_joint;hbond:S87+G127; 

>  <experiment>  (987) 
sulfonimide_joint

>  <cluster_label>  (987) 
3

>  <cluster_rank>  (987) 
644

>  <N_interactions>  (987) 
2

>  <∆∆G>  (987) 
-5.097318

>  <comRMSD>  (987) 
0.448415

>  <ROCS_TanimotoCombo>  (987) 
0.318

>  <ROCS_ShapeTanimoto>  (987) 
0.172

>  <ROCS_ColorTanimoto>  (987) 
0.146

$$$$
EN300_19836555
     RDKit          3D

 16 16  0  0  0  0  0  0  0  0999 V2000
   28.4106   14.0964    8.4779 C   0  0  0  0  0  0  0  0  0  0  0  0
   30.0363   13.6304    7.8514 S   0  0  0  0  0  6  0  0  0  0  0  0
   29.9959   13.5841    6.4073 O   0  0  0  0  0  0  0  0  0  0  0  0
   31.0663   14.2982    8.6160 O   0  0  0  0  0  0  0  0  0  0  0  0
   30.1663   12.0662    8.2808 N   0  0  0  0  0  0  0  0  0  0  0  0
   31.3735   11.3371    7.9862 C   0  0  1  0  0  0  0  0  0  0  0  0
   30.9302    9.9028    8.2338 C   0  0  0  0  0  0  0  0  0  0  0  0
   31.6506    8.8929    7.6769 C   0  0  0  0  0  0  0  0  0  0  0  0
   32.6202    9.3239    6.5488 C   0  0  0  0  0  0  0  0  0  0  0  0
   32.0892   10.5455    5.8902 C   0  0  0  0  0  0  0  0  0  0  0  0
   32.1453   11.6277    6.6941 C   0  0  2  0  0  0  0  0  0  0  0  0
   33.5053   11.9525    6.9478 N   0  0  0  0  0  0  0  0  0  0  0  0
   34.5551   12.4367    5.7263 S   0  0  0  0  0  6  0  0  0  0  0  0
   35.8186   13.3726    6.5899 C   0  0  0  0  0  0  0  0  0  0  0  0
   35.1617   11.2622    5.1309 O   0  0  0  0  0  0  0  0  0  0  0  0
   33.8399   13.3970    4.9447 O   0  0  0  0  0  0  0  0  0  0  0  0
  1  2  1  0
  2  3  2  0
  2  4  2  0
  2  5  1  0
  6  5  1  6
  6  7  1  0
  7  8  1  0
  8  9  1  0
  9 10  1  0
 10 11  1  0
 11 12  1  1
 12 13  1  0
 13 14  1  0
 13 15  2  0
 13 16  2  0
 11  6  1  0
A    1
 C1 
A    2
 S1 
A    3
 O1 
A    4
 O2 
A    5
 N1 
A    6
 C2 
A    7
 C3 
A    8
 C4 
A    9
 C5 
A   10
 C6 
A   11
 C7 
A   12
 N2 
A   13
 S2 
A   14
 C8 
A   15
 O3 
A   16
 O4 
M  END
>  <ref_pdb>  (988) 
Ax0310a

>  <ref_mols>  (988) 
Ax0446a,Ax1080a,Ax0812a,Ax0719a,Ax1140a,Ax0528a,Ax0310a

>  <original SMILES>  (988) 
CS(=O)(=O)N[C@H]1CCCC[C@@H]1NS(C)(=O)=O

>  <rationale>  (988) 
info info set:sulfonimide_whole;hbond:S87+G127; hydroph_interaction:P107; 

>  <experiment>  (988) 
sulfonimide_whole

>  <cluster_label>  (988) 
3

>  <cluster_rank>  (988) 
645

>  <N_interactions>  (988) 
4

>  <∆∆G>  (988) 
-2.480239

>  <comRMSD>  (988) 
0.927834

>  <ROCS_TanimotoCombo>  (988) 
0.348

>  <ROCS_ShapeTanimoto>  (988) 
0.195

>  <ROCS_ColorTanimoto>  (988) 
0.153

$$$$
EN300_37468848
     RDKit          3D

 16 17  0  0  0  0  0  0  0  0999 V2000
   34.3317   15.2004    8.6734 N   0  0  0  0  0  0  0  0  0  0  0  0
   33.0596   14.4594    9.4093 S   0  0  0  0  0  6  0  0  0  0  0  0
   33.3594   14.5068   10.7826 O   0  0  0  0  0  0  0  0  0  0  0  0
   31.7333   14.8118    9.0060 O   0  0  0  0  0  0  0  0  0  0  0  0
   33.4630   12.9634    8.5724 C   0  0  0  0  0  0  0  0  0  0  0  0
   33.7696   12.9399    7.0957 C   0  0  1  0  0  0  0  0  0  0  0  0
   33.7188   11.7108    6.4745 C   0  0  0  0  0  0  0  0  0  0  0  0
   32.5726   11.6842    5.8167 C   0  0  1  0  0  0  0  0  0  0  0  0
   31.4603   11.0416    6.5070 N   0  0  0  0  0  0  0  0  0  0  0  0
   30.4266   11.8193    6.9298 C   0  0  0  0  0  0  0  0  0  0  0  0
   29.8897   12.9389    6.3737 O   0  0  0  0  0  0  0  0  0  0  0  0
   29.9718   11.2357    8.0772 C   0  0  0  0  0  0  0  0  0  0  0  0
   30.5570   10.0737    8.2662 C   0  0  0  0  0  0  0  0  0  0  0  0
   31.4679    9.8520    7.2465 C   0  0  0  0  0  0  0  0  0  0  0  0
   32.0952    8.8100    7.1152 O   0  0  0  0  0  0  0  0  0  0  0  0
   32.6173   13.1101    6.0435 C   0  0  0  0  0  0  0  0  0  0  0  0
  1  2  1  0
  2  3  2  0
  2  4  2  0
  2  5  1  0
  6  5  1  1
  6  7  1  0
  7  8  1  0
  8  9  1  1
  9 10  1  0
 10 11  2  0
 10 12  1  0
 12 13  2  0
 13 14  1  0
 14 15  2  0
  8 16  1  0
 16  6  1  0
 14  9  1  0
A    1
 N1 
A    2
 S1 
A    3
 O1 
A    4
 O2 
A    5
 C1 
A    6
 C2 
A    7
 C3 
A    8
 C4 
A    9
 N2 
A   10
 C5 
A   11
 O3 
A   12
 C6 
A   13
 C7 
A   14
 C8 
A   15
 O4 
A   16
 C9 
M  END
>  <ref_pdb>  (989) 
Ax0310a

>  <ref_mols>  (989) 
Ax0446a,Ax1080a,Ax0812a,Ax0719a,Ax1140a,Ax0528a,Ax0310a

>  <original SMILES>  (989) 
NS(=O)(=O)C[C@H]1C[C@@H](N2C(=O)C=CC2=O)C1

>  <rationale>  (989) 
info info set:sulfonimide_whole;hbond:S87+E85; 

>  <experiment>  (989) 
sulfonimide_whole

>  <cluster_label>  (989) 
3

>  <cluster_rank>  (989) 
646

>  <N_interactions>  (989) 
2

>  <∆∆G>  (989) 
-0.048411

>  <comRMSD>  (989) 
0.679034

>  <ROCS_TanimotoCombo>  (989) 
0.364

>  <ROCS_ShapeTanimoto>  (989) 
0.2

>  <ROCS_ColorTanimoto>  (989) 
0.164

$$$$
EN300_20946040
     RDKit          3D

 15 15  0  0  0  0  0  0  0  0999 V2000
   32.6475   13.1888    5.8842 C   0  0  0  0  0  0  0  0  0  0  0  0
   32.2338   11.8767    6.5092 C   0  0  0  0  0  0  0  0  0  0  0  0
   31.1252   11.9156    7.5067 C   0  0  0  0  0  0  0  0  0  0  0  0
   30.3460   13.4509    7.9086 S   0  0  0  0  0  6  0  0  0  0  0  0
   29.0301   13.1784    8.8920 N   0  0  0  0  0  0  0  0  0  0  0  0
   29.7542   13.8928    6.6719 O   0  0  0  0  0  0  0  0  0  0  0  0
   31.2754   14.2194    8.7100 O   0  0  0  0  0  0  0  0  0  0  0  0
   30.6758   10.6999    8.1486 C   0  0  0  0  0  0  0  0  0  0  0  0
   31.2861    9.5076    7.8155 C   0  0  0  0  0  0  0  0  0  0  0  0
   32.3199    9.5068    6.8731 C   0  0  0  0  0  0  0  0  0  0  0  0
   32.8590    8.3697    6.5947 F   0  0  0  0  0  0  0  0  0  0  0  0
   32.8115   10.6423    6.2152 C   0  0  0  0  0  0  0  0  0  0  0  0
   33.8984   10.4793    5.2564 N   0  0  0  0  0  4  0  0  0  0  0  0
   34.9857   10.9867    5.5325 O   0  0  0  0  0  0  0  0  0  0  0  0
   33.5831   10.1828    4.1065 O   0  0  0  0  0  1  0  0  0  0  0  0
  1  2  1  0
  2  3  2  0
  3  4  1  0
  4  5  1  0
  4  6  2  0
  4  7  2  0
  3  8  1  0
  8  9  2  0
  9 10  1  0
 10 11  1  0
 10 12  2  0
 12 13  1  0
 13 14  2  0
 13 15  1  0
 12  2  1  0
M  CHG  2  13   1  15  -1
A    1
 C1 
A    2
 C2 
A    3
 C3 
A    4
 S1 
A    5
 N1 
A    6
 O1 
A    7
 O2 
A    8
 C4 
A    9
 C5 
A   10
 C6 
A   11
 F1 
A   12
 C7 
A   13
 N2 
A   14
 O3 
A   15
 O4 
M  END
>  <ref_pdb>  (990) 
Ax0310a

>  <ref_mols>  (990) 
Ax0446a,Ax1080a,Ax0812a,Ax0719a,Ax1140a,Ax0528a,Ax0310a

>  <original SMILES>  (990) 
Cc1c(S(N)(=O)=O)ccc(F)c1[N+](=O)[O-]

>  <rationale>  (990) 
info info set:sulfonimide_whole;halogenbond:S105; hbond:S87+S125; 

>  <experiment>  (990) 
sulfonimide_whole

>  <cluster_label>  (990) 
3

>  <cluster_rank>  (990) 
647

>  <N_interactions>  (990) 
3

>  <∆∆G>  (990) 
-3.255423

>  <comRMSD>  (990) 
0.471202

>  <ROCS_TanimotoCombo>  (990) 
0.342

>  <ROCS_ShapeTanimoto>  (990) 
0.204

>  <ROCS_ColorTanimoto>  (990) 
0.138

$$$$
Z1217169314
     RDKit          3D

 15 16  0  0  0  0  0  0  0  0999 V2000
   36.5428   13.7089    8.5668 C   0  0  0  0  0  0  0  0  0  0  0  0
   35.6647   13.7605    7.3817 C   0  0  0  0  0  0  0  0  0  0  0  0
   34.5348   13.1070    7.2263 N   0  0  0  0  0  0  0  0  0  0  0  0
   34.1936   12.1860    5.8416 S   0  0  0  0  0  6  0  0  0  0  0  0
   33.5948   13.1492    4.9722 O   0  0  0  0  0  0  0  0  0  0  0  0
   35.2918   11.3393    5.4270 O   0  0  0  0  0  0  0  0  0  0  0  0
   32.9149   11.1740    6.5310 C   0  0  0  0  0  0  0  0  0  0  0  0
   33.0199    9.5781    6.4062 C   0  0  0  0  0  0  0  0  0  0  0  0
   31.8635    9.1003    7.1020 C   0  0  0  0  0  0  0  0  0  0  0  0
   30.8946    9.8825    7.7101 C   0  0  0  0  0  0  0  0  0  0  0  0
   30.8804   11.2445    7.7408 C   0  0  0  0  0  0  0  0  0  0  0  0
   31.9049   11.8989    7.1515 C   0  0  0  0  0  0  0  0  0  0  0  0
   29.7796   11.8122    8.3958 N   0  0  0  0  0  0  0  0  0  0  0  0
   28.8648   10.6698    8.4741 C   0  0  0  0  0  0  0  0  0  0  0  0
   29.6697    9.4256    8.4520 C   0  0  0  0  0  0  0  0  0  0  0  0
  1  2  1  0
  2  3  1  0
  3  4  1  0
  4  5  2  0
  4  6  2  0
  4  7  1  0
  7  8  2  0
  8  9  1  0
  9 10  2  0
 10 11  1  0
 11 12  2  0
 11 13  1  0
 13 14  1  0
 14 15  1  0
 12  7  1  0
 15 10  1  0
A    1
 C1 
A    2
 C2 
A    3
 N1 
A    4
 S1 
A    5
 O1 
A    6
 O2 
A    7
 C3 
A    8
 C4 
A    9
 C5 
A   10
 C6 
A   11
 C7 
A   12
 C8 
A   13
 N2 
A   14
 C9 
A   15
 C10
M  END
>  <ref_pdb>  (991) 
Ax0310a

>  <ref_mols>  (991) 
Ax0446a,Ax1080a,Ax0812a,Ax0719a,Ax1140a,Ax0528a,Ax0310a

>  <original SMILES>  (991) 
CCNS(=O)(=O)c1ccc2c(c1)NCC2

>  <rationale>  (991) 
info info set:3d;hbond:G127; hydroph_interaction:V84+E85; 

>  <experiment>  (991) 
3d

>  <cluster_label>  (991) 
3

>  <cluster_rank>  (991) 
648

>  <N_interactions>  (991) 
3

>  <∆∆G>  (991) 
-4.800511

>  <comRMSD>  (991) 
0.941168

>  <ROCS_TanimotoCombo>  (991) 
0.31

>  <ROCS_ShapeTanimoto>  (991) 
0.182

>  <ROCS_ColorTanimoto>  (991) 
0.128

$$$$
EN300_23900
     RDKit          3D

 14 14  0  0  0  0  0  0  0  0999 V2000
   28.6013   14.1033    8.7967 C   0  0  0  0  0  0  0  0  0  0  0  0
   29.6440   13.8869    9.7708 N   0  0  0  0  0  0  0  0  0  0  0  0
   31.1391   14.1576    9.1376 S   0  0  0  0  0  6  0  0  0  0  0  0
   32.2312   13.7438    9.9414 O   0  0  0  0  0  0  0  0  0  0  0  0
   30.9309   15.5484    9.1442 O   0  0  0  0  0  0  0  0  0  0  0  0
   31.2766   13.3445    7.5143 C   0  0  0  0  0  0  0  0  0  0  0  0
   31.5736   11.8525    7.3416 C   0  0  0  0  0  0  0  0  0  0  0  0
   30.6020   11.0080    8.0628 C   0  0  0  0  0  0  0  0  0  0  0  0
   30.7497    9.4894    8.0072 C   0  0  0  0  0  0  0  0  0  0  0  0
   31.9460    9.0063    7.1578 C   0  0  0  0  0  0  0  0  0  0  0  0
   32.7779    9.9506    6.5236 C   0  0  0  0  0  0  0  0  0  0  0  0
   32.6222   11.3318    6.6002 C   0  0  0  0  0  0  0  0  0  0  0  0
   33.5149   12.1855    5.9418 C   0  0  0  0  0  0  0  0  0  0  0  0
   34.2662   12.8988    5.4147 N   0  0  0  0  0  0  0  0  0  0  0  0
  1  2  1  0
  2  3  1  0
  3  4  2  0
  3  5  2  0
  3  6  1  0
  6  7  1  0
  7  8  2  0
  8  9  1  0
  9 10  2  0
 10 11  1  0
 11 12  2  0
 12 13  1  0
 13 14  3  0
 12  7  1  0
A    1
 C1 
A    2
 N1 
A    3
 S1 
A    4
 O1 
A    5
 O2 
A    6
 C2 
A    7
 C3 
A    8
 C4 
A    9
 C5 
A   10
 C6 
A   11
 C7 
A   12
 C8 
A   13
 C9 
A   14
 N2 
M  END
>  <ref_pdb>  (992) 
Ax0310a

>  <ref_mols>  (992) 
Ax0446a,Ax1080a,Ax0812a,Ax0719a,Ax1140a,Ax0528a,Ax0310a

>  <original SMILES>  (992) 
CNS(=O)(=O)Cc1ccccc1C#N

>  <rationale>  (992) 
info info set:sulfonimide_whole;hbond:S87+G127; 

>  <experiment>  (992) 
sulfonimide_whole

>  <cluster_label>  (992) 
3

>  <cluster_rank>  (992) 
649

>  <N_interactions>  (992) 
2

>  <∆∆G>  (992) 
-5.737224

>  <comRMSD>  (992) 
0.416449

>  <ROCS_TanimotoCombo>  (992) 
0.341

>  <ROCS_ShapeTanimoto>  (992) 
0.201

>  <ROCS_ColorTanimoto>  (992) 
0.141

$$$$
EN300_37267440
     RDKit          3D

 14 14  0  0  0  0  0  0  0  0999 V2000
   29.7754    7.3882    8.5608 C   0  0  0  0  0  0  0  0  0  0  0  0
   29.9740    8.7101    9.0234 C   0  0  0  0  0  0  0  0  0  0  0  0
   29.8057    8.2028   10.3471 C   0  0  0  0  0  0  0  0  0  0  0  0
   28.8827    9.6463    8.6611 C   0  0  0  0  0  0  0  0  0  0  0  0
   31.2238    9.2731    8.6794 O   0  0  0  0  0  0  0  0  0  0  0  0
   31.1090   10.5338    8.2240 C   0  0  0  0  0  0  0  0  0  0  0  0
   30.3062   11.3563    8.5910 O   0  0  0  0  0  0  0  0  0  0  0  0
   32.1005   10.8302    7.2192 N   0  0  0  0  0  0  0  0  0  0  0  0
   32.1948   12.1733    6.7496 C   0  0  0  0  0  0  0  0  0  0  0  0
   33.2792   12.5160    5.7067 C   0  0  0  0  0  0  0  0  0  0  0  0
   34.1614   11.3368    5.2781 C   0  0  0  0  0  0  0  0  0  0  0  0
   33.1926   10.1635    5.2781 C   0  0  0  0  0  0  0  0  0  0  0  0
   32.6020    9.7860    6.4784 C   0  0  0  0  0  0  0  0  0  0  0  0
   32.5366    8.5987    6.7867 O   0  0  0  0  0  0  0  0  0  0  0  0
  1  2  1  0
  2  3  1  0
  2  4  1  0
  2  5  1  0
  5  6  1  0
  6  7  2  0
  6  8  1  0
  8  9  1  0
  9 10  2  0
 10 11  1  0
 11 12  1  0
 12 13  1  0
 13 14  2  0
 13  8  1  0
A    1
 C1 
A    2
 C2 
A    3
 C3 
A    4
 C4 
A    5
 O1 
A    6
 C5 
A    7
 O2 
A    8
 N1 
A    9
 C6 
A   10
 C7 
A   11
 C8 
A   12
 C9 
A   13
 C10
A   14
 O3 
M  END
>  <ref_pdb>  (993) 
Ax0310a

>  <ref_mols>  (993) 
Ax0446a,Ax1080a,Ax0812a,Ax0719a,Ax1140a,Ax0528a,Ax0310a

>  <original SMILES>  (993) 
CC(C)(C)OC(=O)N1C=CCCC1=O

>  <rationale>  (993) 
info info set:bb_densepocket2;hydroph_interaction:P107+V124+D109; 

>  <experiment>  (993) 
bb_densepocket2

>  <cluster_label>  (993) 
3

>  <cluster_rank>  (993) 
650

>  <N_interactions>  (993) 
3

>  <∆∆G>  (993) 
-3.467294

>  <comRMSD>  (993) 
0.615508

>  <ROCS_TanimotoCombo>  (993) 
0.608

>  <ROCS_ShapeTanimoto>  (993) 
0.211

>  <ROCS_ColorTanimoto>  (993) 
0.397

$$$$
EN300_728049
     RDKit          3D

 14 14  0  0  0  0  0  0  0  0999 V2000
   29.4384    8.1150    8.4867 C   0  0  0  0  0  0  0  0  0  0  0  0
   30.6212    8.8179    9.0531 C   0  0  0  0  0  0  0  0  0  0  0  0
   30.8681   10.0983    8.2517 C   0  0  0  0  0  0  0  0  0  0  0  0
   30.0712   11.1732    8.7107 O   0  0  0  0  0  0  0  0  0  0  0  0
   31.8643   10.0987    7.1227 C   0  0  0  0  0  0  0  0  0  0  0  0
   32.5328    9.0449    6.7213 N   0  0  0  0  0  0  0  0  0  0  0  0
   33.3543    9.5634    5.6319 C   0  0  0  0  0  0  0  0  0  0  0  0
   34.3870    8.8404    4.7509 C   0  0  0  0  0  0  0  0  0  0  0  0
   33.2567   10.8629    5.2890 C   0  0  0  0  0  0  0  0  0  0  0  0
   34.0048   11.8630    4.0787 S   0  0  0  0  0  6  0  0  0  0  0  0
   32.9011   12.3994    3.3099 O   0  0  0  0  0  0  0  0  0  0  0  0
   35.0634   11.0721    3.4943 O   0  0  0  0  0  0  0  0  0  0  0  0
   34.6751   13.1015    4.8051 F   0  0  0  0  0  0  0  0  0  0  0  0
   32.1309   11.5923    6.3251 S   0  0  0  0  0  0  0  0  0  0  0  0
  1  2  1  0
  2  3  1  0
  3  4  2  0
  3  5  1  0
  5  6  2  0
  6  7  1  0
  7  8  1  0
  7  9  2  0
  9 10  1  0
 10 11  2  0
 10 12  2  0
 10 13  1  0
  9 14  1  0
 14  5  1  0
A    1
 C1 
A    2
 C2 
A    3
 C3 
A    4
 O1 
A    5
 C4 
A    6
 N1 
A    7
 C5 
A    8
 C6 
A    9
 C7 
A   10
 S1 
A   11
 O2 
A   12
 O3 
A   13
 F1 
A   14
 S2 
M  END
>  <ref_pdb>  (994) 
Ax0310a

>  <ref_mols>  (994) 
Ax0446a,Ax1080a,Ax0812a,Ax0719a,Ax1140a,Ax0528a,Ax0310a

>  <original SMILES>  (994) 
CCC(=O)c1nc(C)c(S(=O)(=O)F)s1

>  <rationale>  (994) 
info info set:bb_densepocket2;hbond:S125; hydroph_interaction:V124+D109; 

>  <experiment>  (994) 
bb_densepocket2

>  <cluster_label>  (994) 
3

>  <cluster_rank>  (994) 
651

>  <N_interactions>  (994) 
3

>  <∆∆G>  (994) 
-2.55847

>  <comRMSD>  (994) 
0.634142

>  <ROCS_TanimotoCombo>  (994) 
0.625

>  <ROCS_ShapeTanimoto>  (994) 
0.202

>  <ROCS_ColorTanimoto>  (994) 
0.423

$$$$
EN300_1945321
     RDKit          3D

 17 18  0  0  0  0  0  0  0  0999 V2000
   30.2762    9.0955    8.4987 C   0  0  0  0  0  0  0  0  0  0  0  0
   31.1814    9.7537    7.5954 N   0  0  0  0  0  0  0  0  0  0  0  0
   32.2176    8.9866    7.0972 N   0  0  0  0  0  0  0  0  0  0  0  0
   33.0015    9.7540    6.2861 C   0  0  0  0  0  0  0  0  0  0  0  0
   34.2395    9.4865    5.4929 C   0  0  0  0  0  0  0  0  0  0  0  0
   34.8878   10.6298    4.6860 C   0  0  0  0  0  0  0  0  0  0  0  0
   34.1580   11.9908    4.7713 C   0  0  0  0  0  0  0  0  0  0  0  0
   32.9911   12.2827    5.4890 C   0  0  0  0  0  0  0  0  0  0  0  0
   32.3953   11.1224    6.2715 C   0  0  0  0  0  0  0  0  0  0  0  0
   31.1942   11.0538    7.1256 C   0  0  0  0  0  0  0  0  0  0  0  0
   30.4386   12.3925    7.1706 C   0  0  0  0  0  0  0  0  0  0  0  0
   30.8151   13.2879    6.2405 F   0  0  0  0  0  0  0  0  0  0  0  0
   29.1030   12.1915    6.9802 F   0  0  0  0  0  0  0  0  0  0  0  0
   30.5532   12.8828    8.5840 C   0  0  0  0  0  0  0  0  0  0  0  0
   31.9079   13.5639    8.8542 C   0  0  0  0  0  0  0  0  0  0  0  0
   33.0364   13.0812    8.7918 O   0  0  0  0  0  0  0  0  0  0  0  0
   31.7393   14.8280    9.2657 O   0  0  0  0  0  0  0  0  0  0  0  0
  1  2  1  0
  2  3  1  0
  3  4  2  0
  4  5  1  0
  5  6  2  0
  6  7  1  0
  7  8  2  0
  8  9  1  0
  9 10  2  0
 10 11  1  0
 11 12  1  0
 11 13  1  0
 11 14  1  0
 14 15  1  0
 15 16  2  0
 15 17  1  0
 10  2  1  0
  9  4  1  0
A    1
 C1 
A    2
 N1 
A    3
 N2 
A    4
 C2 
A    5
 C3 
A    6
 C4 
A    7
 C5 
A    8
 C6 
A    9
 C7 
A   10
 C8 
A   11
 C9 
A   12
 F1 
A   13
 F2 
A   14
 C10
A   15
 C11
A   16
 O1 
A   17
 O2 
M  END
>  <ref_pdb>  (995) 
Ax0310a

>  <ref_mols>  (995) 
Ax0446a,Ax1080a,Ax0812a,Ax0719a,Ax1140a,Ax0528a,Ax0310a

>  <original SMILES>  (995) 
Cn1nc2ccccc2c1C(F)(F)CC(=O)O

>  <rationale>  (995) 
info info set:bb_whole;hbond:S87+G127; hydroph_interaction:P107; 

>  <experiment>  (995) 
bb_whole

>  <cluster_label>  (995) 
3

>  <cluster_rank>  (995) 
652

>  <N_interactions>  (995) 
4

>  <∆∆G>  (995) 
-5.173503

>  <comRMSD>  (995) 
0.569456

>  <ROCS_TanimotoCombo>  (995) 
0.413

>  <ROCS_ShapeTanimoto>  (995) 
0.248

>  <ROCS_ColorTanimoto>  (995) 
0.166

$$$$
EN300_28272617
     RDKit          3D

 15 16  0  0  0  0  0  0  0  0999 V2000
   28.2209   13.5307    8.6207 C   0  0  0  0  0  0  0  0  0  0  0  0
   29.6524   13.4397    8.2159 C   0  0  0  0  0  0  0  0  0  0  0  0
   29.9109   12.3347    7.3180 O   0  0  0  0  0  0  0  0  0  0  0  0
   30.3933   11.2331    7.9299 C   0  0  0  0  0  0  0  0  0  0  0  0
   30.0279   10.7065    8.9168 O   0  0  0  0  0  0  0  0  0  0  0  0
   31.5091   10.6603    7.1688 C   0  0  0  0  0  0  0  0  0  0  0  0
   31.6025    9.1771    7.3450 C   0  0  0  0  0  0  0  0  0  0  0  0
   32.6880    8.6239    6.5904 N   0  0  0  0  0  0  0  0  0  0  0  0
   33.6188    9.3270    5.7443 C   0  0  0  0  0  0  0  0  0  0  0  0
   33.4695   10.7068    5.6336 C   0  0  0  0  0  0  0  0  0  0  0  0
   32.4057   11.5534    6.3284 C   0  0  0  0  0  0  0  0  0  0  0  0
   32.2669   13.0300    6.1986 C   0  0  0  0  0  0  0  0  0  0  0  0
   34.6034   11.0981    4.6808 C   0  0  0  0  0  0  0  0  0  0  0  0
   34.8576    9.7466    3.9813 C   0  0  0  0  0  0  0  0  0  0  0  0
   34.6726    8.7573    5.0187 N   0  0  0  0  0  0  0  0  0  0  0  0
  1  2  1  0
  2  3  1  0
  3  4  1  0
  4  5  2  0
  4  6  1  0
  6  7  2  0
  7  8  1  0
  8  9  2  0
  9 10  1  0
 10 11  2  0
 11 12  1  0
 10 13  1  0
 13 14  1  0
 14 15  1  0
 11  6  1  0
 15  9  1  0
A    1
 C1 
A    2
 C2 
A    3
 O1 
A    4
 C3 
A    5
 O2 
A    6
 C4 
A    7
 C5 
A    8
 N1 
A    9
 C6 
A   10
 C7 
A   11
 C8 
A   12
 C9 
A   13
 C10
A   14
 C11
A   15
 N2 
M  END
>  <ref_pdb>  (996) 
Ax0310a

>  <ref_mols>  (996) 
Ax0446a,Ax1080a,Ax0812a,Ax0719a,Ax1140a,Ax0528a,Ax0310a

>  <original SMILES>  (996) 
CCOC(=O)c1cnc2c(c1C)CCN2

>  <rationale>  (996) 
info info set:bb_densepocket2;hbond:S105; hydroph_interaction:P107; 

>  <experiment>  (996) 
bb_densepocket2

>  <cluster_label>  (996) 
3

>  <cluster_rank>  (996) 
653

>  <N_interactions>  (996) 
2

>  <∆∆G>  (996) 
-3.731317

>  <comRMSD>  (996) 
0.541286

>  <ROCS_TanimotoCombo>  (996) 
0.623

>  <ROCS_ShapeTanimoto>  (996) 
0.262

>  <ROCS_ColorTanimoto>  (996) 
0.361

$$$$
EN300_8638539
     RDKit          3D

 14 14  0  0  0  0  0  0  0  0999 V2000
   31.6185   12.5118    6.3628 C   0  0  0  0  0  0  0  0  0  0  0  0
   32.2643   11.3392    6.1470 N   0  0  0  0  0  0  0  0  0  0  0  0
   33.2215   11.0135    5.1302 C   0  0  0  0  0  0  0  0  0  0  0  0
   33.6130    9.5867    5.3631 C   0  0  0  0  0  0  0  0  0  0  0  0
   34.4566    8.7964    4.7165 N   0  0  0  0  0  0  0  0  0  0  0  0
   32.9170    9.1645    6.4310 N   0  0  0  0  0  0  0  0  0  0  0  0
   32.1559   10.1772    6.8704 C   0  0  0  0  0  0  0  0  0  0  0  0
   31.2702   10.0542    8.0607 C   0  0  0  0  0  0  0  0  0  0  0  0
   30.6677   11.2741    8.4841 O   0  0  0  0  0  0  0  0  0  0  0  0
   31.1899    8.8250    8.5730 O   0  0  0  0  0  0  0  0  0  0  0  0
   29.9194    8.6464    9.1147 C   0  0  0  0  0  0  0  0  0  0  0  0
   29.4083    7.4498    8.5831 C   0  0  0  0  0  0  0  0  0  0  0  0
   29.8420    8.0482   10.4028 C   0  0  0  0  0  0  0  0  0  0  0  0
   28.9613    9.7508    8.7451 C   0  0  0  0  0  0  0  0  0  0  0  0
  1  2  1  0
  2  3  1  0
  3  4  2  0
  4  5  1  0
  4  6  1  0
  6  7  2  0
  7  8  1  0
  8  9  2  0
  8 10  1  0
 10 11  1  0
 11 12  1  0
 11 13  1  0
 11 14  1  0
  7  2  1  0
A    1
 C1 
A    2
 N1 
A    3
 C2 
A    4
 C3 
A    5
 N2 
A    6
 N3 
A    7
 C4 
A    8
 C5 
A    9
 O1 
A   10
 O2 
A   11
 C6 
A   12
 C7 
A   13
 C8 
A   14
 C9 
M  END
>  <ref_pdb>  (997) 
Ax0310a

>  <ref_mols>  (997) 
Ax0446a,Ax1080a,Ax0812a,Ax0719a,Ax1140a,Ax0528a,Ax0310a

>  <original SMILES>  (997) 
Cn1cc(N)nc1C(=O)OC(C)(C)C

>  <rationale>  (997) 
info info set:bb_densepocket2;hbond:S105; hydroph_interaction:V124+D109; 

>  <experiment>  (997) 
bb_densepocket2

>  <cluster_label>  (997) 
3

>  <cluster_rank>  (997) 
654

>  <N_interactions>  (997) 
3

>  <∆∆G>  (997) 
-5.211149

>  <comRMSD>  (997) 
0.725362

>  <ROCS_TanimotoCombo>  (997) 
0.613

>  <ROCS_ShapeTanimoto>  (997) 
0.219

>  <ROCS_ColorTanimoto>  (997) 
0.393

$$$$
EN300_1295730
     RDKit          3D

 12 12  0  0  0  0  0  0  0  0999 V2000
   29.7721    8.5647   10.1639 C   0  0  0  0  0  0  0  0  0  0  0  0
   30.5676    8.3826    9.0238 C   0  0  0  0  0  0  0  0  0  0  0  0
   29.6093    7.4707    8.5505 C   0  0  0  0  0  0  0  0  0  0  0  0
   30.4697    9.5358    8.2430 O   0  0  0  0  0  0  0  0  0  0  0  0
   31.4382    9.9270    7.3939 C   0  0  0  0  0  0  0  0  0  0  0  0
   32.2917    9.0783    6.7842 N   0  0  0  0  0  0  0  0  0  0  0  0
   33.1648    9.6550    5.9327 C   0  0  0  0  0  0  0  0  0  0  0  0
   34.0385    8.8631    5.2679 F   0  0  0  0  0  0  0  0  0  0  0  0
   33.2815   11.1542    5.6230 C   0  0  0  0  0  0  0  0  0  0  0  0
   32.3015   12.0266    6.3662 C   0  0  0  0  0  0  0  0  0  0  0  0
   31.3569   11.3032    7.2826 C   0  0  0  0  0  0  0  0  0  0  0  0
   30.3939   12.0349    8.0137 N   0  0  0  0  0  0  0  0  0  0  0  0
  1  2  1  0
  2  3  1  0
  2  4  1  0
  4  5  1  0
  5  6  2  0
  6  7  1  0
  7  8  1  0
  7  9  2  0
  9 10  1  0
 10 11  2  0
 11 12  1  0
 11  5  1  0
A    1
 C1 
A    2
 C2 
A    3
 C3 
A    4
 O1 
A    5
 C4 
A    6
 N1 
A    7
 C5 
A    8
 F1 
A    9
 C6 
A   10
 C7 
A   11
 C8 
A   12
 N2 
M  END
>  <ref_pdb>  (998) 
Ax0310a

>  <ref_mols>  (998) 
Ax0446a,Ax1080a,Ax0812a,Ax0719a,Ax1140a,Ax0528a,Ax0310a

>  <original SMILES>  (998) 
CC(C)Oc1nc(F)ccc1N

>  <rationale>  (998) 
info info set:bb_densepocket2;hbond:S125; hydroph_interaction:V124+D109; 

>  <experiment>  (998) 
bb_densepocket2

>  <cluster_label>  (998) 
3

>  <cluster_rank>  (998) 
655

>  <N_interactions>  (998) 
3

>  <∆∆G>  (998) 
-1.69917

>  <comRMSD>  (998) 
0.658382

>  <ROCS_TanimotoCombo>  (998) 
0.629

>  <ROCS_ShapeTanimoto>  (998) 
0.217

>  <ROCS_ColorTanimoto>  (998) 
0.413

$$$$
Z1005547924
     RDKit          3D

 17 18  0  0  0  0  0  0  0  0999 V2000
   35.7215    9.9061    4.1374 C   0  0  0  0  0  0  0  0  0  0  0  0
   34.5857   10.3173    4.9853 C   0  0  0  0  0  0  0  0  0  0  0  0
   34.1846   11.6184    5.2103 C   0  0  0  0  0  0  0  0  0  0  0  0
   33.1005   11.7676    6.0271 C   0  0  0  0  0  0  0  0  0  0  0  0
   32.6133   10.5462    6.4776 C   0  0  0  0  0  0  0  0  0  0  0  0
   31.5373   10.3948    7.3177 C   0  0  0  0  0  0  0  0  0  0  0  0
   31.1228   11.5934    7.8952 C   0  0  0  0  0  0  0  0  0  0  0  0
   31.9601   12.3655    8.3192 O   0  0  0  0  0  0  0  0  0  0  0  0
   29.8207   11.8137    7.9499 N   0  0  0  0  0  0  0  0  0  0  0  0
   29.5711   13.1517    8.1730 C   0  0  0  0  0  0  0  0  0  0  0  0
   30.6344   13.8705    8.7409 C   0  0  0  0  0  0  0  0  0  0  0  0
   31.5041   14.4384    9.2742 N   0  0  0  0  0  0  0  0  0  0  0  0
   29.1022   13.7473    6.8433 C   0  0  0  0  0  0  0  0  0  0  0  0
   28.2848   14.9474    7.2451 C   0  0  0  0  0  0  0  0  0  0  0  0
   28.1001   14.8275    8.7412 C   0  0  0  0  0  0  0  0  0  0  0  0
   28.2604   13.4253    8.9215 C   0  0  0  0  0  0  0  0  0  0  0  0
   33.5410    9.2573    5.8471 S   0  0  0  0  0  0  0  0  0  0  0  0
  1  2  1  0
  2  3  2  0
  3  4  1  0
  4  5  2  0
  5  6  1  0
  6  7  1  0
  7  8  2  0
  7  9  1  0
  9 10  1  0
 10 11  1  0
 11 12  3  0
 10 13  1  0
 13 14  1  0
 14 15  1  0
 15 16  1  0
  5 17  1  0
 17  2  1  0
 16 10  1  0
A    1
 C1 
A    2
 C2 
A    3
 C3 
A    4
 C4 
A    5
 C5 
A    6
 C6 
A    7
 C7 
A    8
 O1 
A    9
 N1 
A   10
 C8 
A   11
 C9 
A   12
 N2 
A   13
 C10
A   14
 C11
A   15
 C12
A   16
 C13
A   17
 S1 
M  END
>  <ref_pdb>  (999) 
Ax0310a

>  <ref_mols>  (999) 
Ax0446a,Ax1080a,Ax0812a,Ax0719a,Ax1140a,Ax0528a,Ax0310a

>  <original SMILES>  (999) 
Cc1ccc(CC(=O)NC2(C#N)CCCC2)s1

>  <rationale>  (999) 
info info set:3d;hbond:S87+G127; hydroph_interaction:Y89+Y90; 

>  <experiment>  (999) 
3d

>  <cluster_label>  (999) 
3

>  <cluster_rank>  (999) 
656

>  <N_interactions>  (999) 
4

>  <∆∆G>  (999) 
-4.472963

>  <comRMSD>  (999) 
0.968826

>  <ROCS_TanimotoCombo>  (999) 
0.303

>  <ROCS_ShapeTanimoto>  (999) 
0.19

>  <ROCS_ColorTanimoto>  (999) 
0.113

$$$$
EN300_801232
     RDKit          3D

 16 17  0  0  0  0  0  0  0  0999 V2000
   28.7674    9.0039    8.2519 C   0  0  0  0  0  0  0  0  0  0  0  0
   30.2130    8.9379    8.2406 C   0  0  0  0  0  0  0  0  0  0  0  0
   30.2461    9.2709    9.5651 C   0  0  0  0  0  0  0  0  0  0  0  0
   30.6913    7.6358    8.3874 C   0  0  0  0  0  0  0  0  0  0  0  0
   31.1720    9.8749    7.4738 C   0  0  0  0  0  0  0  0  0  0  0  0
   32.1323    9.2852    6.6607 N   0  0  0  0  0  0  0  0  0  0  0  0
   33.1051   10.0782    5.9058 C   0  0  0  0  0  0  0  0  0  0  0  0
   34.1671    9.4469    4.9884 C   0  0  0  0  0  0  0  0  0  0  0  0
   34.3854    8.2075    4.7114 F   0  0  0  0  0  0  0  0  0  0  0  0
   35.1215   10.3711    4.2750 C   0  0  0  0  0  0  0  0  0  0  0  0
   35.0380   11.8728    4.4488 C   0  0  0  0  0  0  0  0  0  0  0  0
   34.0531   12.3621    5.2807 C   0  0  0  0  0  0  0  0  0  0  0  0
   33.0702   11.4541    6.0196 C   0  0  0  0  0  0  0  0  0  0  0  0
   32.0023   12.0596    6.9136 C   0  0  0  0  0  0  0  0  0  0  0  0
   31.0965   11.2619    7.5998 C   0  0  0  0  0  0  0  0  0  0  0  0
   30.1600   11.8983    8.3750 O   0  0  0  0  0  0  0  0  0  0  0  0
  1  2  1  0
  2  3  1  0
  2  4  1  0
  2  5  1  0
  5  6  2  0
  6  7  1  0
  7  8  2  0
  8  9  1  0
  8 10  1  0
 10 11  2  0
 11 12  1  0
 12 13  2  0
 13 14  1  0
 14 15  2  0
 15 16  1  0
 15  5  1  0
 13  7  1  0
A    1
 C1 
A    2
 C2 
A    3
 C3 
A    4
 C4 
A    5
 C5 
A    6
 N1 
A    7
 C6 
A    8
 C7 
A    9
 F1 
A   10
 C8 
A   11
 C9 
A   12
 C10
A   13
 C11
A   14
 C12
A   15
 C13
A   16
 O1 
M  END
>  <ref_pdb>  (1000) 
Ax0310a

>  <ref_mols>  (1000) 
Ax0446a,Ax1080a,Ax0812a,Ax0719a,Ax1140a,Ax0528a,Ax0310a

>  <original SMILES>  (1000) 
CC(C)(C)c1nc2c(F)cccc2cc1O

>  <rationale>  (1000) 
info info set:bb_densepocket2;hbond:S125; 

>  <experiment>  (1000) 
bb_densepocket2

>  <cluster_label>  (1000) 
3

>  <cluster_rank>  (1000) 
657

>  <N_interactions>  (1000) 
1

>  <∆∆G>  (1000) 
-3.384601

>  <comRMSD>  (1000) 
0.825119

>  <ROCS_TanimotoCombo>  (1000) 
0.618

>  <ROCS_ShapeTanimoto>  (1000) 
0.271

>  <ROCS_ColorTanimoto>  (1000) 
0.347

$$$$
Z52587524
     RDKit          3D

 23 26  0  0  0  0  0  0  0  0999 V2000
   33.8307   14.3026    9.2938 C   0  0  0  0  0  0  0  0  0  0  0  0
   32.4767   14.6882    9.7279 C   0  0  0  0  0  0  0  0  0  0  0  0
   31.5439   13.8349    9.0860 O   0  0  0  0  0  0  0  0  0  0  0  0
   30.2677   14.2226    8.7784 C   0  0  0  0  0  0  0  0  0  0  0  0
   29.3698   15.0470    9.6398 C   0  0  0  0  0  0  0  0  0  0  0  0
   27.9034   15.4862    9.2843 C   0  0  0  0  0  0  0  0  0  0  0  0
   27.6192   14.8670    7.8583 C   0  0  0  0  0  0  0  0  0  0  0  0
   28.5265   14.1189    7.1480 C   0  0  0  0  0  0  0  0  0  0  0  0
   29.7772   13.8105    7.5736 C   0  0  0  0  0  0  0  0  0  0  0  0
   30.5246   13.1545    6.9285 O   0  0  0  0  0  0  0  0  0  0  0  0
   30.4467   11.8755    7.3436 C   0  0  0  0  0  0  0  0  0  0  0  0
   29.3990   11.5322    8.1205 N   0  0  0  0  0  0  0  0  0  0  0  0
   29.3265   10.2650    8.5291 C   0  0  0  0  0  0  0  0  0  0  0  0
   30.1573    9.2821    8.2486 N   0  0  0  0  0  0  0  0  0  0  0  0
   31.1532    9.7111    7.4622 C   0  0  0  0  0  0  0  0  0  0  0  0
   32.3061    8.6530    6.9371 S   0  0  0  0  0  0  0  0  0  0  0  0
   33.1205    9.8500    6.0862 C   0  0  0  0  0  0  0  0  0  0  0  0
   32.6327   11.0662    6.1388 C   0  0  0  0  0  0  0  0  0  0  0  0
   31.3878   10.9763    6.9748 C   0  0  0  0  0  0  0  0  0  0  0  0
   32.7935   12.4521    5.7227 C   0  0  0  0  0  0  0  0  0  0  0  0
   34.3306   12.4991    5.5511 C   0  0  0  0  0  0  0  0  0  0  0  0
   34.9797   11.1699    4.9237 C   0  0  0  0  0  0  0  0  0  0  0  0
   34.3310    9.7361    5.2548 C   0  0  0  0  0  0  0  0  0  0  0  0
  1  2  1  0
  2  3  1  0
  3  4  1  0
  4  5  2  0
  5  6  1  0
  6  7  2  0
  7  8  1  0
  8  9  2  0
  9 10  1  0
 10 11  1  0
 11 12  2  0
 12 13  1  0
 13 14  2  0
 14 15  1  0
 15 16  1  0
 16 17  1  0
 17 18  2  0
 18 19  1  0
 18 20  1  0
 20 21  1  0
 21 22  1  0
 22 23  1  0
  9  4  1  0
 19 11  1  0
 19 15  2  0
 23 17  1  0
A    1
 C1 
A    2
 C2 
A    3
 O1 
A    4
 C3 
A    5
 C4 
A    6
 C5 
A    7
 C6 
A    8
 C7 
A    9
 C8 
A   10
 O2 
A   11
 C9 
A   12
 N1 
A   13
 C10
A   14
 N2 
A   15
 C11
A   16
 S1 
A   17
 C12
A   18
 C13
A   19
 C14
A   20
 C15
A   21
 C16
A   22
 C17
A   23
 C18
M  END
>  <ref_pdb>  (1001) 
Ax0310a

>  <ref_mols>  (1001) 
Ax0446a,Ax1080a,Ax0812a,Ax0719a,Ax1140a,Ax0528a,Ax0310a

>  <original SMILES>  (1001) 
CCOc1ccccc1Oc1ncnc2sc3c(c12)CCCC3

>  <rationale>  (1001) 
info info set:screening_whole;hbond:S87; hydroph_interaction:P107+Y89+Y90+V84; 

>  <experiment>  (1001) 
screening_whole

>  <cluster_label>  (1001) 
3

>  <cluster_rank>  (1001) 
658

>  <N_interactions>  (1001) 
5

>  <∆∆G>  (1001) 
-5.500377

>  <comRMSD>  (1001) 
0.692432

>  <ROCS_TanimotoCombo>  (1001) 
0.456

>  <ROCS_ShapeTanimoto>  (1001) 
0.265

>  <ROCS_ColorTanimoto>  (1001) 
0.191

$$$$
Z282312156
     RDKit          3D

 18 19  0  0  0  0  0  0  0  0999 V2000
   35.1953   10.8011    4.6131 C   0  0  0  0  0  0  0  0  0  0  0  0
   34.5082    9.2248    5.0630 S   0  0  0  0  0  0  0  0  0  0  0  0
   33.1839    9.8038    6.0858 C   0  0  0  0  0  0  0  0  0  0  0  0
   32.3518    8.9385    6.7381 C   0  0  0  0  0  0  0  0  0  0  0  0
   31.3122    9.3220    7.5197 C   0  0  0  0  0  0  0  0  0  0  0  0
   31.0929   10.6648    7.6642 C   0  0  0  0  0  0  0  0  0  0  0  0
   30.0705   11.0242    8.4149 C   0  0  0  0  0  0  0  0  0  0  0  0
   31.9174   11.5444    7.0419 C   0  0  0  0  0  0  0  0  0  0  0  0
   31.6068   12.9950    7.2818 C   0  0  0  0  0  0  0  0  0  0  0  0
   30.4592   13.3766    7.0809 O   0  0  0  0  0  0  0  0  0  0  0  0
   32.7413   13.8247    7.7430 N   0  0  0  0  0  0  0  0  0  0  0  0
   33.8436   13.7246    6.7749 C   0  0  0  0  0  0  0  0  0  0  0  0
   34.9017   14.7777    6.9529 C   0  0  0  0  0  0  0  0  0  0  0  0
   35.2366   14.9117    8.3375 N   0  0  0  0  0  0  0  0  0  0  0  0
   34.7405   14.0536    9.2283 C   0  0  0  0  0  0  0  0  0  0  0  0
   35.5497   13.4675   10.2650 O   0  0  0  0  0  0  0  0  0  0  0  0
   33.2742   13.6754    9.1080 C   0  0  0  0  0  0  0  0  0  0  0  0
   32.9708   11.1515    6.2406 C   0  0  0  0  0  0  0  0  0  0  0  0
  1  2  1  0
  2  3  1  0
  3  4  2  0
  4  5  1  0
  5  6  2  0
  6  7  1  0
  6  8  1  0
  8  9  1  0
  9 10  2  0
  9 11  1  0
 11 12  1  0
 12 13  1  0
 13 14  1  0
 14 15  1  0
 15 16  2  0
 15 17  1  0
  8 18  2  0
 18  3  1  0
 17 11  1  0
A    1
 C1 
A    2
 S1 
A    3
 C2 
A    4
 C3 
A    5
 C4 
A    6
 C5 
A    7
 C6 
A    8
 C7 
A    9
 C8 
A   10
 O1 
A   11
 N1 
A   12
 C9 
A   13
 C10
A   14
 N2 
A   15
 C11
A   16
 O2 
A   17
 C12
A   18
 C13
M  END
>  <ref_pdb>  (1002) 
Ax0310a

>  <ref_mols>  (1002) 
Ax0446a,Ax1080a,Ax0812a,Ax0719a,Ax1140a,Ax0528a,Ax0310a

>  <original SMILES>  (1002) 
CSc1ccc(C)c(C(=O)N2CCNC(=O)C2)c1

>  <rationale>  (1002) 
info info set:3d;hbond:S87+G127+E85; 

>  <experiment>  (1002) 
3d

>  <cluster_label>  (1002) 
3

>  <cluster_rank>  (1002) 
659

>  <N_interactions>  (1002) 
3

>  <∆∆G>  (1002) 
-5.826818

>  <comRMSD>  (1002) 
0.799729

>  <ROCS_TanimotoCombo>  (1002) 
0.306

>  <ROCS_ShapeTanimoto>  (1002) 
0.207

>  <ROCS_ColorTanimoto>  (1002) 
0.098

$$$$
Z2302773997
     RDKit          3D

 19 20  0  0  0  0  0  0  0  0999 V2000
   32.8910   13.0195    5.2763 C   0  0  0  0  0  0  0  0  0  0  0  0
   32.7973   11.5843    5.7344 C   0  0  0  0  0  0  0  0  0  0  0  0
   33.6958   10.7403    5.1979 N   0  0  0  0  0  0  0  0  0  0  0  0
   33.6417    9.3716    5.6071 C   0  0  0  0  0  0  0  0  0  0  0  0
   34.5816    8.5923    5.0240 O   0  0  0  0  0  0  0  0  0  0  0  0
   32.7927    8.8539    6.4621 N   0  0  0  0  0  0  0  0  0  0  0  0
   31.9049    9.6885    6.9891 C   0  0  0  0  0  0  0  0  0  0  0  0
   31.0905    8.9947    7.8624 O   0  0  0  0  0  0  0  0  0  0  0  0
   31.6730   11.2426    6.7742 C   0  0  0  0  0  0  0  0  0  0  0  0
   30.7241   12.0229    7.3714 N   0  0  0  0  0  0  0  0  0  0  0  0
   29.9210   11.6192    8.3118 C   0  0  0  0  0  0  0  0  0  0  0  0
   30.0975   10.5842    8.9406 O   0  0  0  0  0  0  0  0  0  0  0  0
   28.7222   12.4957    8.5325 C   0  0  0  0  0  0  0  0  0  0  0  0
   28.8601   13.8490    8.4286 N   0  0  0  0  0  0  0  0  0  0  0  0
   29.4718   14.6881    9.2808 C   0  0  0  0  0  0  0  0  0  0  0  0
   29.2237   15.9820    8.5709 C   0  0  0  0  0  0  0  0  0  0  0  0
   28.5473   15.7477    7.4421 N   0  0  0  0  0  0  0  0  0  0  0  0
   28.3298   14.4813    7.3773 C   0  0  0  0  0  0  0  0  0  0  0  0
   27.5992   13.7421    6.3216 C   0  0  0  0  0  0  0  0  0  0  0  0
  1  2  1  0
  2  3  2  0
  3  4  1  0
  4  5  1  0
  4  6  2  0
  6  7  1  0
  7  8  1  0
  7  9  2  0
  9 10  1  0
 10 11  1  0
 11 12  2  0
 11 13  1  0
 13 14  1  0
 14 15  1  0
 15 16  2  0
 16 17  1  0
 17 18  2  0
 18 19  1  0
  9  2  1  0
 18 14  1  0
A    1
 C1 
A    2
 C2 
A    3
 N1 
A    4
 C3 
A    5
 O1 
A    6
 N2 
A    7
 C4 
A    8
 O2 
A    9
 C5 
A   10
 N3 
A   11
 C6 
A   12
 O3 
A   13
 C7 
A   14
 N4 
A   15
 C8 
A   16
 C9 
A   17
 N5 
A   18
 C10
A   19
 C11
M  END
>  <ref_pdb>  (1003) 
Ax0310a

>  <ref_mols>  (1003) 
Ax0446a,Ax1080a,Ax0812a,Ax0719a,Ax1140a,Ax0528a,Ax0310a

>  <original SMILES>  (1003) 
Cc1nc(O)nc(O)c1NC(=O)Cn1ccnc1C

>  <rationale>  (1003) 
info info set:screening_pocket;hbond:S105; hydroph_interaction:Y89; pistack:H21; 

>  <experiment>  (1003) 
screening_pocket

>  <cluster_label>  (1003) 
3

>  <cluster_rank>  (1003) 
660

>  <N_interactions>  (1003) 
3

>  <∆∆G>  (1003) 
-0.700174

>  <comRMSD>  (1003) 
0.713528

>  <ROCS_TanimotoCombo>  (1003) 
0.699

>  <ROCS_ShapeTanimoto>  (1003) 
0.259

>  <ROCS_ColorTanimoto>  (1003) 
0.44

$$$$
Z875665466
     RDKit          3D

 18 19  0  0  0  0  0  0  0  0999 V2000
   31.1683   14.3238    9.5053 C   0  0  0  0  0  0  0  0  0  0  0  0
   29.7836   14.3781    8.9142 C   0  0  0  0  0  0  0  0  0  0  0  0
   28.8297   15.3662    9.2912 N   0  0  0  0  0  0  0  0  0  0  0  0
   27.5731   15.1606    8.5743 C   0  0  0  0  0  0  0  0  0  0  0  0
   27.5126   13.8536    7.4467 S   0  0  0  0  0  0  0  0  0  0  0  0
   29.1925   13.4284    7.8819 C   0  0  0  0  0  0  0  0  0  0  0  0
   30.0920   12.2547    7.3961 C   0  0  0  0  0  0  0  0  0  0  0  0
   30.7286   12.3077    6.3481 O   0  0  0  0  0  0  0  0  0  0  0  0
   30.0888   11.1579    8.1857 N   0  0  0  0  0  0  0  0  0  0  0  0
   31.1248   10.3292    8.1358 C   0  0  0  0  0  0  0  0  0  0  0  0
   30.9020    9.0501    8.9276 C   0  0  0  0  0  0  0  0  0  0  0  0
   31.0601    9.2762    7.1732 C   0  0  0  0  0  0  0  0  0  0  0  0
   32.3126   10.9209    7.3358 C   0  0  0  0  0  0  0  0  0  0  0  0
   32.8633   12.3132    7.6667 C   0  0  0  0  0  0  0  0  0  0  0  0
   34.0240   12.6429    6.6963 C   0  0  0  0  0  0  0  0  0  0  0  0
   34.3563   11.5511    5.6620 C   0  0  0  0  0  0  0  0  0  0  0  0
   33.8155   10.2981    5.4138 C   0  0  0  0  0  0  0  0  0  0  0  0
   32.7948   10.0747    6.3075 C   0  0  0  0  0  0  0  0  0  0  0  0
  1  2  1  0
  2  3  1  0
  3  4  2  0
  4  5  1  0
  5  6  1  0
  6  7  1  0
  7  8  2  0
  7  9  1  0
  9 10  1  0
 10 11  1  0
 10 12  1  0
 10 13  1  0
 13 14  2  0
 14 15  1  0
 15 16  2  0
 16 17  1  0
 17 18  2  0
  6  2  2  0
 18 13  1  0
A    1
 C1 
A    2
 C2 
A    3
 N1 
A    4
 C3 
A    5
 S1 
A    6
 C4 
A    7
 C5 
A    8
 O1 
A    9
 N2 
A   10
 C6 
A   11
 C7 
A   12
 C8 
A   13
 C9 
A   14
 C10
A   15
 C11
A   16
 C12
A   17
 C13
A   18
 C14
M  END
>  <ref_pdb>  (1004) 
Ax0310a

>  <ref_mols>  (1004) 
Ax0446a,Ax1080a,Ax0812a,Ax0719a,Ax1140a,Ax0528a,Ax0310a

>  <original SMILES>  (1004) 
Cc1ncsc1C(=O)NC(C)(C)c1ccccc1

>  <rationale>  (1004) 
info info set:3d;hbond:S125; hydroph_interaction:V124; 

>  <experiment>  (1004) 
3d

>  <cluster_label>  (1004) 
3

>  <cluster_rank>  (1004) 
661

>  <N_interactions>  (1004) 
2

>  <∆∆G>  (1004) 
-6.306095

>  <comRMSD>  (1004) 
0.665334

>  <ROCS_TanimotoCombo>  (1004) 
0.324

>  <ROCS_ShapeTanimoto>  (1004) 
0.22

>  <ROCS_ColorTanimoto>  (1004) 
0.103

$$$$
EN300_188022
     RDKit          3D

 15 15  0  0  0  0  0  0  0  0999 V2000
   35.5916   13.3633    5.9467 C   0  0  0  0  0  0  0  0  0  0  0  0
   34.3775   12.7956    5.4599 O   0  0  0  0  0  0  0  0  0  0  0  0
   34.2385   11.4386    5.5349 C   0  0  0  0  0  0  0  0  0  0  0  0
   35.0483   10.6896    5.0036 O   0  0  0  0  0  0  0  0  0  0  0  0
   33.1691   10.8763    6.2265 C   0  0  0  0  0  0  0  0  0  0  0  0
   33.1108    9.4858    6.3740 C   0  0  0  0  0  0  0  0  0  0  0  0
   32.0726    8.8751    7.0739 C   0  0  0  0  0  0  0  0  0  0  0  0
   31.0407    9.6565    7.6407 C   0  0  0  0  0  0  0  0  0  0  0  0
   31.0961   11.0745    7.4664 C   0  0  0  0  0  0  0  0  0  0  0  0
   29.9746   11.7296    8.0534 C   0  0  0  0  0  0  0  0  0  0  0  0
   30.2136   13.4859    8.1602 S   0  0  0  0  0  6  0  0  0  0  0  0
   29.0525   13.9372    9.2848 N   0  0  0  0  0  0  0  0  0  0  0  0
   31.4884   13.8572    8.7435 O   0  0  0  0  0  0  0  0  0  0  0  0
   29.7290   13.9860    6.9023 O   0  0  0  0  0  0  0  0  0  0  0  0
   32.1508   11.6744    6.7767 C   0  0  0  0  0  0  0  0  0  0  0  0
  1  2  1  0
  2  3  1  0
  3  4  2  0
  3  5  1  0
  5  6  2  0
  6  7  1  0
  7  8  2  0
  8  9  1  0
  9 10  1  0
 10 11  1  0
 11 12  1  0
 11 13  2  0
 11 14  2  0
  9 15  2  0
 15  5  1  0
A    1
 C1 
A    2
 O1 
A    3
 C2 
A    4
 O2 
A    5
 C3 
A    6
 C4 
A    7
 C5 
A    8
 C6 
A    9
 C7 
A   10
 C8 
A   11
 S1 
A   12
 N1 
A   13
 O3 
A   14
 O4 
A   15
 C9 
M  END
>  <ref_pdb>  (1005) 
Ax0310a

>  <ref_mols>  (1005) 
Ax0446a,Ax1080a,Ax0812a,Ax0719a,Ax1140a,Ax0528a,Ax0310a

>  <original SMILES>  (1005) 
COC(=O)c1cccc(CS(N)(=O)=O)c1

>  <rationale>  (1005) 
info info set:sulfonimide_whole;hbond:S87+S125; 

>  <experiment>  (1005) 
sulfonimide_whole

>  <cluster_label>  (1005) 
3

>  <cluster_rank>  (1005) 
662

>  <N_interactions>  (1005) 
2

>  <∆∆G>  (1005) 
-6.334027

>  <comRMSD>  (1005) 
0.668931

>  <ROCS_TanimotoCombo>  (1005) 
0.343

>  <ROCS_ShapeTanimoto>  (1005) 
0.202

>  <ROCS_ColorTanimoto>  (1005) 
0.141

$$$$
Z395992752
     RDKit          3D

 18 19  0  0  0  0  0  0  0  0999 V2000
   35.9687    9.1347    3.3472 C   0  0  0  0  0  0  0  0  0  0  0  0
   34.8832    9.5597    4.2748 C   0  0  0  0  0  0  0  0  0  0  0  0
   34.3749   10.7687    4.4522 C   0  0  0  0  0  0  0  0  0  0  0  0
   33.3543   10.7743    5.4161 C   0  0  0  0  0  0  0  0  0  0  0  0
   32.6207   11.7722    5.8532 C   0  0  0  0  0  0  0  0  0  0  0  0
   31.5771   11.4493    6.9104 C   0  0  0  0  0  0  0  0  0  0  0  0
   30.7127   12.4086    7.4637 N   0  0  0  0  0  0  0  0  0  0  0  0
   29.8355   12.0306    8.4117 C   0  0  0  0  0  0  0  0  0  0  0  0
   29.9053   10.8803    8.8292 O   0  0  0  0  0  0  0  0  0  0  0  0
   28.7727   13.0584    8.8567 C   0  0  0  0  0  0  0  0  0  0  0  0
   29.2344   14.2373   10.2002 S   0  0  0  0  0  0  0  0  0  0  0  0
   30.0859   15.1937    9.0204 C   0  0  0  0  0  0  0  0  0  0  0  0
   29.0621   15.3160    7.9138 C   0  0  0  0  0  0  0  0  0  0  0  0
   28.3141   15.3324    7.0561 N   0  0  0  0  0  0  0  0  0  0  0  0
   31.4788   10.1074    7.3491 C   0  0  0  0  0  0  0  0  0  0  0  0
   32.3045    9.1052    6.8298 C   0  0  0  0  0  0  0  0  0  0  0  0
   33.2356    9.4757    5.8586 C   0  0  0  0  0  0  0  0  0  0  0  0
   34.1836    8.7468    5.1444 N   0  0  0  0  0  0  0  0  0  0  0  0
  1  2  1  0
  2  3  2  0
  3  4  1  0
  4  5  2  0
  5  6  1  0
  6  7  1  0
  7  8  1  0
  8  9  2  0
  8 10  1  0
 10 11  1  0
 11 12  1  0
 12 13  1  0
 13 14  3  0
  6 15  2  0
 15 16  1  0
 16 17  2  0
 17 18  1  0
 18  2  1  0
 17  4  1  0
A    1
 C1 
A    2
 C2 
A    3
 C3 
A    4
 C4 
A    5
 C5 
A    6
 C6 
A    7
 N1 
A    8
 C7 
A    9
 O1 
A   10
 C8 
A   11
 S1 
A   12
 C9 
A   13
 C10
A   14
 N2 
A   15
 C11
A   16
 C12
A   17
 C13
A   18
 N3 
M  END
>  <ref_pdb>  (1006) 
Ax0310a

>  <ref_mols>  (1006) 
Ax0446a,Ax1080a,Ax0812a,Ax0719a,Ax1140a,Ax0528a,Ax0310a

>  <original SMILES>  (1006) 
Cc1cc2cc(NC(=O)CSCC#N)ccc2[nH]1

>  <rationale>  (1006) 
info info set:screening_pocket;hbond:S87; hydroph_interaction:P107; 

>  <experiment>  (1006) 
screening_pocket

>  <cluster_label>  (1006) 
3

>  <cluster_rank>  (1006) 
663

>  <N_interactions>  (1006) 
3

>  <∆∆G>  (1006) 
-1.255251

>  <comRMSD>  (1006) 
0.691511

>  <ROCS_TanimotoCombo>  (1006) 
0.652

>  <ROCS_ShapeTanimoto>  (1006) 
0.247

>  <ROCS_ColorTanimoto>  (1006) 
0.405

$$$$
EN300_7511690
     RDKit          3D

 15 16  0  0  0  0  0  0  0  0999 V2000
   28.6506   14.3523    9.0970 C   0  0  0  0  0  0  0  0  0  0  0  0
   29.9873   13.7839    8.0782 S   0  0  0  0  0  6  0  0  0  0  0  0
   29.6425   13.9327    6.6829 O   0  0  0  0  0  0  0  0  0  0  0  0
   31.2304   14.2459    8.6652 O   0  0  0  0  0  0  0  0  0  0  0  0
   29.9936   12.1685    8.3746 N   0  0  0  0  0  0  0  0  0  0  0  0
   31.0275   11.3654    7.9161 C   0  0  1  0  0  0  0  0  0  0  0  0
   30.6523    9.9097    8.1971 C   0  0  0  0  0  0  0  0  0  0  0  0
   31.6105    8.9641    7.5336 C   0  0  0  0  0  0  0  0  0  0  0  0
   32.3452    9.4003    6.3680 O   0  0  0  0  0  0  0  0  0  0  0  0
   32.4308   10.7822    5.9592 C   0  0  0  0  0  0  0  0  0  0  0  0
   33.2010   10.9097    4.5422 C   0  0  0  0  0  0  0  0  0  0  0  0
   34.3731   11.8351    4.5278 C   0  0  0  0  0  0  0  0  0  0  0  0
   34.2480   12.4494    5.8792 C   0  0  0  0  0  0  0  0  0  0  0  0
   33.6037   11.3025    6.6532 C   0  0  0  0  0  0  0  0  0  0  0  0
   31.2964   11.6863    6.4564 C   0  0  0  0  0  0  0  0  0  0  0  0
  1  2  1  0
  2  3  2  0
  2  4  2  0
  2  5  1  0
  6  5  1  6
  6  7  1  0
  7  8  1  0
  8  9  1  0
  9 10  1  0
 10 11  1  0
 11 12  1  0
 12 13  1  0
 13 14  1  0
 10 15  1  0
 15  6  1  0
 14 10  1  0
A    1
 C1 
A    2
 S1 
A    3
 O1 
A    4
 O2 
A    5
 N1 
A    6
 C2 
A    7
 C3 
A    8
 C4 
A    9
 O3 
A   10
 C5 
A   11
 C6 
A   12
 C7 
A   13
 C8 
A   14
 C9 
A   15
 C10
M  END
>  <ref_pdb>  (1007) 
Ax0310a

>  <ref_mols>  (1007) 
Ax0446a,Ax1080a,Ax0812a,Ax0719a,Ax1140a,Ax0528a,Ax0310a

>  <original SMILES>  (1007) 
CS(=O)(=O)N[C@H]1CCOC2(CCCC2)C1

>  <rationale>  (1007) 
info info set:sulfonimide_whole;hbond:S87; 

>  <experiment>  (1007) 
sulfonimide_whole

>  <cluster_label>  (1007) 
3

>  <cluster_rank>  (1007) 
664

>  <N_interactions>  (1007) 
1

>  <∆∆G>  (1007) 
-1.014481

>  <comRMSD>  (1007) 
0.774179

>  <ROCS_TanimotoCombo>  (1007) 
0.358

>  <ROCS_ShapeTanimoto>  (1007) 
0.199

>  <ROCS_ColorTanimoto>  (1007) 
0.159

$$$$
EN300_28300713
     RDKit          3D

 17 17  0  0  0  0  0  0  0  0999 V2000
   32.2838   13.3465    5.5145 C   0  0  0  0  0  0  0  0  0  0  0  0
   32.3457   11.8914    5.9105 C   0  0  0  0  0  0  0  0  0  0  0  0
   33.4379   11.1375    5.2148 C   0  0  0  0  0  0  0  0  0  0  0  0
   33.4742    9.6947    5.6218 C   0  0  0  0  0  0  0  0  0  0  0  0
   34.6723    8.7389    4.8735 Cl  0  0  0  0  0  0  0  0  0  0  0  0
   32.6050    9.1498    6.5424 N   0  0  0  0  0  0  0  0  0  0  0  0
   31.6490    9.9546    7.1072 C   0  0  0  0  0  0  0  0  0  0  0  0
   30.4626    8.8518    8.4816 I   0  0  0  0  0  0  0  0  0  0  0  0
   31.4858   11.3255    6.8088 C   0  0  0  0  0  0  0  0  0  0  0  0
   30.5026   12.1521    7.3654 N   0  0  0  0  0  0  0  0  0  0  0  0
   29.9524   11.8066    8.4715 C   0  0  0  0  0  0  0  0  0  0  0  0
   30.2506   10.7532    8.9728 O   0  0  0  0  0  0  0  0  0  0  0  0
   29.0406   12.7499    8.9344 O   0  0  0  0  0  0  0  0  0  0  0  0
   29.3380   14.0475    9.5817 C   0  0  0  0  0  0  0  0  0  0  0  0
   28.4757   15.0040    8.7434 C   0  0  0  0  0  0  0  0  0  0  0  0
   30.8260   14.4037    9.4902 C   0  0  0  0  0  0  0  0  0  0  0  0
   28.8365   14.2166   11.0369 C   0  0  0  0  0  0  0  0  0  0  0  0
  1  2  1  0
  2  3  2  0
  3  4  1  0
  4  5  1  0
  4  6  2  0
  6  7  1  0
  7  8  1  0
  7  9  2  0
  9 10  1  0
 10 11  1  0
 11 12  2  0
 11 13  1  0
 13 14  1  0
 14 15  1  0
 14 16  1  0
 14 17  1  0
  9  2  1  0
A    1
 C1 
A    2
 C2 
A    3
 C3 
A    4
 C4 
A    5
CL1 
A    6
 N1 
A    7
 C5 
A    8
 I1 
A    9
 C6 
A   10
 N2 
A   11
 C7 
A   12
 O1 
A   13
 O2 
A   14
 C8 
A   15
 C9 
A   16
 C10
A   17
 C11
M  END
>  <ref_pdb>  (1008) 
Ax0310a

>  <ref_mols>  (1008) 
Ax0446a,Ax1080a,Ax0812a,Ax0719a,Ax1140a,Ax0528a,Ax0310a

>  <original SMILES>  (1008) 
Cc1cc(Cl)nc(I)c1NC(=O)OC(C)(C)C

>  <rationale>  (1008) 
info info set:bb_densepocket2;hydroph_interaction:P107+Y90; 

>  <experiment>  (1008) 
bb_densepocket2

>  <cluster_label>  (1008) 
3

>  <cluster_rank>  (1008) 
665

>  <N_interactions>  (1008) 
3

>  <∆∆G>  (1008) 
-2.254889

>  <comRMSD>  (1008) 
0.899462

>  <ROCS_TanimotoCombo>  (1008) 
0.615

>  <ROCS_ShapeTanimoto>  (1008) 
0.224

>  <ROCS_ColorTanimoto>  (1008) 
0.391

$$$$
EN300_801013
     RDKit          3D

 15 16  0  0  0  0  0  0  0  0999 V2000
   30.6567    7.5970    8.4482 C   0  0  0  0  0  0  0  0  0  0  0  0
   30.2089    8.8821    8.3036 C   0  0  0  0  0  0  0  0  0  0  0  0
   28.7529    8.9055    8.2673 C   0  0  0  0  0  0  0  0  0  0  0  0
   30.2260    9.2719    9.5976 C   0  0  0  0  0  0  0  0  0  0  0  0
   31.1683    9.7465    7.5204 C   0  0  0  0  0  0  0  0  0  0  0  0
   32.1061    9.0399    6.8192 N   0  0  0  0  0  0  0  0  0  0  0  0
   33.0599    9.7478    6.0271 C   0  0  0  0  0  0  0  0  0  0  0  0
   34.1714    9.1575    5.1513 C   0  0  0  0  0  0  0  0  0  0  0  0
   35.0909    9.8314    4.3926 C   0  0  0  0  0  0  0  0  0  0  0  0
   35.0413   11.3201    4.3925 C   0  0  0  0  0  0  0  0  0  0  0  0
   33.9678   12.0188    5.2305 C   0  0  0  0  0  0  0  0  0  0  0  0
   33.0410   11.2814    5.9915 C   0  0  0  0  0  0  0  0  0  0  0  0
   32.0509   11.9004    6.7561 C   0  0  0  0  0  0  0  0  0  0  0  0
   31.1196   11.1481    7.5130 C   0  0  0  0  0  0  0  0  0  0  0  0
   30.1737   11.8506    8.2284 O   0  0  0  0  0  0  0  0  0  0  0  0
  1  2  1  0
  2  3  1  0
  2  4  1  0
  2  5  1  0
  5  6  2  0
  6  7  1  0
  7  8  2  0
  8  9  1  0
  9 10  2  0
 10 11  1  0
 11 12  2  0
 12 13  1  0
 13 14  2  0
 14 15  1  0
 14  5  1  0
 12  7  1  0
A    1
 C1 
A    2
 C2 
A    3
 C3 
A    4
 C4 
A    5
 C5 
A    6
 N1 
A    7
 C6 
A    8
 C7 
A    9
 C8 
A   10
 C9 
A   11
 C10
A   12
 C11
A   13
 C12
A   14
 C13
A   15
 O1 
M  END
>  <ref_pdb>  (1009) 
Ax0310a

>  <ref_mols>  (1009) 
Ax0446a,Ax1080a,Ax0812a,Ax0719a,Ax1140a,Ax0528a,Ax0310a

>  <original SMILES>  (1009) 
CC(C)(C)c1nc2ccccc2cc1O

>  <rationale>  (1009) 
info info set:bb_densepocket2;hbond:S125; 

>  <experiment>  (1009) 
bb_densepocket2

>  <cluster_label>  (1009) 
3

>  <cluster_rank>  (1009) 
666

>  <N_interactions>  (1009) 
1

>  <∆∆G>  (1009) 
-5.010636

>  <comRMSD>  (1009) 
0.541063

>  <ROCS_TanimotoCombo>  (1009) 
0.615

>  <ROCS_ShapeTanimoto>  (1009) 
0.267

>  <ROCS_ColorTanimoto>  (1009) 
0.347

$$$$
Z8661598944
     RDKit          3D

 20 22  0  0  0  0  0  0  0  0999 V2000
   27.5907   15.3139    9.8537 C   0  0  0  0  0  0  0  0  0  0  0  0
   28.7800   15.8696    8.7001 S   0  0  0  0  0  6  0  0  0  0  0  0
   29.0109   17.2839    8.7469 O   0  0  0  0  0  0  0  0  0  0  0  0
   28.4912   15.2442    7.4283 O   0  0  0  0  0  0  0  0  0  0  0  0
   30.3174   15.1298    9.1684 C   0  0  0  0  0  0  0  0  0  0  0  0
   31.3731   15.9499   10.2708 S   0  0  0  0  0  0  0  0  0  0  0  0
   32.5281   14.7218   10.1155 C   0  0  0  0  0  0  0  0  0  0  0  0
   32.1117   13.7196    9.2578 C   0  0  0  0  0  0  0  0  0  0  0  0
   30.8161   13.9437    8.7216 C   0  0  0  0  0  0  0  0  0  0  0  0
   30.0821   13.0335    7.7810 C   0  0  0  0  0  0  0  0  0  0  0  0
   30.1683   11.6394    8.1283 N   0  0  0  0  0  0  0  0  0  0  0  0
   31.2129   10.9242    7.3823 C   0  0  0  0  0  0  0  0  0  0  0  0
   31.3211    9.4379    7.6283 C   0  0  0  0  0  0  0  0  0  0  0  0
   32.2181    8.6587    7.0068 N   0  0  0  0  0  0  0  0  0  0  0  0
   33.0048    9.3622    6.1358 C   0  0  0  0  0  0  0  0  0  0  0  0
   33.9910    8.8303    5.3623 N   0  0  0  0  0  0  0  0  0  0  0  0
   34.6421    9.7193    4.5799 N   0  0  0  0  0  0  0  0  0  0  0  0
   34.0252   10.8633    4.8786 C   0  0  0  0  0  0  0  0  0  0  0  0
   32.9982   10.7186    5.8344 C   0  0  0  0  0  0  0  0  0  0  0  0
   32.0714   11.5331    6.4797 C   0  0  0  0  0  0  0  0  0  0  0  0
  1  2  1  0
  2  3  2  0
  2  4  2  0
  2  5  1  0
  5  6  1  0
  6  7  1  0
  7  8  2  0
  8  9  1  0
  9 10  1  0
 10 11  1  0
 11 12  1  0
 12 13  2  0
 13 14  1  0
 14 15  2  0
 15 16  1  0
 16 17  1  0
 17 18  2  0
 18 19  1  0
 19 20  2  0
  9  5  2  0
 20 12  1  0
 19 15  1  0
A    1
 C1 
A    2
 S1 
A    3
 O1 
A    4
 O2 
A    5
 C2 
A    6
 S2 
A    7
 C3 
A    8
 C4 
A    9
 C5 
A   10
 C6 
A   11
 N1 
A   12
 C7 
A   13
 C8 
A   14
 N2 
A   15
 C9 
A   16
 N3 
A   17
 N4 
A   18
 C10
A   19
 C11
A   20
 C12
M  END
>  <ref_pdb>  (1010) 
Ax0310a

>  <ref_mols>  (1010) 
Ax0446a,Ax1080a,Ax0812a,Ax0719a,Ax1140a,Ax0528a,Ax0310a

>  <original SMILES>  (1010) 
CS(=O)(=O)c1sccc1CNc1cnc2[nH]ncc2c1

>  <rationale>  (1010) 
info info set:screening_pocket;hbond:S105+S125; hydroph_interaction:P107+T126; 

>  <experiment>  (1010) 
screening_pocket

>  <cluster_label>  (1010) 
3

>  <cluster_rank>  (1010) 
667

>  <N_interactions>  (1010) 
4

>  <∆∆G>  (1010) 
-8.233361

>  <comRMSD>  (1010) 
0.390312

>  <ROCS_TanimotoCombo>  (1010) 
0.627

>  <ROCS_ShapeTanimoto>  (1010) 
0.248

>  <ROCS_ColorTanimoto>  (1010) 
0.379

$$$$
EN300_15260
     RDKit          3D

 15 15  0  0  0  0  0  0  0  0999 V2000
   30.6564    8.6058    8.6870 C   0  0  0  0  0  0  0  0  0  0  0  0
   31.1564    9.8014    7.9265 C   0  0  0  0  0  0  0  0  0  0  0  0
   30.5506   11.1174    8.1894 C   0  0  0  0  0  0  0  0  0  0  0  0
   30.9532   12.2554    7.5589 C   0  0  0  0  0  0  0  0  0  0  0  0
   30.1162   13.7189    8.0048 S   0  0  0  0  0  6  0  0  0  0  0  0
   28.8494   13.2509    8.9785 N   0  0  0  0  0  0  0  0  0  0  0  0
   31.0058   14.4946    8.8406 O   0  0  0  0  0  0  0  0  0  0  0  0
   29.4781   14.1830    6.8047 O   0  0  0  0  0  0  0  0  0  0  0  0
   31.9659   12.2823    6.6080 C   0  0  0  0  0  0  0  0  0  0  0  0
   32.6026   11.0983    6.2702 C   0  0  0  0  0  0  0  0  0  0  0  0
   33.6753   11.0921    5.2613 N   0  0  0  0  0  4  0  0  0  0  0  0
   33.5523   10.3131    4.3124 O   0  0  0  0  0  0  0  0  0  0  0  0
   34.7416   11.6280    5.5645 O   0  0  0  0  0  1  0  0  0  0  0  0
   32.2680    9.9006    6.8488 C   0  0  0  0  0  0  0  0  0  0  0  0
   33.0349    8.8202    6.3463 C   0  0  0  0  0  0  0  0  0  0  0  0
  1  2  1  0
  2  3  2  0
  3  4  1  0
  4  5  1  0
  5  6  1  0
  5  7  2  0
  5  8  2  0
  4  9  2  0
  9 10  1  0
 10 11  1  0
 11 12  2  0
 11 13  1  0
 10 14  2  0
 14 15  1  0
 14  2  1  0
M  CHG  2  11   1  13  -1
A    1
 C1 
A    2
 C2 
A    3
 C3 
A    4
 C4 
A    5
 S1 
A    6
 N1 
A    7
 O1 
A    8
 O2 
A    9
 C5 
A   10
 C6 
A   11
 N2 
A   12
 O3 
A   13
 O4 
A   14
 C7 
A   15
 C8 
M  END
>  <ref_pdb>  (1011) 
Ax0310a

>  <ref_mols>  (1011) 
Ax0446a,Ax1080a,Ax0812a,Ax0719a,Ax1140a,Ax0528a,Ax0310a

>  <original SMILES>  (1011) 
Cc1cc(S(N)(=O)=O)cc([N+](=O)[O-])c1C

>  <rationale>  (1011) 
info info set:sulfonimide_whole;hbond:S87+S125; hydroph_interaction:V124; 

>  <experiment>  (1011) 
sulfonimide_whole

>  <cluster_label>  (1011) 
3

>  <cluster_rank>  (1011) 
668

>  <N_interactions>  (1011) 
3

>  <∆∆G>  (1011) 
-6.276885

>  <comRMSD>  (1011) 
0.777475

>  <ROCS_TanimotoCombo>  (1011) 
0.337

>  <ROCS_ShapeTanimoto>  (1011) 
0.2

>  <ROCS_ColorTanimoto>  (1011) 
0.137

$$$$
EN300_4593969
     RDKit          3D

 15 15  0  0  0  0  0  0  0  0999 V2000
   29.8077    6.9635    9.1915 C   0  0  0  0  0  0  0  0  0  0  0  0
   29.8972    8.3342    9.1355 C   0  0  0  0  0  0  0  0  0  0  0  0
   29.2417    8.6807   10.2252 C   0  0  0  0  0  0  0  0  0  0  0  0
   29.1071    8.7844    8.0907 C   0  0  0  0  0  0  0  0  0  0  0  0
   31.1079    8.9824    8.8441 O   0  0  0  0  0  0  0  0  0  0  0  0
   30.9190   10.2085    8.2981 C   0  0  0  0  0  0  0  0  0  0  0  0
   30.1369   11.0754    8.6144 O   0  0  0  0  0  0  0  0  0  0  0  0
   31.7945   10.5260    7.1562 C   0  0  0  0  0  0  0  0  0  0  0  0
   31.8602   11.7947    6.6657 C   0  0  0  0  0  0  0  0  0  0  0  0
   32.7656   12.0793    5.5179 C   0  0  0  0  0  0  0  0  0  0  0  0
   33.5629   11.0896    4.9168 C   0  0  0  0  0  0  0  0  0  0  0  0
   33.4137    9.8150    5.5016 C   0  0  0  0  0  0  0  0  0  0  0  0
   34.1870    8.8005    4.9361 N   0  0  0  0  0  0  0  0  0  0  0  0
   32.5535    9.5560    6.5759 C   0  0  0  0  0  0  0  0  0  0  0  0
   32.4572    8.3281    7.0655 F   0  0  0  0  0  0  0  0  0  0  0  0
  1  2  1  0
  2  3  1  0
  2  4  1  0
  2  5  1  0
  5  6  1  0
  6  7  2  0
  6  8  1  0
  8  9  2  0
  9 10  1  0
 10 11  2  0
 11 12  1  0
 12 13  1  0
 12 14  2  0
 14 15  1  0
 14  8  1  0
A    1
 C1 
A    2
 C2 
A    3
 C3 
A    4
 C4 
A    5
 O1 
A    6
 C5 
A    7
 O2 
A    8
 C6 
A    9
 C7 
A   10
 C8 
A   11
 C9 
A   12
 C10
A   13
 N1 
A   14
 C11
A   15
 F1 
M  END
>  <ref_pdb>  (1012) 
Ax0310a

>  <ref_mols>  (1012) 
Ax0446a,Ax1080a,Ax0812a,Ax0719a,Ax1140a,Ax0528a,Ax0310a

>  <original SMILES>  (1012) 
CC(C)(C)OC(=O)c1cccc(N)c1F

>  <rationale>  (1012) 
info info set:bb_densepocket2;hbond:S105; hydroph_interaction:P107+V124+D109; 

>  <experiment>  (1012) 
bb_densepocket2

>  <cluster_label>  (1012) 
3

>  <cluster_rank>  (1012) 
669

>  <N_interactions>  (1012) 
5

>  <∆∆G>  (1012) 
-0.668117

>  <comRMSD>  (1012) 
0.574433

>  <ROCS_TanimotoCombo>  (1012) 
0.61

>  <ROCS_ShapeTanimoto>  (1012) 
0.226

>  <ROCS_ColorTanimoto>  (1012) 
0.384

$$$$
Z240132126
     RDKit          3D

 13 15  0  0  0  0  0  0  0  0999 V2000
   33.2576    8.9744    5.8909 O   0  0  0  0  0  0  0  0  0  0  0  0
   32.4569    9.7003    6.4307 C   0  0  0  0  0  0  0  0  0  0  0  0
   31.7098    9.3863    7.4694 N   0  0  0  0  0  0  0  0  0  0  0  0
   31.1157   10.5061    7.9033 C   0  0  0  0  0  0  0  0  0  0  0  0
   30.2539   10.4831    8.9842 O   0  0  0  0  0  0  0  0  0  0  0  0
   31.5052   11.7126    7.0638 C   0  0  0  0  0  0  0  0  0  0  0  0
   30.3986   12.4405    6.5835 C   0  0  0  0  0  0  0  0  0  0  0  0
   29.2332   12.2881    7.1480 C   0  0  0  0  0  0  0  0  0  0  0  0
   29.5741   13.4511    7.6066 C   0  0  0  0  0  0  0  0  0  0  0  0
   32.4729   12.6322    7.4846 C   0  0  0  0  0  0  0  0  0  0  0  0
   33.7353   12.6560    7.1395 C   0  0  0  0  0  0  0  0  0  0  0  0
   33.3483   13.5621    6.3608 C   0  0  0  0  0  0  0  0  0  0  0  0
   32.1640   10.9951    6.0745 N   0  0  0  0  0  0  0  0  0  0  0  0
  1  2  2  0
  2  3  1  0
  3  4  1  0
  4  5  2  0
  4  6  1  0
  6  7  1  0
  7  8  1  0
  8  9  1  0
  6 10  1  0
 10 11  1  0
 11 12  1  0
  6 13  1  0
 13  2  1  0
  9  7  1  0
 12 10  1  0
A    1
 O1 
A    2
 C1 
A    3
 N1 
A    4
 C2 
A    5
 O2 
A    6
 C3 
A    7
 C4 
A    8
 C5 
A    9
 C6 
A   10
 C7 
A   11
 C8 
A   12
 C9 
A   13
 N2 
M  END
>  <ref_pdb>  (1013) 
Ax0310a

>  <ref_mols>  (1013) 
Ax0446a,Ax1080a,Ax0812a,Ax0719a,Ax1140a,Ax0528a,Ax0310a

>  <original SMILES>  (1013) 
O=C1NC(=O)C(C2CC2)(C2CC2)N1

>  <rationale>  (1013) 
info info set:3d;hbond:S105+G127; hydroph_interaction:P107; 

>  <experiment>  (1013) 
3d

>  <cluster_label>  (1013) 
3

>  <cluster_rank>  (1013) 
670

>  <N_interactions>  (1013) 
4

>  <∆∆G>  (1013) 
-0.98168

>  <comRMSD>  (1013) 
0.598581

>  <ROCS_TanimotoCombo>  (1013) 
0.304

>  <ROCS_ShapeTanimoto>  (1013) 
0.2

>  <ROCS_ColorTanimoto>  (1013) 
0.104

$$$$
EN300_2976737
     RDKit          3D

  9  9  0  0  0  0  0  0  0  0999 V2000
   29.3426    8.2009    8.4234 C   0  0  0  0  0  0  0  0  0  0  0  0
   30.5087    8.9610    8.8686 C   0  0  0  0  0  0  0  0  0  0  0  0
   31.3497    9.6312    7.7868 C   0  0  0  0  0  0  0  0  0  0  0  0
   32.1459    8.8025    7.1123 N   0  0  0  0  0  0  0  0  0  0  0  0
   32.9232    9.3498    6.1611 C   0  0  0  0  0  0  0  0  0  0  0  0
   33.0017   10.8389    5.7567 C   0  0  0  0  0  0  0  0  0  0  0  0
   32.1819   11.7664    6.4262 C   0  0  0  0  0  0  0  0  0  0  0  0
   31.2794   11.1665    7.5168 C   0  0  0  0  0  0  0  0  0  0  0  0
   30.4348   12.0436    8.2207 N   0  0  0  0  0  0  0  0  0  0  0  0
  1  2  3  0
  2  3  1  0
  3  4  2  0
  4  5  1  0
  5  6  2  0
  6  7  1  0
  7  8  2  0
  8  9  1  0
  8  3  1  0
A    1
 C1 
A    2
 C2 
A    3
 C3 
A    4
 N1 
A    5
 C4 
A    6
 C5 
A    7
 C6 
A    8
 C7 
A    9
 N2 
M  END
>  <ref_pdb>  (1014) 
Ax0310a

>  <ref_mols>  (1014) 
Ax0446a,Ax1080a,Ax0812a,Ax0719a,Ax1140a,Ax0528a,Ax0310a

>  <original SMILES>  (1014) 
C#Cc1ncccc1N

>  <rationale>  (1014) 
info info set:bb_densepocket2;hbond:S125; hydroph_interaction:P107+V124; 

>  <experiment>  (1014) 
bb_densepocket2

>  <cluster_label>  (1014) 
3

>  <cluster_rank>  (1014) 
671

>  <N_interactions>  (1014) 
3

>  <∆∆G>  (1014) 
-3.592909

>  <comRMSD>  (1014) 
0.404007

>  <ROCS_TanimotoCombo>  (1014) 
0.61

>  <ROCS_ShapeTanimoto>  (1014) 
0.195

>  <ROCS_ColorTanimoto>  (1014) 
0.415

$$$$
Z45654211
     RDKit          3D

 17 18  0  0  0  0  0  0  0  0999 V2000
   30.7057   11.3800    8.8371 O   0  0  0  0  0  0  0  0  0  0  0  0
   30.9238   10.6921    7.6679 S   0  0  0  0  0  6  0  0  0  0  0  0
   30.6028    9.2965    7.5128 O   0  0  0  0  0  0  0  0  0  0  0  0
   30.1710   11.7632    6.6546 N   0  0  0  0  0  0  0  0  0  0  0  0
   29.6303   12.8513    7.2901 C   0  0  0  0  0  0  0  0  0  0  0  0
   28.2469   13.3015    7.1400 C   0  0  0  0  0  0  0  0  0  0  0  0
   27.8936   14.4011    7.8375 C   0  0  0  0  0  0  0  0  0  0  0  0
   28.8526   15.0744    8.6839 C   0  0  0  0  0  0  0  0  0  0  0  0
   30.1331   14.5713    8.7686 C   0  0  0  0  0  0  0  0  0  0  0  0
   30.5458   13.4538    8.0691 N   0  0  0  0  0  0  0  0  0  0  0  0
   32.4289   11.0069    6.8618 C   0  0  0  0  0  0  0  0  0  0  0  0
   32.9437   10.0493    6.0142 C   0  0  0  0  0  0  0  0  0  0  0  0
   34.1177   10.3210    5.3426 C   0  0  0  0  0  0  0  0  0  0  0  0
   34.7587   11.5465    5.5315 C   0  0  0  0  0  0  0  0  0  0  0  0
   34.2154   12.4919    6.4102 C   0  0  0  0  0  0  0  0  0  0  0  0
   34.8324   13.6631    6.6089 F   0  0  0  0  0  0  0  0  0  0  0  0
   33.0476   12.2280    7.0813 C   0  0  0  0  0  0  0  0  0  0  0  0
  1  2  2  0
  2  3  2  0
  2  4  1  0
  4  5  1  0
  5  6  2  0
  6  7  1  0
  7  8  2  0
  8  9  1  0
  9 10  2  0
  2 11  1  0
 11 12  2  0
 12 13  1  0
 13 14  2  0
 14 15  1  0
 15 16  1  0
 15 17  2  0
 10  5  1  0
 17 11  1  0
A    1
 O1 
A    2
 S1 
A    3
 O2 
A    4
 N1 
A    5
 C1 
A    6
 C2 
A    7
 C3 
A    8
 C4 
A    9
 C5 
A   10
 N2 
A   11
 C6 
A   12
 C7 
A   13
 C8 
A   14
 C9 
A   15
 C10
A   16
 F1 
A   17
 C11
M  END
>  <ref_pdb>  (1015) 
Ax0310a

>  <ref_mols>  (1015) 
Ax0446a,Ax1080a,Ax0812a,Ax0719a,Ax1140a,Ax0528a,Ax0310a

>  <original SMILES>  (1015) 
O=S(=O)(Nc1ccccn1)c1cccc(F)c1

>  <rationale>  (1015) 
info info set:3d;hbond:S87; hydroph_interaction:Y89+Y90; 

>  <experiment>  (1015) 
3d

>  <cluster_label>  (1015) 
3

>  <cluster_rank>  (1015) 
672

>  <N_interactions>  (1015) 
3

>  <∆∆G>  (1015) 
-1.406151

>  <comRMSD>  (1015) 
0.717335

>  <ROCS_TanimotoCombo>  (1015) 
0.315

>  <ROCS_ShapeTanimoto>  (1015) 
0.22

>  <ROCS_ColorTanimoto>  (1015) 
0.095

$$$$
EN300_7358800
     RDKit          3D

 16 16  0  0  0  0  0  0  0  0999 V2000
   30.1583    9.0637    9.2526 C   0  0  0  0  0  0  0  0  0  0  0  0
   30.2606   10.4433    8.9338 O   0  0  0  0  0  0  0  0  0  0  0  0
   31.0546   10.6427    7.9073 C   0  0  0  0  0  0  0  0  0  0  0  0
   31.7942    9.4172    7.3722 C   0  0  0  0  0  0  0  0  0  0  0  0
   32.7184    9.5558    6.1909 C   0  0  0  0  0  0  0  0  0  0  0  0
   32.8473   10.9336    5.6033 C   0  0  0  0  0  0  0  0  0  0  0  0
   33.7835   10.9592    4.3941 C   0  0  0  0  0  0  0  0  0  0  0  0
   35.1097   11.5012    4.9211 C   0  0  0  0  0  0  0  0  0  0  0  0
   35.2197   12.8502    5.6081 C   0  0  0  0  0  0  0  0  0  0  0  0
   36.1458   10.6631    4.6886 O   0  0  0  0  0  0  0  0  0  0  0  0
   32.1650   12.0541    6.1128 C   0  0  0  0  0  0  0  0  0  0  0  0
   31.2168   11.9200    7.3230 C   0  0  0  0  0  0  0  0  0  0  0  0
   30.4022   13.3159    7.8911 S   0  0  0  0  0  6  0  0  0  0  0  0
   29.0686   12.9063    8.7761 N   0  0  0  0  0  0  0  0  0  0  0  0
   31.2717   14.0655    8.7820 O   0  0  0  0  0  0  0  0  0  0  0  0
   29.7288   13.8888    6.7553 O   0  0  0  0  0  0  0  0  0  0  0  0
  1  2  1  0
  2  3  1  0
  3  4  2  0
  4  5  1  0
  5  6  2  0
  6  7  1  0
  7  8  1  0
  8  9  1  0
  8 10  2  0
  6 11  1  0
 11 12  2  0
 12 13  1  0
 13 14  1  0
 13 15  2  0
 13 16  2  0
 12  3  1  0
A    1
 C1 
A    2
 O1 
A    3
 C2 
A    4
 C3 
A    5
 C4 
A    6
 C5 
A    7
 C6 
A    8
 C7 
A    9
 C8 
A   10
 O2 
A   11
 C9 
A   12
 C10
A   13
 S1 
A   14
 N1 
A   15
 O3 
A   16
 O4 
M  END
>  <ref_pdb>  (1016) 
Ax0310a

>  <ref_mols>  (1016) 
Ax0446a,Ax1080a,Ax0812a,Ax0719a,Ax1140a,Ax0528a,Ax0310a

>  <original SMILES>  (1016) 
COc1ccc(CC(C)=O)cc1S(N)(=O)=O

>  <rationale>  (1016) 
info info set:sulfonimide_whole;hbond:S87+S125; hydroph_interaction:P107; 

>  <experiment>  (1016) 
sulfonimide_whole

>  <cluster_label>  (1016) 
3

>  <cluster_rank>  (1016) 
673

>  <N_interactions>  (1016) 
3

>  <∆∆G>  (1016) 
-7.395351

>  <comRMSD>  (1016) 
0.77865

>  <ROCS_TanimotoCombo>  (1016) 
0.343

>  <ROCS_ShapeTanimoto>  (1016) 
0.195

>  <ROCS_ColorTanimoto>  (1016) 
0.148

$$$$
EN300_42159
     RDKit          3D

 11 11  0  0  0  0  0  0  0  0999 V2000
   29.9441    8.2580   10.1714 C   0  0  0  0  0  0  0  0  0  0  0  0
   30.1520    8.9512    8.9028 C   0  0  0  0  0  0  0  0  0  0  0  0
   29.1750    7.9920    8.4348 C   0  0  0  0  0  0  0  0  0  0  0  0
   31.4246    8.6608    8.3779 O   0  0  0  0  0  0  0  0  0  0  0  0
   31.8685    9.5372    7.4104 C   0  0  0  0  0  0  0  0  0  0  0  0
   32.7653    8.9900    6.5527 N   0  0  0  0  0  0  0  0  0  0  0  0
   33.2915    9.7324    5.5826 C   0  0  0  0  0  0  0  0  0  0  0  0
   32.9164   11.1733    5.4090 C   0  0  0  0  0  0  0  0  0  0  0  0
   32.0074   11.7447    6.2631 C   0  0  0  0  0  0  0  0  0  0  0  0
   31.4000   10.8935    7.3752 C   0  0  0  0  0  0  0  0  0  0  0  0
   30.4671   11.5499    8.2158 N   0  0  0  0  0  0  0  0  0  0  0  0
  1  2  1  0
  2  3  1  0
  2  4  1  0
  4  5  1  0
  5  6  2  0
  6  7  1  0
  7  8  2  0
  8  9  1  0
  9 10  2  0
 10 11  1  0
 10  5  1  0
A    1
 C1 
A    2
 C2 
A    3
 C3 
A    4
 O1 
A    5
 C4 
A    6
 N1 
A    7
 C5 
A    8
 C6 
A    9
 C7 
A   10
 C8 
A   11
 N2 
M  END
>  <ref_pdb>  (1017) 
Ax0310a

>  <ref_mols>  (1017) 
Ax0446a,Ax1080a,Ax0812a,Ax0719a,Ax1140a,Ax0528a,Ax0310a

>  <original SMILES>  (1017) 
CC(C)Oc1ncccc1N

>  <rationale>  (1017) 
info info set:bb_densepocket2;hbond:S125+G127; hydroph_interaction:P107+V124+D109; 

>  <experiment>  (1017) 
bb_densepocket2

>  <cluster_label>  (1017) 
3

>  <cluster_rank>  (1017) 
674

>  <N_interactions>  (1017) 
5

>  <∆∆G>  (1017) 
-3.344106

>  <comRMSD>  (1017) 
0.471474

>  <ROCS_TanimotoCombo>  (1017) 
0.613

>  <ROCS_ShapeTanimoto>  (1017) 
0.201

>  <ROCS_ColorTanimoto>  (1017) 
0.413

$$$$
Z2322237538
     RDKit          3D

 21 22  0  0  0  0  0  0  0  0999 V2000
   30.2349   14.4383    9.4689 C   0  0  0  0  0  0  0  0  0  0  0  0
   29.0942   14.3523    8.5160 C   0  0  0  0  0  0  0  0  0  0  0  0
   28.5792   15.4443    8.0153 N   0  0  0  0  0  0  0  0  0  0  0  0
   27.6639   14.9057    7.2706 C   0  0  0  0  0  0  0  0  0  0  0  0
   27.5455   13.6140    7.2511 O   0  0  0  0  0  0  0  0  0  0  0  0
   28.4010   13.2707    7.9912 C   0  0  0  0  0  0  0  0  0  0  0  0
   28.4530   11.8542    8.0841 C   0  0  0  0  0  0  0  0  0  0  0  0
   29.6708   11.7025    7.4038 O   0  0  0  0  0  0  0  0  0  0  0  0
   30.4396   10.8583    8.0238 C   0  0  0  0  0  0  0  0  0  0  0  0
   30.3352   10.4150    9.1144 O   0  0  0  0  0  0  0  0  0  0  0  0
   31.4253   10.4461    7.2104 C   0  0  0  0  0  0  0  0  0  0  0  0
   32.0760   11.2328    6.2758 C   0  0  0  0  0  0  0  0  0  0  0  0
   33.0613   10.6465    5.5058 C   0  0  0  0  0  0  0  0  0  0  0  0
   33.8190   11.4485    4.4302 C   0  0  0  0  0  0  0  0  0  0  0  0
   35.1590   11.4648    4.6315 F   0  0  0  0  0  0  0  0  0  0  0  0
   33.6357   10.9468    3.1743 F   0  0  0  0  0  0  0  0  0  0  0  0
   33.4074   12.7430    4.3661 F   0  0  0  0  0  0  0  0  0  0  0  0
   33.3360    9.3111    5.7356 C   0  0  0  0  0  0  0  0  0  0  0  0
   32.6849    8.5692    6.6593 N   0  0  0  0  0  0  0  0  0  0  0  0
   31.7393    9.1705    7.3680 C   0  0  0  0  0  0  0  0  0  0  0  0
   30.8967    8.2391    8.5368 Cl  0  0  0  0  0  0  0  0  0  0  0  0
  1  2  1  0
  2  3  1  0
  3  4  2  0
  4  5  1  0
  5  6  1  0
  6  7  1  0
  7  8  1  0
  8  9  1  0
  9 10  2  0
  9 11  1  0
 11 12  2  0
 12 13  1  0
 13 14  1  0
 14 15  1  0
 14 16  1  0
 14 17  1  0
 13 18  2  0
 18 19  1  0
 19 20  2  0
 20 21  1  0
  6  2  2  0
 20 11  1  0
A    1
 C1 
A    2
 C2 
A    3
 N1 
A    4
 C3 
A    5
 O1 
A    6
 C4 
A    7
 C5 
A    8
 O2 
A    9
 C6 
A   10
 O3 
A   11
 C7 
A   12
 C8 
A   13
 C9 
A   14
 C10
A   15
 F1 
A   16
 F2 
A   17
 F3 
A   18
 C11
A   19
 N2 
A   20
 C12
A   21
CL1 
M  END
>  <ref_pdb>  (1018) 
Ax0310a

>  <ref_mols>  (1018) 
Ax0446a,Ax1080a,Ax0812a,Ax0719a,Ax1140a,Ax0528a,Ax0310a

>  <original SMILES>  (1018) 
Cc1ncoc1COC(=O)c1cc(C(F)(F)F)cnc1Cl

>  <rationale>  (1018) 
info info set:screening_pocket;hbond:S87; hydroph_interaction:P107; pistack:H21; 

>  <experiment>  (1018) 
screening_pocket

>  <cluster_label>  (1018) 
3

>  <cluster_rank>  (1018) 
675

>  <N_interactions>  (1018) 
3

>  <∆∆G>  (1018) 
-2.361434

>  <comRMSD>  (1018) 
0.507618

>  <ROCS_TanimotoCombo>  (1018) 
0.64

>  <ROCS_ShapeTanimoto>  (1018) 
0.264

>  <ROCS_ColorTanimoto>  (1018) 
0.376

$$$$
Z1216841932
     RDKit          3D

 11 11  0  0  0  0  0  0  0  0999 V2000
   30.5055   11.5786    8.4882 N   0  0  0  0  0  0  0  0  0  0  0  0
   30.9748   10.6297    8.0284 C   0  0  0  0  0  0  0  0  0  0  0  0
   31.0698    9.2499    7.7980 C   0  0  0  0  0  0  0  0  0  0  0  0
   31.9622    8.5850    7.0459 N   0  0  0  0  0  0  0  0  0  0  0  0
   32.9059    9.2426    6.3749 C   0  0  0  0  0  0  0  0  0  0  0  0
   32.9745   10.5759    6.4985 C   0  0  0  0  0  0  0  0  0  0  0  0
   32.0460   11.2128    7.3083 C   0  0  0  0  0  0  0  0  0  0  0  0
   32.2511   12.9479    7.4725 S   0  0  0  0  0  6  0  0  0  0  0  0
   33.1511   13.3765    6.1221 N   0  0  0  0  0  0  0  0  0  0  0  0
   33.1369   13.1078    8.6088 O   0  0  0  0  0  0  0  0  0  0  0  0
   30.9438   13.5410    7.3733 O   0  0  0  0  0  0  0  0  0  0  0  0
  1  2  1  0
  2  3  2  0
  3  4  1  0
  4  5  2  0
  5  6  1  0
  6  7  2  0
  7  8  1  0
  8  9  1  0
  8 10  2  0
  8 11  2  0
  7  2  1  0
A    1
 N1 
A    2
 C1 
A    3
 C2 
A    4
 N2 
A    5
 C3 
A    6
 C4 
A    7
 C5 
A    8
 S1 
A    9
 N3 
A   10
 O1 
A   11
 O2 
M  END
>  <ref_pdb>  (1019) 
Ax0310a

>  <ref_mols>  (1019) 
Ax0446a,Ax1080a,Ax0812a,Ax0719a,Ax1140a,Ax0528a,Ax0310a

>  <original SMILES>  (1019) 
Nc1cnccc1S(N)(=O)=O

>  <rationale>  (1019) 
info info set:3d;hbond:S87+S125+G127; 

>  <experiment>  (1019) 
3d

>  <cluster_label>  (1019) 
3

>  <cluster_rank>  (1019) 
676

>  <N_interactions>  (1019) 
3

>  <∆∆G>  (1019) 
-4.36646

>  <comRMSD>  (1019) 
0.443025

>  <ROCS_TanimotoCombo>  (1019) 
0.304

>  <ROCS_ShapeTanimoto>  (1019) 
0.168

>  <ROCS_ColorTanimoto>  (1019) 
0.136

$$$$
Z1620657975
     RDKit          3D

 17 18  0  0  0  0  0  0  0  0999 V2000
   34.3579   14.4876    8.7564 C   0  0  0  0  0  0  0  0  0  0  0  0
   34.1914   14.2168    7.2777 C   0  0  0  0  0  0  0  0  0  0  0  0
   35.1970   14.4693    6.4098 C   0  0  0  0  0  0  0  0  0  0  0  0
   35.0912   14.2536    5.0412 C   0  0  0  0  0  0  0  0  0  0  0  0
   36.4156   14.6206    4.0056 Cl  0  0  0  0  0  0  0  0  0  0  0  0
   33.9095   13.7467    4.5117 C   0  0  0  0  0  0  0  0  0  0  0  0
   32.7910   13.4374    5.2567 C   0  0  0  0  0  0  0  0  0  0  0  0
   32.9614   13.7067    6.7592 C   0  0  0  0  0  0  0  0  0  0  0  0
   31.5596   13.4092    7.7448 S   0  0  0  0  0  6  0  0  0  0  0  0
   30.4130   13.5266    6.8814 O   0  0  0  0  0  0  0  0  0  0  0  0
   31.7023   14.2232    8.9324 O   0  0  0  0  0  0  0  0  0  0  0  0
   31.3872   11.8735    8.2424 N   0  0  0  0  0  0  0  0  0  0  0  0
   31.7416   10.6664    7.5589 C   0  0  0  0  0  0  0  0  0  0  0  0
   32.8838   10.5636    6.5901 C   0  0  0  0  0  0  0  0  0  0  0  0
   32.8409    9.2624    6.2358 C   0  0  0  0  0  0  0  0  0  0  0  0
   31.8079    8.6545    6.9046 O   0  0  0  0  0  0  0  0  0  0  0  0
   31.1173    9.5360    7.7211 N   0  0  0  0  0  0  0  0  0  0  0  0
  1  2  1  0
  2  3  2  0
  3  4  1  0
  4  5  1  0
  4  6  2  0
  6  7  1  0
  7  8  2  0
  8  9  1  0
  9 10  2  0
  9 11  2  0
  9 12  1  0
 12 13  1  0
 13 14  1  0
 14 15  2  0
 15 16  1  0
 16 17  1  0
  8  2  1  0
 17 13  2  0
A    1
 C1 
A    2
 C2 
A    3
 C3 
A    4
 C4 
A    5
CL1 
A    6
 C5 
A    7
 C6 
A    8
 C7 
A    9
 S1 
A   10
 O1 
A   11
 O2 
A   12
 N1 
A   13
 C8 
A   14
 C9 
A   15
 C10
A   16
 O3 
A   17
 N2 
M  END
>  <ref_pdb>  (1020) 
Ax0310a

>  <ref_mols>  (1020) 
Ax0446a,Ax1080a,Ax0812a,Ax0719a,Ax1140a,Ax0528a,Ax0310a

>  <original SMILES>  (1020) 
Cc1cc(Cl)ccc1S(=O)(=O)Nc1ccon1

>  <rationale>  (1020) 
info info set:3d;hbond:S87+S125+G127; hydroph_interaction:E85; 

>  <experiment>  (1020) 
3d

>  <cluster_label>  (1020) 
3

>  <cluster_rank>  (1020) 
677

>  <N_interactions>  (1020) 
4

>  <∆∆G>  (1020) 
-4.118198

>  <comRMSD>  (1020) 
0.869827

>  <ROCS_TanimotoCombo>  (1020) 
0.303

>  <ROCS_ShapeTanimoto>  (1020) 
0.16

>  <ROCS_ColorTanimoto>  (1020) 
0.142

$$$$
EN300_377768
     RDKit          3D

 16 17  0  0  0  0  0  0  0  0999 V2000
   35.1202   12.0603    4.7428 C   0  0  0  0  0  0  0  0  0  0  0  0
   33.9175   11.4508    4.2947 O   0  0  0  0  0  0  0  0  0  0  0  0
   33.1436   10.9211    5.3668 C   0  0  0  0  0  0  0  0  0  0  0  0
   32.2238   11.8815    6.0965 C   0  0  0  0  0  0  0  0  0  0  0  0
   31.4620   11.1597    7.2002 C   0  0  0  0  0  0  0  0  0  0  0  0
   30.5901   12.0853    7.8917 N   0  0  0  0  0  0  0  0  0  0  0  0
   29.3504   11.6726    8.3530 C   0  0  0  0  0  0  0  0  0  0  0  0
   29.0834   10.5619    8.7797 O   0  0  0  0  0  0  0  0  0  0  0  0
   28.0844   12.6436    8.3892 C   0  0  0  0  0  0  0  0  0  0  0  0
   26.6588   12.2298    8.3288 C   0  0  0  0  0  0  0  0  0  0  0  0
   28.3322   13.5965    9.5398 C   0  0  0  0  0  0  0  0  0  0  0  0
   28.2420   14.1226    8.2331 C   0  0  0  0  0  0  0  0  0  0  0  0
   31.6598    9.8008    7.4208 C   0  0  0  0  0  0  0  0  0  0  0  0
   32.5202    9.0279    6.7054 N   0  0  0  0  0  0  0  0  0  0  0  0
   33.2369    9.5870    5.7093 C   0  0  0  0  0  0  0  0  0  0  0  0
   34.1131    8.7788    4.9835 N   0  0  0  0  0  0  0  0  0  0  0  0
  1  2  1  0
  2  3  1  0
  3  4  2  0
  4  5  1  0
  5  6  1  0
  6  7  1  0
  7  8  2  0
  7  9  1  0
  9 10  1  0
  9 11  1  0
 11 12  1  0
  5 13  2  0
 13 14  1  0
 14 15  2  0
 15 16  1  0
 15  3  1  0
 12  9  1  0
A    1
 C1 
A    2
 O1 
A    3
 C2 
A    4
 C3 
A    5
 C4 
A    6
 N1 
A    7
 C5 
A    8
 O2 
A    9
 C6 
A   10
 C7 
A   11
 C8 
A   12
 C9 
A   13
 C10
A   14
 N2 
A   15
 C11
A   16
 N3 
M  END
>  <ref_pdb>  (1021) 
Ax0310a

>  <ref_mols>  (1021) 
Ax0446a,Ax1080a,Ax0812a,Ax0719a,Ax1140a,Ax0528a,Ax0310a

>  <original SMILES>  (1021) 
COc1cc(NC(=O)C2(C)CC2)cnc1N

>  <rationale>  (1021) 
info info set:bb_densepocket2;hbond:S87+S105+Y90; hydroph_interaction:P107+Y90; 

>  <experiment>  (1021) 
bb_densepocket2

>  <cluster_label>  (1021) 
3

>  <cluster_rank>  (1021) 
678

>  <N_interactions>  (1021) 
5

>  <∆∆G>  (1021) 
-3.956981

>  <comRMSD>  (1021) 
0.994599

>  <ROCS_TanimotoCombo>  (1021) 
0.615

>  <ROCS_ShapeTanimoto>  (1021) 
0.228

>  <ROCS_ColorTanimoto>  (1021) 
0.387

$$$$
Z968637440
     RDKit          3D

 17 18  0  0  0  0  0  0  0  0999 V2000
   33.3239   15.2190    9.9333 C   0  0  0  0  0  0  0  0  0  0  0  0
   33.5700   14.1338    9.0408 N   0  0  0  0  0  0  0  0  0  0  0  0
   34.8867   13.9082    8.6202 C   0  0  0  0  0  0  0  0  0  0  0  0
   36.0125   13.6110    9.6394 C   0  0  0  0  0  0  0  0  0  0  0  0
   37.3376   13.6560    9.3510 N   0  0  0  0  0  0  0  0  0  0  0  0
   32.6012   13.7945    8.1593 C   0  0  0  0  0  0  0  0  0  0  0  0
   31.4183   14.0267    8.3844 O   0  0  0  0  0  0  0  0  0  0  0  0
   33.0479   13.0866    6.8736 C   0  0  0  0  0  0  0  0  0  0  0  0
   32.4930   11.7447    7.0364 C   0  0  0  0  0  0  0  0  0  0  0  0
   33.1420   10.5781    6.3852 C   0  0  0  0  0  0  0  0  0  0  0  0
   32.5460    9.3824    6.6610 C   0  0  0  0  0  0  0  0  0  0  0  0
   31.3101    9.2406    7.5724 C   0  0  0  0  0  0  0  0  0  0  0  0
   30.8269    8.0621    7.8066 F   0  0  0  0  0  0  0  0  0  0  0  0
   30.7205   10.3284    8.1399 C   0  0  0  0  0  0  0  0  0  0  0  0
   31.2733   11.6893    7.9072 C   0  0  0  0  0  0  0  0  0  0  0  0
   34.3249   13.4624    6.1280 C   0  0  0  0  0  0  0  0  0  0  0  0
   32.9980   13.6398    5.4371 C   0  0  0  0  0  0  0  0  0  0  0  0
  1  2  1  0
  2  3  1  0
  3  4  1  0
  4  5  3  0
  2  6  1  0
  6  7  2  0
  6  8  1  0
  8  9  1  0
  9 10  2  0
 10 11  1  0
 11 12  2  0
 12 13  1  0
 12 14  1  0
 14 15  2  0
  8 16  1  0
 16 17  1  0
 17  8  1  0
 15  9  1  0
A    1
 C1 
A    2
 N1 
A    3
 C2 
A    4
 C3 
A    5
 N2 
A    6
 C4 
A    7
 O1 
A    8
 C5 
A    9
 C6 
A   10
 C7 
A   11
 C8 
A   12
 C9 
A   13
 F1 
A   14
 C10
A   15
 C11
A   16
 C12
A   17
 C13
M  END
>  <ref_pdb>  (1022) 
Ax0310a

>  <ref_mols>  (1022) 
Ax0446a,Ax1080a,Ax0812a,Ax0719a,Ax1140a,Ax0528a,Ax0310a

>  <original SMILES>  (1022) 
CN(CC#N)C(=O)C1(c2ccc(F)cc2)CC1

>  <rationale>  (1022) 
info info set:3d;halogenbond:S105; hbond:S87+E85; 

>  <experiment>  (1022) 
3d

>  <cluster_label>  (1022) 
3

>  <cluster_rank>  (1022) 
679

>  <N_interactions>  (1022) 
3

>  <∆∆G>  (1022) 
-3.588037

>  <comRMSD>  (1022) 
0.641571

>  <ROCS_TanimotoCombo>  (1022) 
0.312

>  <ROCS_ShapeTanimoto>  (1022) 
0.191

>  <ROCS_ColorTanimoto>  (1022) 
0.12

$$$$
Z1255504740
     RDKit          3D

 12 13  0  0  0  0  0  0  0  0999 V2000
   29.5435   13.3132    7.4392 C   0  0  0  0  0  0  0  0  0  0  0  0
   30.9616   13.1685    7.2824 O   0  0  0  0  0  0  0  0  0  0  0  0
   31.3536   11.8725    7.1696 C   0  0  0  0  0  0  0  0  0  0  0  0
   30.6197   10.8469    7.8590 N   0  0  0  0  0  0  0  0  0  0  0  0
   31.0245    9.5717    7.7298 C   0  0  0  0  0  0  0  0  0  0  0  0
   32.0995    9.1439    6.9679 C   0  0  0  0  0  0  0  0  0  0  0  0
   32.8381   10.2446    6.2566 C   0  0  0  0  0  0  0  0  0  0  0  0
   32.4577   11.5859    6.3788 C   0  0  0  0  0  0  0  0  0  0  0  0
   33.1700   12.5981    5.7206 N   0  0  0  0  0  0  0  0  0  0  0  0
   34.5415   12.2602    5.3922 C   0  0  0  0  0  0  0  0  0  0  0  0
   34.7802   10.9423    5.0102 C   0  0  0  0  0  0  0  0  0  0  0  0
   33.9383    9.9011    5.4403 C   0  0  0  0  0  0  0  0  0  0  0  0
  1  2  1  0
  2  3  1  0
  3  4  2  0
  4  5  1  0
  5  6  2  0
  6  7  1  0
  7  8  2  0
  8  9  1  0
  9 10  1  0
 10 11  1  0
 11 12  1  0
  8  3  1  0
 12  7  1  0
A    1
 C1 
A    2
 O1 
A    3
 C2 
A    4
 N1 
A    5
 C3 
A    6
 C4 
A    7
 C5 
A    8
 C6 
A    9
 N2 
A   10
 C7 
A   11
 C8 
A   12
 C9 
M  END
>  <ref_pdb>  (1023) 
Ax0310a

>  <ref_mols>  (1023) 
Ax0446a,Ax1080a,Ax0812a,Ax0719a,Ax1140a,Ax0528a,Ax0310a

>  <original SMILES>  (1023) 
COc1nccc2c1NCCC2

>  <rationale>  (1023) 
info info set:3d;hbond:S87; 

>  <experiment>  (1023) 
3d

>  <cluster_label>  (1023) 
3

>  <cluster_rank>  (1023) 
680

>  <N_interactions>  (1023) 
1

>  <∆∆G>  (1023) 
-5.283619

>  <comRMSD>  (1023) 
0.596931

>  <ROCS_TanimotoCombo>  (1023) 
0.311

>  <ROCS_ShapeTanimoto>  (1023) 
0.189

>  <ROCS_ColorTanimoto>  (1023) 
0.122

$$$$
Z1450337397
     RDKit          3D

 15 16  0  0  0  0  0  0  0  0999 V2000
   27.6633   13.8222    7.1076 C   0  0  0  0  0  0  0  0  0  0  0  0
   29.0883   14.1983    7.3233 C   0  0  0  0  0  0  0  0  0  0  0  0
   29.6793   13.5121    8.5368 C   0  0  2  0  0  0  0  0  0  0  0  0
   29.2281   14.1195    9.7872 N   0  0  0  0  0  0  0  0  0  0  0  0
   31.2023   13.3975    8.4898 C   0  0  0  0  0  0  0  0  0  0  0  0
   31.8838   14.2443    9.0731 O   0  0  0  0  0  0  0  0  0  0  0  0
   31.7935   12.3481    7.8169 N   0  0  0  0  0  0  0  0  0  0  0  0
   31.0740   11.3252    7.5130 C   0  0  0  0  0  0  0  0  0  0  0  0
   31.8056   10.4674    6.6428 C   0  0  0  0  0  0  0  0  0  0  0  0
   32.9891   11.2627    6.1096 C   0  0  0  0  0  0  0  0  0  0  0  0
   32.9452   11.9046    4.7106 C   0  0  0  0  0  0  0  0  0  0  0  0
   34.4213   12.1413    4.4398 C   0  0  0  0  0  0  0  0  0  0  0  0
   35.1851   11.0195    5.0573 C   0  0  0  0  0  0  0  0  0  0  0  0
   34.0251   10.2719    5.6819 C   0  0  0  0  0  0  0  0  0  0  0  0
   33.1102   12.2750    7.1400 C   0  0  0  0  0  0  0  0  0  0  0  0
  1  2  1  0
  2  3  1  0
  3  4  1  1
  3  5  1  0
  5  6  2  0
  5  7  1  0
  7  8  1  0
  8  9  1  0
  9 10  1  0
 10 11  1  0
 11 12  1  0
 12 13  1  0
 13 14  1  0
 10 15  1  0
 15  7  1  0
 14 10  1  0
A    1
 C1 
A    2
 C2 
A    3
 C3 
A    4
 N1 
A    5
 C4 
A    6
 O1 
A    7
 N2 
A    8
 C5 
A    9
 C6 
A   10
 C7 
A   11
 C8 
A   12
 C9 
A   13
 C10
A   14
 C11
A   15
 C12
M  END
>  <ref_pdb>  (1024) 
Ax0310a

>  <ref_mols>  (1024) 
Ax0446a,Ax1080a,Ax0812a,Ax0719a,Ax1140a,Ax0528a,Ax0310a

>  <original SMILES>  (1024) 
CC[C@H](N)C(=O)N1CCC2(CCCC2)C1

>  <rationale>  (1024) 
info info set:3d;hbond:S87+S125; hydroph_interaction:Y89; 

>  <experiment>  (1024) 
3d

>  <cluster_label>  (1024) 
3

>  <cluster_rank>  (1024) 
681

>  <N_interactions>  (1024) 
3

>  <∆∆G>  (1024) 
-4.873796

>  <comRMSD>  (1024) 
0.78127

>  <ROCS_TanimotoCombo>  (1024) 
0.308

>  <ROCS_ShapeTanimoto>  (1024) 
0.19

>  <ROCS_ColorTanimoto>  (1024) 
0.118

$$$$
Z82839488
     RDKit          3D

 17 18  0  0  0  0  0  0  0  0999 V2000
   32.9806   16.7447    9.8805 O   0  0  0  0  0  0  0  0  0  0  0  0
   33.2584   15.6007    9.5446 C   0  0  0  0  0  0  0  0  0  0  0  0
   32.2077   14.5319    9.3971 C   0  0  0  0  0  0  0  0  0  0  0  0
   32.3933   13.7017    8.3539 N   0  0  0  0  0  0  0  0  0  0  0  0
   31.4035   13.0715    7.6897 C   0  0  0  0  0  0  0  0  0  0  0  0
   30.3992   13.6420    7.2888 O   0  0  0  0  0  0  0  0  0  0  0  0
   31.5737   11.6121    7.4776 C   0  0  0  0  0  0  0  0  0  0  0  0
   30.5476   10.7007    8.2326 C   0  0  0  0  0  0  0  0  0  0  0  0
   30.9620    9.2640    7.8803 C   0  0  0  0  0  0  0  0  0  0  0  0
   30.1471    8.3702    8.4892 F   0  0  0  0  0  0  0  0  0  0  0  0
   32.0536    8.7621    7.0249 C   0  0  0  0  0  0  0  0  0  0  0  0
   32.9393    9.5590    6.3461 C   0  0  0  0  0  0  0  0  0  0  0  0
   32.7138   11.0372    6.5660 C   0  0  0  0  0  0  0  0  0  0  0  0
   33.5527   11.8729    5.9410 F   0  0  0  0  0  0  0  0  0  0  0  0
   33.6509   13.1699    8.3821 C   0  0  0  0  0  0  0  0  0  0  0  0
   34.7472   14.2047    8.2303 C   0  0  0  0  0  0  0  0  0  0  0  0
   34.5154   15.2501    9.1927 N   0  0  0  0  0  0  0  0  0  0  0  0
  1  2  2  0
  2  3  1  0
  3  4  1  0
  4  5  1  0
  5  6  2  0
  5  7  1  0
  7  8  2  0
  8  9  1  0
  9 10  1  0
  9 11  2  0
 11 12  1  0
 12 13  2  0
 13 14  1  0
  4 15  1  0
 15 16  1  0
 16 17  1  0
 17  2  1  0
 13  7  1  0
A    1
 O1 
A    2
 C1 
A    3
 C2 
A    4
 N1 
A    5
 C3 
A    6
 O2 
A    7
 C4 
A    8
 C5 
A    9
 C6 
A   10
 F1 
A   11
 C7 
A   12
 C8 
A   13
 C9 
A   14
 F2 
A   15
 C10
A   16
 C11
A   17
 N2 
M  END
>  <ref_pdb>  (1025) 
Ax0310a

>  <ref_mols>  (1025) 
Ax0446a,Ax1080a,Ax0812a,Ax0719a,Ax1140a,Ax0528a,Ax0310a

>  <original SMILES>  (1025) 
O=C1CN(C(=O)c2cc(F)ccc2F)CCN1

>  <rationale>  (1025) 
info info set:3d;hbond:S87+E85; 

>  <experiment>  (1025) 
3d

>  <cluster_label>  (1025) 
3

>  <cluster_rank>  (1025) 
682

>  <N_interactions>  (1025) 
2

>  <∆∆G>  (1025) 
-1.578674

>  <comRMSD>  (1025) 
0.581918

>  <ROCS_TanimotoCombo>  (1025) 
0.311

>  <ROCS_ShapeTanimoto>  (1025) 
0.21

>  <ROCS_ColorTanimoto>  (1025) 
0.101

$$$$
EN300_27009
     RDKit          3D

 12 12  0  0  0  0  0  0  0  0999 V2000
   34.0323    9.3891    5.7526 C   0  0  0  0  0  0  0  0  0  0  0  0
   32.8343    9.7695    6.5723 C   0  0  0  0  0  0  0  0  0  0  0  0
   31.9795    8.6738    6.9825 N   0  0  0  0  0  0  0  0  0  0  0  0
   31.0100    9.3305    7.6265 N   0  0  0  0  0  0  0  0  0  0  0  0
   29.9051    8.6381    8.2409 C   0  0  0  0  0  0  0  0  0  0  0  0
   31.1674   10.6760    7.6464 C   0  0  0  0  0  0  0  0  0  0  0  0
   30.1545   11.5975    8.2599 C   0  0  0  0  0  0  0  0  0  0  0  0
   32.4560   11.2137    7.0105 C   0  0  0  0  0  0  0  0  0  0  0  0
   32.9741   12.7921    6.9595 S   0  0  0  0  0  6  0  0  0  0  0  0
   31.5288   13.5268    7.3213 N   0  0  0  0  0  0  0  0  0  0  0  0
   33.3985   13.1303    5.6322 O   0  0  0  0  0  0  0  0  0  0  0  0
   33.7508   12.9287    8.1804 O   0  0  0  0  0  0  0  0  0  0  0  0
  1  2  1  0
  2  3  2  0
  3  4  1  0
  4  5  1  0
  4  6  1  0
  6  7  1  0
  6  8  2  0
  8  9  1  0
  9 10  1  0
  9 11  2  0
  9 12  2  0
  8  2  1  0
A    1
 C1 
A    2
 C2 
A    3
 N1 
A    4
 N2 
A    5
 C3 
A    6
 C4 
A    7
 C5 
A    8
 C6 
A    9
 S1 
A   10
 N3 
A   11
 O1 
A   12
 O2 
M  END
>  <ref_pdb>  (1026) 
Ax0310a

>  <ref_mols>  (1026) 
Ax0446a,Ax1080a,Ax0812a,Ax0719a,Ax1140a,Ax0528a,Ax0310a

>  <original SMILES>  (1026) 
Cc1nn(C)c(C)c1S(N)(=O)=O

>  <rationale>  (1026) 
info info set:sulfonimide_joint;hbond:S87+G127; 

>  <experiment>  (1026) 
sulfonimide_joint

>  <cluster_label>  (1026) 
3

>  <cluster_rank>  (1026) 
683

>  <N_interactions>  (1026) 
2

>  <∆∆G>  (1026) 
-6.036847

>  <comRMSD>  (1026) 
0.938937

>  <ROCS_TanimotoCombo>  (1026) 
0.317

>  <ROCS_ShapeTanimoto>  (1026) 
0.147

>  <ROCS_ColorTanimoto>  (1026) 
0.17

$$$$
Z5865375750
     RDKit          3D

 21 23  0  0  0  0  0  0  0  0999 V2000
   35.0180   12.1161    3.8935 C   0  0  0  0  0  0  0  0  0  0  0  0
   34.5335   10.8755    4.6047 C   0  0  0  0  0  0  0  0  0  0  0  0
   35.1607    9.4714    4.5354 C   0  0  0  0  0  0  0  0  0  0  0  0
   34.4275    8.6378    5.3196 N   0  0  0  0  0  0  0  0  0  0  0  0
   33.3207    9.3699    5.9330 C   0  0  0  0  0  0  0  0  0  0  0  0
   32.3110    8.8117    6.8478 N   0  0  0  0  0  0  0  0  0  0  0  0
   31.4270    9.7691    7.1805 C   0  0  0  0  0  0  0  0  0  0  0  0
   31.4913   11.0836    6.7157 C   0  0  0  0  0  0  0  0  0  0  0  0
   30.3908   11.9245    7.1518 C   0  0  0  0  0  0  0  0  0  0  0  0
   29.8474   11.6153    8.4750 C   0  0  0  0  0  0  0  0  0  0  0  0
   28.6612   12.5204    8.9060 C   0  0  0  0  0  0  0  0  0  0  0  0
   28.1984   13.5121    8.0609 C   0  0  0  0  0  0  0  0  0  0  0  0
   28.8134   13.5998    6.9471 C   0  0  0  0  0  0  0  0  0  0  0  0
   28.0692   14.6065    6.4581 C   0  0  0  0  0  0  0  0  0  0  0  0
   28.5252   15.6800    6.8613 O   0  0  0  0  0  0  0  0  0  0  0  0
   26.9419   14.1562    5.7286 N   0  0  0  0  0  0  0  0  0  0  0  0
   26.7524   14.1398    4.2947 C   0  0  0  0  0  0  0  0  0  0  0  0
   26.4025   12.9323    6.2503 C   0  0  0  0  0  0  0  0  0  0  0  0
   29.8571   12.9238    6.4054 C   0  0  0  0  0  0  0  0  0  0  0  0
   32.4643   11.5713    5.8914 C   0  0  0  0  0  0  0  0  0  0  0  0
   33.4098   10.7058    5.4721 C   0  0  0  0  0  0  0  0  0  0  0  0
  1  2  1  0
  2  3  2  0
  3  4  1  0
  4  5  1  0
  5  6  2  0
  6  7  1  0
  7  8  2  0
  8  9  1  0
  9 10  2  0
 10 11  1  0
 11 12  2  0
 12 13  1  0
 13 14  1  0
 14 15  2  0
 14 16  1  0
 16 17  1  0
 16 18  1  0
 13 19  2  0
  8 20  1  0
 20 21  2  0
 21  2  1  0
 21  5  1  0
 19  9  1  0
A    1
 C1 
A    2
 C2 
A    3
 C3 
A    4
 N1 
A    5
 C4 
A    6
 N2 
A    7
 C5 
A    8
 C6 
A    9
 C7 
A   10
 C8 
A   11
 C9 
A   12
 C10
A   13
 C11
A   14
 C12
A   15
 O1 
A   16
 N3 
A   17
 C13
A   18
 C14
A   19
 C15
A   20
 C16
A   21
 C17
M  END
>  <ref_pdb>  (1027) 
Ax0310a

>  <ref_mols>  (1027) 
Ax0446a,Ax1080a,Ax0812a,Ax0719a,Ax1140a,Ax0528a,Ax0310a

>  <original SMILES>  (1027) 
Cc1c[nH]c2ncc(-c3cccc(C(=O)N(C)C)c3)cc12

>  <rationale>  (1027) 
info info set:screening_pocket;hydroph_interaction:P107; 

>  <experiment>  (1027) 
screening_pocket

>  <cluster_label>  (1027) 
3

>  <cluster_rank>  (1027) 
684

>  <N_interactions>  (1027) 
2

>  <∆∆G>  (1027) 
-3.91498

>  <comRMSD>  (1027) 
0.683369

>  <ROCS_TanimotoCombo>  (1027) 
0.647

>  <ROCS_ShapeTanimoto>  (1027) 
0.267

>  <ROCS_ColorTanimoto>  (1027) 
0.38

$$$$
EN300_1989567
     RDKit          3D

 13 14  0  0  0  0  0  0  0  0999 V2000
   34.5074   14.3708    8.0143 N   0  0  0  0  0  0  0  0  0  0  0  0
   33.8131   13.6227    6.6768 S   0  0  0  0  0  6  0  0  0  0  0  0
   33.4190   14.6285    5.7501 O   0  0  0  0  0  0  0  0  0  0  0  0
   34.7271   12.6309    6.2112 O   0  0  0  0  0  0  0  0  0  0  0  0
   32.3969   12.8193    7.3432 C   0  0  0  0  0  0  0  0  0  0  0  0
   31.3266   13.5484    8.1293 C   0  0  0  0  0  0  0  0  0  0  0  0
   30.1671   12.7796    8.6408 C   0  0  0  0  0  0  0  0  0  0  0  0
   30.1622   11.2898    8.3561 C   0  0  0  0  0  0  0  0  0  0  0  0
   31.1811   10.7502    7.6480 C   0  0  0  0  0  0  0  0  0  0  0  0
   31.2939    9.4145    7.3283 N   0  0  0  0  0  0  0  0  0  0  0  0
   32.4864    9.2215    6.5686 C   0  0  0  0  0  0  0  0  0  0  0  0
   33.0285   10.4620    6.4789 C   0  0  0  0  0  0  0  0  0  0  0  0
   32.2790   11.4465    7.1297 C   0  0  0  0  0  0  0  0  0  0  0  0
  1  2  1  0
  2  3  2  0
  2  4  2  0
  2  5  1  0
  5  6  2  0
  6  7  1  0
  7  8  2  0
  8  9  1  0
  9 10  1  0
 10 11  1  0
 11 12  2  0
 12 13  1  0
 13  5  1  0
 13  9  2  0
A    1
 N1 
A    2
 S1 
A    3
 O1 
A    4
 O2 
A    5
 C1 
A    6
 C2 
A    7
 C3 
A    8
 C4 
A    9
 C5 
A   10
 N2 
A   11
 C6 
A   12
 C7 
A   13
 C8 
M  END
>  <ref_pdb>  (1028) 
Ax0310a

>  <ref_mols>  (1028) 
Ax0446a,Ax1080a,Ax0812a,Ax0719a,Ax1140a,Ax0528a,Ax0310a

>  <original SMILES>  (1028) 
NS(=O)(=O)c1cccc2[nH]ccc12

>  <rationale>  (1028) 
info info set:sulfonimide_joint;hbond:G127; 

>  <experiment>  (1028) 
sulfonimide_joint

>  <cluster_label>  (1028) 
3

>  <cluster_rank>  (1028) 
685

>  <N_interactions>  (1028) 
1

>  <∆∆G>  (1028) 
-2.835339

>  <comRMSD>  (1028) 
0.720888

>  <ROCS_TanimotoCombo>  (1028) 
0.32

>  <ROCS_ShapeTanimoto>  (1028) 
0.171

>  <ROCS_ColorTanimoto>  (1028) 
0.149

$$$$
EN300_110323
     RDKit          3D

 13 13  0  0  0  0  0  0  0  0999 V2000
   29.3626    8.5309   10.1756 C   0  0  0  0  0  0  0  0  0  0  0  0
   29.9890    8.9572    8.9707 C   0  0  0  0  0  0  0  0  0  0  0  0
   28.8204    9.1388    8.2374 C   0  0  0  0  0  0  0  0  0  0  0  0
   30.6832    7.7838    8.5469 C   0  0  0  0  0  0  0  0  0  0  0  0
   30.9587    9.9610    8.9387 O   0  0  0  0  0  0  0  0  0  0  0  0
   30.8280   10.9769    8.1127 C   0  0  0  0  0  0  0  0  0  0  0  0
   30.0354   11.8743    8.2559 O   0  0  0  0  0  0  0  0  0  0  0  0
   31.7329   10.8700    7.1102 N   0  0  0  0  0  0  0  0  0  0  0  0
   32.3114   12.0344    6.5420 C   0  0  0  0  0  0  0  0  0  0  0  0
   33.1831   11.6582    5.3470 C   0  0  0  0  0  0  0  0  0  0  0  0
   33.4289   10.1586    5.5766 C   0  0  0  0  0  0  0  0  0  0  0  0
   32.4154    9.7284    6.6282 C   0  0  0  0  0  0  0  0  0  0  0  0
   32.2878    8.5620    6.9480 O   0  0  0  0  0  0  0  0  0  0  0  0
  1  2  1  0
  2  3  1  0
  2  4  1  0
  2  5  1  0
  5  6  1  0
  6  7  2  0
  6  8  1  0
  8  9  1  0
  9 10  1  0
 10 11  1  0
 11 12  1  0
 12 13  2  0
 12  8  1  0
A    1
 C1 
A    2
 C2 
A    3
 C3 
A    4
 C4 
A    5
 O1 
A    6
 C5 
A    7
 O2 
A    8
 N1 
A    9
 C6 
A   10
 C7 
A   11
 C8 
A   12
 C9 
A   13
 O3 
M  END
>  <ref_pdb>  (1029) 
Ax0310a

>  <ref_mols>  (1029) 
Ax0446a,Ax1080a,Ax0812a,Ax0719a,Ax1140a,Ax0528a,Ax0310a

>  <original SMILES>  (1029) 
CC(C)(C)OC(=O)N1CCCC1=O

>  <rationale>  (1029) 
info info set:bb_densepocket2;hydroph_interaction:P107; 

>  <experiment>  (1029) 
bb_densepocket2

>  <cluster_label>  (1029) 
3

>  <cluster_rank>  (1029) 
686

>  <N_interactions>  (1029) 
1

>  <∆∆G>  (1029) 
-3.556788

>  <comRMSD>  (1029) 
0.817824

>  <ROCS_TanimotoCombo>  (1029) 
0.614

>  <ROCS_ShapeTanimoto>  (1029) 
0.2

>  <ROCS_ColorTanimoto>  (1029) 
0.414

$$$$
Z1033339770
     RDKit          3D

 18 20  0  0  0  0  0  0  0  0999 V2000
   29.9914   10.7697    8.8169 O   0  0  0  0  0  0  0  0  0  0  0  0
   29.8931   11.8717    8.2989 C   0  0  0  0  0  0  0  0  0  0  0  0
   30.6039   12.2344    7.2427 N   0  0  0  0  0  0  0  0  0  0  0  0
   31.6096   11.3946    6.6906 C   0  0  0  0  0  0  0  0  0  0  0  0
   32.6149   11.9068    5.7014 C   0  0  0  0  0  0  0  0  0  0  0  0
   33.5836   10.9611    5.2111 C   0  0  0  0  0  0  0  0  0  0  0  0
   33.5338    9.5227    5.7175 C   0  0  0  0  0  0  0  0  0  0  0  0
   34.5034    8.6552    5.2098 N   0  0  0  0  0  0  0  0  0  0  0  0
   35.2457    9.0485    4.0138 C   0  0  0  0  0  0  0  0  0  0  0  0
   36.1327    7.9155    3.4945 C   0  0  0  0  0  0  0  0  0  0  0  0
   36.5134    8.3172    2.1499 C   0  0  0  0  0  0  0  0  0  0  0  0
   35.3452    9.1619    1.6092 C   0  0  0  0  0  0  0  0  0  0  0  0
   34.3442    9.1975    2.7862 C   0  0  0  0  0  0  0  0  0  0  0  0
   32.5993    9.1355    6.6135 N   0  0  0  0  0  0  0  0  0  0  0  0
   31.6882   10.0411    7.0666 C   0  0  0  0  0  0  0  0  0  0  0  0
   28.9631   12.9499    8.8017 C   0  0  0  0  0  0  0  0  0  0  0  0
   28.8170   14.2729    8.1080 C   0  0  0  0  0  0  0  0  0  0  0  0
   29.5002   14.2081    9.4434 C   0  0  0  0  0  0  0  0  0  0  0  0
  1  2  2  0
  2  3  1  0
  3  4  1  0
  4  5  2  0
  5  6  1  0
  6  7  2  0
  7  8  1  0
  8  9  1  0
  9 10  1  0
 10 11  1  0
 11 12  1  0
 12 13  1  0
  7 14  1  0
 14 15  2  0
  2 16  1  0
 16 17  1  0
 17 18  1  0
 15  4  1  0
 18 16  1  0
 13  9  1  0
A    1
 O1 
A    2
 C1 
A    3
 N1 
A    4
 C2 
A    5
 C3 
A    6
 C4 
A    7
 C5 
A    8
 N2 
A    9
 C6 
A   10
 C7 
A   11
 C8 
A   12
 C9 
A   13
 C10
A   14
 N3 
A   15
 C11
A   16
 C12
A   17
 C13
A   18
 C14
M  END
>  <ref_pdb>  (1030) 
Ax0310a

>  <ref_mols>  (1030) 
Ax0446a,Ax1080a,Ax0812a,Ax0719a,Ax1140a,Ax0528a,Ax0310a

>  <original SMILES>  (1030) 
O=C(Nc1ccc(NC2CCCC2)nc1)C1CC1

>  <rationale>  (1030) 
info info set:screening_pocket;hbond:S105; hydroph_interaction:P107; 

>  <experiment>  (1030) 
screening_pocket

>  <cluster_label>  (1030) 
3

>  <cluster_rank>  (1030) 
687

>  <N_interactions>  (1030) 
2

>  <∆∆G>  (1030) 
-2.910637

>  <comRMSD>  (1030) 
0.745584

>  <ROCS_TanimotoCombo>  (1030) 
0.645

>  <ROCS_ShapeTanimoto>  (1030) 
0.221

>  <ROCS_ColorTanimoto>  (1030) 
0.424

$$$$
Z641237668
     RDKit          3D

 15 16  0  0  0  0  0  0  0  0999 V2000
   34.1610    8.8754    5.2547 O   0  0  0  0  0  0  0  0  0  0  0  0
   33.1900    9.4963    5.9863 C   0  0  0  0  0  0  0  0  0  0  0  0
   33.1630   10.8217    5.8082 N   0  0  0  0  0  0  0  0  0  0  0  0
   32.2100   11.4655    6.5138 C   0  0  0  0  0  0  0  0  0  0  0  0
   31.2109   10.7346    7.4655 C   0  0  0  0  0  0  0  0  0  0  0  0
   30.1926   11.2928    8.2320 N   0  0  0  0  0  0  0  0  0  0  0  0
   29.7798   12.6915    8.1219 C   0  0  0  0  0  0  0  0  0  0  0  0
   29.6759   13.0779    6.6573 C   0  0  0  0  0  0  0  0  0  0  0  0
   28.7075   14.2380    6.4134 C   0  0  0  0  0  0  0  0  0  0  0  0
   28.3048   14.9164    7.6506 C   0  0  0  0  0  0  0  0  0  0  0  0
   28.2662   14.3066    8.8664 C   0  0  0  0  0  0  0  0  0  0  0  0
   28.3787   12.9707    8.6853 C   0  0  0  0  0  0  0  0  0  0  0  0
   31.4654    9.3794    7.4618 C   0  0  0  0  0  0  0  0  0  0  0  0
   30.7236    8.5265    8.2192 O   0  0  0  0  0  0  0  0  0  0  0  0
   32.4016    8.7394    6.7719 N   0  0  0  0  0  0  0  0  0  0  0  0
  1  2  1  0
  2  3  2  0
  3  4  1  0
  4  5  2  0
  5  6  1  0
  6  7  1  0
  7  8  1  0
  8  9  1  0
  9 10  1  0
 10 11  1  0
 11 12  1  0
  5 13  1  0
 13 14  1  0
 13 15  2  0
 15  2  1  0
 12  7  1  0
A    1
 O1 
A    2
 C1 
A    3
 N1 
A    4
 C2 
A    5
 C3 
A    6
 N2 
A    7
 C4 
A    8
 C5 
A    9
 C6 
A   10
 C7 
A   11
 C8 
A   12
 C9 
A   13
 C10
A   14
 O2 
A   15
 N3 
M  END
>  <ref_pdb>  (1031) 
Ax0310a

>  <ref_mols>  (1031) 
Ax0446a,Ax1080a,Ax0812a,Ax0719a,Ax1140a,Ax0528a,Ax0310a

>  <original SMILES>  (1031) 
Oc1ncc(NC2CCCCC2)c(O)n1

>  <rationale>  (1031) 
info info set:screening_pocket;hbond:S105+G127; hydroph_interaction:P107+Y89; 

>  <experiment>  (1031) 
screening_pocket

>  <cluster_label>  (1031) 
3

>  <cluster_rank>  (1031) 
688

>  <N_interactions>  (1031) 
4

>  <∆∆G>  (1031) 
-3.512144

>  <comRMSD>  (1031) 
0.664081

>  <ROCS_TanimotoCombo>  (1031) 
0.631

>  <ROCS_ShapeTanimoto>  (1031) 
0.247

>  <ROCS_ColorTanimoto>  (1031) 
0.384

$$$$
Z4784568053
     RDKit          3D

 17 19  0  0  0  0  0  0  0  0999 V2000
   30.9507    8.7911    8.0560 N   0  0  0  0  0  0  0  0  0  0  0  0
   31.7534    9.0827    7.2823 C   0  0  0  0  0  0  0  0  0  0  0  0
   32.7312    8.7307    6.4520 N   0  0  0  0  0  0  0  0  0  0  0  0
   33.4501    9.6409    5.6651 C   0  0  0  0  0  0  0  0  0  0  0  0
   34.5349    9.0576    4.7625 C   0  0  0  0  0  0  0  0  0  0  0  0
   35.4208    9.8995    3.8415 C   0  0  0  0  0  0  0  0  0  0  0  0
   35.1487   11.4101    3.8799 C   0  0  0  0  0  0  0  0  0  0  0  0
   34.1401   11.8516    4.7295 C   0  0  0  0  0  0  0  0  0  0  0  0
   33.2609   11.0004    5.6411 C   0  0  0  0  0  0  0  0  0  0  0  0
   32.2802   11.5501    6.4387 C   0  0  0  0  0  0  0  0  0  0  0  0
   31.5533   10.4738    7.2451 C   0  0  0  0  0  0  0  0  0  0  0  0
   30.4641   11.0432    8.1126 C   0  0  0  0  0  0  0  0  0  0  0  0
   30.2077   10.4012    9.0881 O   0  0  0  0  0  0  0  0  0  0  0  0
   29.7853   12.2068    7.7229 N   0  0  0  0  0  0  0  0  0  0  0  0
   29.8467   13.4564    8.4297 C   0  0  0  0  0  0  0  0  0  0  0  0
   28.8593   13.9099    9.3176 C   0  0  0  0  0  0  0  0  0  0  0  0
   28.6224   14.5725    8.2212 C   0  0  0  0  0  0  0  0  0  0  0  0
  1  2  1  0
  2  3  2  0
  3  4  1  0
  4  5  2  0
  5  6  1  0
  6  7  2  0
  7  8  1  0
  8  9  2  0
  9 10  1  0
 10 11  2  0
 11 12  1  0
 12 13  2  0
 12 14  1  0
 14 15  1  0
 15 16  1  0
 16 17  1  0
 11  2  1  0
 17 15  1  0
  9  4  1  0
A    1
 N1 
A    2
 C1 
A    3
 N2 
A    4
 C2 
A    5
 C3 
A    6
 C4 
A    7
 C5 
A    8
 C6 
A    9
 C7 
A   10
 C8 
A   11
 C9 
A   12
 C10
A   13
 O1 
A   14
 N3 
A   15
 C11
A   16
 C12
A   17
 C13
M  END
>  <ref_pdb>  (1032) 
Ax0310a

>  <ref_mols>  (1032) 
Ax0446a,Ax1080a,Ax0812a,Ax0719a,Ax1140a,Ax0528a,Ax0310a

>  <original SMILES>  (1032) 
Nc1nc2ccccc2cc1C(=O)NC1CC1

>  <rationale>  (1032) 
info info set:screening_pocket;hbond:S105; hydroph_interaction:P107; 

>  <experiment>  (1032) 
screening_pocket

>  <cluster_label>  (1032) 
3

>  <cluster_rank>  (1032) 
689

>  <N_interactions>  (1032) 
2

>  <∆∆G>  (1032) 
-3.63415

>  <comRMSD>  (1032) 
0.590496

>  <ROCS_TanimotoCombo>  (1032) 
0.637

>  <ROCS_ShapeTanimoto>  (1032) 
0.28

>  <ROCS_ColorTanimoto>  (1032) 
0.357

$$$$
EN300_372002
     RDKit          3D

 13 14  0  0  0  0  0  0  0  0999 V2000
   34.9420   13.8782    8.0225 N   0  0  0  0  0  0  0  0  0  0  0  0
   34.0022   13.5384    6.6721 S   0  0  0  0  0  6  0  0  0  0  0  0
   34.7428   12.6024    5.8773 O   0  0  0  0  0  0  0  0  0  0  0  0
   33.6738   14.7753    6.0716 O   0  0  0  0  0  0  0  0  0  0  0  0
   32.5617   12.6426    7.2997 C   0  0  0  0  0  0  0  0  0  0  0  0
   31.5380   13.3859    8.0889 C   0  0  0  0  0  0  0  0  0  0  0  0
   30.4207   12.7618    8.5871 C   0  0  0  0  0  0  0  0  0  0  0  0
   30.2792   11.3984    8.3545 C   0  0  0  0  0  0  0  0  0  0  0  0
   31.2198   10.6845    7.6424 C   0  0  0  0  0  0  0  0  0  0  0  0
   31.2288    9.3879    7.3624 N   0  0  0  0  0  0  0  0  0  0  0  0
   32.3699    9.1853    6.6222 O   0  0  0  0  0  0  0  0  0  0  0  0
   33.0544   10.3730    6.4616 N   0  0  0  0  0  0  0  0  0  0  0  0
   32.3354   11.2899    7.1113 C   0  0  0  0  0  0  0  0  0  0  0  0
  1  2  1  0
  2  3  2  0
  2  4  2  0
  2  5  1  0
  5  6  2  0
  6  7  1  0
  7  8  2  0
  8  9  1  0
  9 10  2  0
 10 11  1  0
 11 12  1  0
 12 13  2  0
 13  5  1  0
 13  9  1  0
A    1
 N1 
A    2
 S1 
A    3
 O1 
A    4
 O2 
A    5
 C1 
A    6
 C2 
A    7
 C3 
A    8
 C4 
A    9
 C5 
A   10
 N2 
A   11
 O3 
A   12
 N3 
A   13
 C6 
M  END
>  <ref_pdb>  (1033) 
Ax0310a

>  <ref_mols>  (1033) 
Ax0446a,Ax1080a,Ax0812a,Ax0719a,Ax1140a,Ax0528a,Ax0310a

>  <original SMILES>  (1033) 
NS(=O)(=O)c1cccc2nonc12

>  <rationale>  (1033) 
info info set:sulfonimide_whole;hbond:E85; 

>  <experiment>  (1033) 
sulfonimide_whole

>  <cluster_label>  (1033) 
3

>  <cluster_rank>  (1033) 
690

>  <N_interactions>  (1033) 
1

>  <∆∆G>  (1033) 
-1.848216

>  <comRMSD>  (1033) 
0.735322

>  <ROCS_TanimotoCombo>  (1033) 
0.325

>  <ROCS_ShapeTanimoto>  (1033) 
0.175

>  <ROCS_ColorTanimoto>  (1033) 
0.15

$$$$
EN300_7379699
     RDKit          3D

 16 16  0  0  0  0  0  0  0  0999 V2000
   34.3793    8.9187    4.5154 C   0  0  0  0  0  0  0  0  0  0  0  0
   33.4502    9.5766    5.5045 C   0  0  0  0  0  0  0  0  0  0  0  0
   32.7240    9.0314    6.4703 N   0  0  0  0  0  0  0  0  0  0  0  0
   32.0689   10.0826    7.0943 N   0  0  0  0  0  0  0  0  0  0  0  0
   31.2820    9.8287    8.1193 C   0  0  0  0  0  0  0  0  0  0  0  0
   30.6023   10.6888    8.6536 O   0  0  0  0  0  0  0  0  0  0  0  0
   31.3860    8.4583    8.4974 O   0  0  0  0  0  0  0  0  0  0  0  0
   29.9848    8.2330    8.5862 C   0  0  0  0  0  0  0  0  0  0  0  0
   29.0291    9.3638    8.4500 C   0  0  0  0  0  0  0  0  0  0  0  0
   29.6550    8.5263    9.9886 C   0  0  0  0  0  0  0  0  0  0  0  0
   29.6095    7.1168    9.4671 C   0  0  0  0  0  0  0  0  0  0  0  0
   32.3361   11.2751    6.5649 C   0  0  0  0  0  0  0  0  0  0  0  0
   31.8454   12.6790    6.9331 C   0  0  0  0  0  0  0  0  0  0  0  0
   33.2951   11.0756    5.4284 C   0  0  0  0  0  0  0  0  0  0  0  0
   33.9214   11.9897    4.5097 C   0  0  0  0  0  0  0  0  0  0  0  0
   34.2677   11.6721    3.3750 O   0  0  0  0  0  0  0  0  0  0  0  0
  1  2  1  0
  2  3  2  0
  3  4  1  0
  4  5  1  0
  5  6  2  0
  5  7  1  0
  7  8  1  0
  8  9  1  0
  8 10  1  0
  8 11  1  0
  4 12  1  0
 12 13  1  0
 12 14  2  0
 14 15  1  0
 15 16  2  0
 14  2  1  0
A    1
 C1 
A    2
 C2 
A    3
 N1 
A    4
 N2 
A    5
 C3 
A    6
 O1 
A    7
 O2 
A    8
 C4 
A    9
 C5 
A   10
 C6 
A   11
 C7 
A   12
 C8 
A   13
 C9 
A   14
 C10
A   15
 C11
A   16
 O3 
M  END
>  <ref_pdb>  (1034) 
Ax0310a

>  <ref_mols>  (1034) 
Ax0446a,Ax1080a,Ax0812a,Ax0719a,Ax1140a,Ax0528a,Ax0310a

>  <original SMILES>  (1034) 
Cc1nn(C(=O)OC(C)(C)C)c(C)c1C=O

>  <rationale>  (1034) 
info info set:bb_densepocket2;hydroph_interaction:P107+V124+D109; 

>  <experiment>  (1034) 
bb_densepocket2

>  <cluster_label>  (1034) 
3

>  <cluster_rank>  (1034) 
691

>  <N_interactions>  (1034) 
4

>  <∆∆G>  (1034) 
-6.902418

>  <comRMSD>  (1034) 
0.669456

>  <ROCS_TanimotoCombo>  (1034) 
0.606

>  <ROCS_ShapeTanimoto>  (1034) 
0.237

>  <ROCS_ColorTanimoto>  (1034) 
0.37

$$$$
EN300_801140
     RDKit          3D

 16 17  0  0  0  0  0  0  0  0999 V2000
   36.1711   11.9957    3.5886 C   0  0  0  0  0  0  0  0  0  0  0  0
   35.0926   11.3284    4.4028 C   0  0  0  0  0  0  0  0  0  0  0  0
   35.0873    9.8367    4.2998 C   0  0  0  0  0  0  0  0  0  0  0  0
   34.0607    9.1088    5.0748 C   0  0  0  0  0  0  0  0  0  0  0  0
   33.0663    9.8934    5.9393 C   0  0  0  0  0  0  0  0  0  0  0  0
   32.1303    9.2291    6.6606 N   0  0  0  0  0  0  0  0  0  0  0  0
   31.1486    9.8921    7.4898 C   0  0  0  0  0  0  0  0  0  0  0  0
   30.2260    8.9638    8.2089 C   0  0  0  0  0  0  0  0  0  0  0  0
   30.6630    7.6305    8.4069 C   0  0  0  0  0  0  0  0  0  0  0  0
   30.2451    9.2975    9.5446 C   0  0  0  0  0  0  0  0  0  0  0  0
   28.7610    9.0206    8.2630 C   0  0  0  0  0  0  0  0  0  0  0  0
   31.1247   11.2656    7.5826 C   0  0  0  0  0  0  0  0  0  0  0  0
   30.2222   11.9293    8.3472 O   0  0  0  0  0  0  0  0  0  0  0  0
   32.1671   12.0456    6.7953 C   0  0  0  0  0  0  0  0  0  0  0  0
   33.1695   11.2891    5.9456 C   0  0  0  0  0  0  0  0  0  0  0  0
   34.1538   11.9859    5.2014 C   0  0  0  0  0  0  0  0  0  0  0  0
  1  2  1  0
  2  3  2  0
  3  4  1  0
  4  5  2  0
  5  6  1  0
  6  7  2  0
  7  8  1  0
  8  9  1  0
  8 10  1  0
  8 11  1  0
  7 12  1  0
 12 13  1  0
 12 14  2  0
 14 15  1  0
 15 16  2  0
 16  2  1  0
 15  5  1  0
A    1
 C1 
A    2
 C2 
A    3
 C3 
A    4
 C4 
A    5
 C5 
A    6
 N1 
A    7
 C6 
A    8
 C7 
A    9
 C8 
A   10
 C9 
A   11
 C10
A   12
 C11
A   13
 O1 
A   14
 C12
A   15
 C13
A   16
 C14
M  END
>  <ref_pdb>  (1035) 
Ax0310a

>  <ref_mols>  (1035) 
Ax0446a,Ax1080a,Ax0812a,Ax0719a,Ax1140a,Ax0528a,Ax0310a

>  <original SMILES>  (1035) 
Cc1ccc2nc(C(C)(C)C)c(O)cc2c1

>  <rationale>  (1035) 
info info set:bb_densepocket2;hbond:S125; 

>  <experiment>  (1035) 
bb_densepocket2

>  <cluster_label>  (1035) 
3

>  <cluster_rank>  (1035) 
692

>  <N_interactions>  (1035) 
1

>  <∆∆G>  (1035) 
-4.020189

>  <comRMSD>  (1035) 
0.611334

>  <ROCS_TanimotoCombo>  (1035) 
0.619

>  <ROCS_ShapeTanimoto>  (1035) 
0.271

>  <ROCS_ColorTanimoto>  (1035) 
0.347

$$$$
EN300_6746303
     RDKit          3D

 15 16  0  0  0  0  0  0  0  0999 V2000
   29.2964   12.7468    8.6138 N   0  0  0  0  0  0  0  0  0  0  0  0
   30.6756   13.1770    7.7907 S   0  0  0  0  0  6  0  0  0  0  0  0
   31.4921   13.9563    8.6985 O   0  0  0  0  0  0  0  0  0  0  0  0
   30.1078   13.6742    6.5644 O   0  0  0  0  0  0  0  0  0  0  0  0
   31.4615   11.6309    7.3919 C   0  0  0  0  0  0  0  0  0  0  0  0
   30.7922   10.4230    8.0588 C   0  0  0  0  0  0  0  0  0  0  0  0
   31.3820    9.2164    7.7164 C   0  0  0  0  0  0  0  0  0  0  0  0
   32.4766    9.1333    6.8490 C   0  0  0  0  0  0  0  0  0  0  0  0
   33.1270   10.3470    6.2187 C   0  0  0  0  0  0  0  0  0  0  0  0
   34.1856   10.1526    5.4059 N   0  0  0  0  0  0  0  0  0  0  0  0
   34.7680   11.2341    4.8428 C   0  0  0  0  0  0  0  0  0  0  0  0
   36.2505   10.9809    3.6910 Br  0  0  0  0  0  0  0  0  0  0  0  0
   34.3148   12.5310    5.0730 C   0  0  0  0  0  0  0  0  0  0  0  0
   33.2095   12.7076    5.9211 C   0  0  0  0  0  0  0  0  0  0  0  0
   32.5817   11.5914    6.5229 C   0  0  0  0  0  0  0  0  0  0  0  0
  1  2  1  0
  2  3  2  0
  2  4  2  0
  2  5  1  0
  5  6  2  0
  6  7  1  0
  7  8  2  0
  8  9  1  0
  9 10  2  0
 10 11  1  0
 11 12  1  0
 11 13  2  0
 13 14  1  0
 14 15  2  0
 15  5  1  0
 15  9  1  0
A    1
 N1 
A    2
 S1 
A    3
 O1 
A    4
 O2 
A    5
 C1 
A    6
 C2 
A    7
 C3 
A    8
 C4 
A    9
 C5 
A   10
 N2 
A   11
 C6 
A   12
BR1 
A   13
 C7 
A   14
 C8 
A   15
 C9 
M  END
>  <ref_pdb>  (1036) 
Ax0310a

>  <ref_mols>  (1036) 
Ax0446a,Ax1080a,Ax0812a,Ax0719a,Ax1140a,Ax0528a,Ax0310a

>  <original SMILES>  (1036) 
NS(=O)(=O)c1cccc2nc(Br)ccc12

>  <rationale>  (1036) 
info info set:sulfonimide_whole;hbond:S87+S125; 

>  <experiment>  (1036) 
sulfonimide_whole

>  <cluster_label>  (1036) 
3

>  <cluster_rank>  (1036) 
693

>  <N_interactions>  (1036) 
2

>  <∆∆G>  (1036) 
-6.367002

>  <comRMSD>  (1036) 
0.58203

>  <ROCS_TanimotoCombo>  (1036) 
0.332

>  <ROCS_ShapeTanimoto>  (1036) 
0.192

>  <ROCS_ColorTanimoto>  (1036) 
0.14

$$$$
EN300_39671429
     RDKit          3D

 15 16  0  0  0  0  0  0  0  0999 V2000
   29.2762   12.1695    8.3820 N   0  0  0  0  0  0  0  0  0  0  0  0
   30.6137   12.8723    7.7286 S   0  0  0  0  0  6  0  0  0  0  0  0
   31.3270   13.5731    8.7726 O   0  0  0  0  0  0  0  0  0  0  0  0
   30.1062   13.5152    6.5386 O   0  0  0  0  0  0  0  0  0  0  0  0
   31.5751   11.5234    7.1934 C   0  0  0  0  0  0  0  0  0  0  0  0
   31.3938   10.0018    7.4600 C   0  0  0  0  0  0  0  0  0  0  0  0
   32.1958    9.0405    6.9735 N   0  0  0  0  0  0  0  0  0  0  0  0
   33.1871    9.5933    6.1985 C   0  0  0  0  0  0  0  0  0  0  0  0
   34.3690    8.7119    5.3797 Cl  0  0  0  0  0  0  0  0  0  0  0  0
   33.4806   10.8638    5.8942 C   0  0  0  0  0  0  0  0  0  0  0  0
   34.6942   10.6957    5.0418 C   0  0  0  0  0  0  0  0  0  0  0  0
   35.1060   12.1904    4.6551 C   0  0  0  0  0  0  0  0  0  0  0  0
   34.3123   13.2448    5.1446 C   0  0  0  0  0  0  0  0  0  0  0  0
   33.1824   13.1227    5.9476 C   0  0  0  0  0  0  0  0  0  0  0  0
   32.7694   11.9028    6.3262 C   0  0  0  0  0  0  0  0  0  0  0  0
  1  2  1  0
  2  3  2  0
  2  4  2  0
  2  5  1  0
  5  6  2  0
  6  7  1  0
  7  8  2  0
  8  9  1  0
  8 10  1  0
 10 11  2  0
 11 12  1  0
 12 13  2  0
 13 14  1  0
 14 15  2  0
 15  5  1  0
 15 10  1  0
A    1
 N1 
A    2
 S1 
A    3
 O1 
A    4
 O2 
A    5
 C1 
A    6
 C2 
A    7
 N2 
A    8
 C3 
A    9
CL1 
A   10
 C4 
A   11
 C5 
A   12
 C6 
A   13
 C7 
A   14
 C8 
A   15
 C9 
M  END
>  <ref_pdb>  (1037) 
Ax0310a

>  <ref_mols>  (1037) 
Ax0446a,Ax1080a,Ax0812a,Ax0719a,Ax1140a,Ax0528a,Ax0310a

>  <original SMILES>  (1037) 
NS(=O)(=O)c1cnc(Cl)c2ccccc12

>  <rationale>  (1037) 
info info set:sulfonimide_whole;hbond:S87+S125; 

>  <experiment>  (1037) 
sulfonimide_whole

>  <cluster_label>  (1037) 
3

>  <cluster_rank>  (1037) 
694

>  <N_interactions>  (1037) 
2

>  <∆∆G>  (1037) 
-2.196365

>  <comRMSD>  (1037) 
0.900044

>  <ROCS_TanimotoCombo>  (1037) 
0.341

>  <ROCS_ShapeTanimoto>  (1037) 
0.202

>  <ROCS_ColorTanimoto>  (1037) 
0.139

$$$$
EN300_218023
     RDKit          3D

 14 14  0  0  0  0  0  0  0  0999 V2000
   35.3821   12.0960    5.4388 C   0  0  0  0  0  0  0  0  0  0  0  0
   35.0095   10.7198    5.3882 O   0  0  0  0  0  0  0  0  0  0  0  0
   33.6985   10.4229    5.1401 C   0  0  0  0  0  0  0  0  0  0  0  0
   32.7204   10.4979    6.1380 C   0  0  0  0  0  0  0  0  0  0  0  0
   32.2011    9.3229    6.9067 C   0  0  0  0  0  0  0  0  0  0  0  0
   31.2195    9.4959    7.8783 C   0  0  0  0  0  0  0  0  0  0  0  0
   30.5946    8.1993    8.7815 Cl  0  0  0  0  0  0  0  0  0  0  0  0
   30.7232   10.7351    8.1343 C   0  0  0  0  0  0  0  0  0  0  0  0
   31.1581   11.8528    7.4629 C   0  0  0  0  0  0  0  0  0  0  0  0
   30.4456   13.4092    7.8603 S   0  0  0  0  0  6  0  0  0  0  0  0
   29.1154   13.0960    8.8211 N   0  0  0  0  0  0  0  0  0  0  0  0
   29.8102   13.8616    6.6533 O   0  0  0  0  0  0  0  0  0  0  0  0
   31.4007   14.1655    8.6405 O   0  0  0  0  0  0  0  0  0  0  0  0
   32.1571   11.7456    6.4660 C   0  0  0  0  0  0  0  0  0  0  0  0
  1  2  1  0
  2  3  1  0
  3  4  1  0
  4  5  2  0
  5  6  1  0
  6  7  1  0
  6  8  2  0
  8  9  1  0
  9 10  1  0
 10 11  1  0
 10 12  2  0
 10 13  2  0
  9 14  2  0
 14  4  1  0
A    1
 C1 
A    2
 O1 
A    3
 C2 
A    4
 C3 
A    5
 C4 
A    6
 C5 
A    7
CL1 
A    8
 C6 
A    9
 C7 
A   10
 S1 
A   11
 N1 
A   12
 O2 
A   13
 O3 
A   14
 C8 
M  END
>  <ref_pdb>  (1038) 
Ax0310a

>  <ref_mols>  (1038) 
Ax0446a,Ax1080a,Ax0812a,Ax0719a,Ax1140a,Ax0528a,Ax0310a

>  <original SMILES>  (1038) 
COCc1cc(Cl)cc(S(N)(=O)=O)c1

>  <rationale>  (1038) 
info info set:sulfonimide_whole;hbond:S87+S125; hydroph_interaction:P107; 

>  <experiment>  (1038) 
sulfonimide_whole

>  <cluster_label>  (1038) 
3

>  <cluster_rank>  (1038) 
695

>  <N_interactions>  (1038) 
3

>  <∆∆G>  (1038) 
-6.664467

>  <comRMSD>  (1038) 
0.515496

>  <ROCS_TanimotoCombo>  (1038) 
0.335

>  <ROCS_ShapeTanimoto>  (1038) 
0.194

>  <ROCS_ColorTanimoto>  (1038) 
0.141

$$$$
EN300_814470
     RDKit          3D

 10 10  0  0  0  0  0  0  0  0999 V2000
   29.5907    8.0909    8.4806 C   0  0  0  0  0  0  0  0  0  0  0  0
   30.7532    8.8876    8.8411 C   0  0  0  0  0  0  0  0  0  0  0  0
   31.4746    9.6469    7.6874 C   0  0  0  0  0  0  0  0  0  0  0  0
   32.3118    8.8431    6.9762 N   0  0  0  0  0  0  0  0  0  0  0  0
   32.9920    9.3858    5.9529 C   0  0  0  0  0  0  0  0  0  0  0  0
   32.8465   10.8550    5.5769 C   0  0  0  0  0  0  0  0  0  0  0  0
   33.5629   11.3161    4.5288 F   0  0  0  0  0  0  0  0  0  0  0  0
   31.9714   11.5581    6.3754 C   0  0  0  0  0  0  0  0  0  0  0  0
   31.2593   11.0199    7.4366 C   0  0  0  0  0  0  0  0  0  0  0  0
   30.3954   11.8623    8.1628 N   0  0  0  0  0  0  0  0  0  0  0  0
  1  2  1  0
  2  3  1  0
  3  4  2  0
  4  5  1  0
  5  6  2  0
  6  7  1  0
  6  8  1  0
  8  9  2  0
  9 10  1  0
  9  3  1  0
A    1
 C1 
A    2
 C2 
A    3
 C3 
A    4
 N1 
A    5
 C4 
A    6
 C5 
A    7
 F1 
A    8
 C6 
A    9
 C7 
A   10
 N2 
M  END
>  <ref_pdb>  (1039) 
Ax0310a

>  <ref_mols>  (1039) 
Ax0446a,Ax1080a,Ax0812a,Ax0719a,Ax1140a,Ax0528a,Ax0310a

>  <original SMILES>  (1039) 
CCc1ncc(F)cc1N

>  <rationale>  (1039) 
info info set:bb_densepocket2;hbond:S125; hydroph_interaction:P107+V124+D109; 

>  <experiment>  (1039) 
bb_densepocket2

>  <cluster_label>  (1039) 
3

>  <cluster_rank>  (1039) 
696

>  <N_interactions>  (1039) 
4

>  <∆∆G>  (1039) 
-4.453833

>  <comRMSD>  (1039) 
0.298055

>  <ROCS_TanimotoCombo>  (1039) 
0.609

>  <ROCS_ShapeTanimoto>  (1039) 
0.199

>  <ROCS_ColorTanimoto>  (1039) 
0.41

$$$$
Z4105194852
     RDKit          3D

 23 25  0  0  0  0  0  0  0  0999 V2000
   30.2066    8.5134    8.3313 C   0  0  0  0  0  0  0  0  0  0  0  0
   30.3303    9.9724    8.2383 C   0  0  0  0  0  0  0  0  0  0  0  0
   31.3147   10.4374    7.3115 N   0  0  0  0  0  0  0  0  0  0  0  0
   32.3884    9.6657    6.9780 N   0  0  0  0  0  0  0  0  0  0  0  0
   33.0640   10.4542    6.1297 C   0  0  0  0  0  0  0  0  0  0  0  0
   32.4221   11.6825    5.9513 C   0  0  0  0  0  0  0  0  0  0  0  0
   31.2658   11.6566    6.6937 C   0  0  0  0  0  0  0  0  0  0  0  0
   30.1988   12.6565    6.8202 C   0  0  0  0  0  0  0  0  0  0  0  0
   29.2726   12.6196    6.0370 O   0  0  0  0  0  0  0  0  0  0  0  0
   30.1665   13.6568    7.7712 N   0  0  0  0  0  0  0  0  0  0  0  0
   28.9464   14.4400    7.9807 C   0  0  0  0  0  0  0  0  0  0  0  0
   30.8378   13.3079    8.9515 C   0  0  0  0  0  0  0  0  0  0  0  0
   32.1651   13.9691    9.0739 C   0  0  0  0  0  0  0  0  0  0  0  0
   33.4157   13.5202    8.6985 C   0  0  0  0  0  0  0  0  0  0  0  0
   34.2694   14.5204    9.0256 N   0  0  0  0  0  0  0  0  0  0  0  0
   33.5216   15.5193    9.5736 C   0  0  0  0  0  0  0  0  0  0  0  0
   32.2551   15.2254    9.6284 N   0  0  0  0  0  0  0  0  0  0  0  0
   33.0314   12.7086    5.0646 C   0  0  0  0  0  0  0  0  0  0  0  0
   34.5267   12.3540    5.0008 C   0  0  2  0  0  0  0  0  0  0  0  0
   35.4144   13.3982    4.2733 C   0  0  0  0  0  0  0  0  0  0  0  0
   34.5891   11.0967    4.3295 O   0  0  0  0  0  0  0  0  0  0  0  0
   34.3669   10.1850    5.3865 C   0  0  2  0  0  0  0  0  0  0  0  0
   34.6703    8.7975    4.9017 C   0  0  0  0  0  0  0  0  0  0  0  0
  1  2  1  0
  2  3  1  0
  3  4  1  0
  4  5  2  0
  5  6  1  0
  6  7  2  0
  7  8  1  0
  8  9  2  0
  8 10  1  0
 10 11  1  0
 10 12  1  0
 12 13  1  0
 13 14  2  0
 14 15  1  0
 15 16  1  0
 16 17  2  0
  6 18  1  0
 18 19  1  0
 19 20  1  6
 19 21  1  0
 21 22  1  0
 22 23  1  6
  7  3  1  0
 17 13  1  0
 22  5  1  0
A    1
 C1 
A    2
 C2 
A    3
 N1 
A    4
 N2 
A    5
 C3 
A    6
 C4 
A    7
 C5 
A    8
 C6 
A    9
 O1 
A   10
 N3 
A   11
 C7 
A   12
 C8 
A   13
 C9 
A   14
 C10
A   15
 N4 
A   16
 C11
A   17
 N5 
A   18
 C12
A   19
 C13
A   20
 C14
A   21
 O2 
A   22
 C15
A   23
 C16
M  END
>  <ref_pdb>  (1040) 
Ax0310a

>  <ref_mols>  (1040) 
Ax0446a,Ax1080a,Ax0812a,Ax0719a,Ax1140a,Ax0528a,Ax0310a

>  <original SMILES>  (1040) 
CCn1nc2c(c1C(=O)N(C)Cc1c[nH]cn1)C[C@H](C)O[C@@H]2C

>  <rationale>  (1040) 
info info set:screening_whole;hbond:S87; hydroph_interaction:P107+V124; 

>  <experiment>  (1040) 
screening_whole

>  <cluster_label>  (1040) 
3

>  <cluster_rank>  (1040) 
697

>  <N_interactions>  (1040) 
3

>  <∆∆G>  (1040) 
-6.528668

>  <comRMSD>  (1040) 
0.858768

>  <ROCS_TanimotoCombo>  (1040) 
0.464

>  <ROCS_ShapeTanimoto>  (1040) 
0.269

>  <ROCS_ColorTanimoto>  (1040) 
0.196

$$$$
EN300_748970
     RDKit          3D

 13 13  0  0  0  0  0  0  0  0999 V2000
   34.0734    9.1206    5.4220 C   0  0  0  0  0  0  0  0  0  0  0  0
   32.8990    9.6263    6.2301 C   0  0  0  0  0  0  0  0  0  0  0  0
   32.5894   11.0450    5.9403 C   0  0  0  0  0  0  0  0  0  0  0  0
   31.5926   11.6639    6.5582 N   0  0  0  0  0  0  0  0  0  0  0  0
   30.9229   10.9044    7.4406 C   0  0  0  0  0  0  0  0  0  0  0  0
   29.9117   11.5126    8.0739 C   0  0  0  0  0  0  0  0  0  0  0  0
   30.2474   12.5448    8.7947 N   0  0  0  0  0  0  0  0  0  0  0  0
   30.0290   14.0370    8.2474 S   0  0  0  0  0  6  0  0  0  0  0  0
   28.5385   14.6776    8.9775 C   0  0  0  0  0  0  0  0  0  0  0  0
   29.7967   13.8867    6.8298 O   0  0  0  0  0  0  0  0  0  0  0  0
   31.1422   14.7009    8.8829 O   0  0  0  0  0  0  0  0  0  0  0  0
   31.2044    9.5650    7.7241 C   0  0  0  0  0  0  0  0  0  0  0  0
   32.1969    8.8862    7.1272 N   0  0  0  0  0  0  0  0  0  0  0  0
  1  2  1  0
  2  3  2  0
  3  4  1  0
  4  5  2  0
  5  6  1  0
  6  7  1  0
  7  8  1  0
  8  9  1  0
  8 10  2  0
  8 11  2  0
  5 12  1  0
 12 13  2  0
 13  2  1  0
A    1
 C1 
A    2
 C2 
A    3
 C3 
A    4
 N1 
A    5
 C4 
A    6
 C5 
A    7
 N2 
A    8
 S1 
A    9
 C6 
A   10
 O1 
A   11
 O2 
A   12
 C7 
A   13
 N3 
M  END
>  <ref_pdb>  (1041) 
Ax0310a

>  <ref_mols>  (1041) 
Ax0446a,Ax1080a,Ax0812a,Ax0719a,Ax1140a,Ax0528a,Ax0310a

>  <original SMILES>  (1041) 
Cc1cnc(CNS(C)(=O)=O)cn1

>  <rationale>  (1041) 
info info set:sulfonimide_whole;hbond:S87+S125; 

>  <experiment>  (1041) 
sulfonimide_whole

>  <cluster_label>  (1041) 
3

>  <cluster_rank>  (1041) 
698

>  <N_interactions>  (1041) 
2

>  <∆∆G>  (1041) 
-5.213522

>  <comRMSD>  (1041) 
0.618278

>  <ROCS_TanimotoCombo>  (1041) 
0.345

>  <ROCS_ShapeTanimoto>  (1041) 
0.182

>  <ROCS_ColorTanimoto>  (1041) 
0.163

$$$$
Z361883658
     RDKit          3D

 16 17  0  0  0  0  0  0  0  0999 V2000
   32.1094   14.2280    8.6278 O   0  0  0  0  0  0  0  0  0  0  0  0
   30.9647   13.8812    8.8667 C   0  0  0  0  0  0  0  0  0  0  0  0
   30.4739   14.1106   10.0918 O   0  0  0  0  0  0  0  0  0  0  0  0
   30.0342   13.1566    7.8998 C   0  0  0  0  0  0  0  0  0  0  0  0
   30.7921   11.9462    7.5176 C   0  0  0  0  0  0  0  0  0  0  0  0
   31.9914   11.9310    6.5639 C   0  0  0  0  0  0  0  0  0  0  0  0
   32.8639   10.6746    6.0883 C   0  0  0  0  0  0  0  0  0  0  0  0
   32.2089    9.4234    6.8227 C   0  0  0  0  0  0  0  0  0  0  0  0
   31.0306    9.3279    7.7879 C   0  0  0  0  0  0  0  0  0  0  0  0
   30.5580    8.2424    8.3462 F   0  0  0  0  0  0  0  0  0  0  0  0
   30.3878   10.6174    8.0908 C   0  0  0  0  0  0  0  0  0  0  0  0
   29.5561   13.8614    6.6209 C   0  0  0  0  0  0  0  0  0  0  0  0
   28.9171   15.1322    7.1710 C   0  0  0  0  0  0  0  0  0  0  0  0
   27.7047   14.8765    7.7877 O   0  0  0  0  0  0  0  0  0  0  0  0
   28.0592   14.2054    8.9617 C   0  0  0  0  0  0  0  0  0  0  0  0
   28.6284   13.0040    8.5328 C   0  0  0  0  0  0  0  0  0  0  0  0
  1  2  2  0
  2  3  1  0
  2  4  1  0
  4  5  1  0
  5  6  2  0
  6  7  1  0
  7  8  2  0
  8  9  1  0
  9 10  1  0
  9 11  2  0
  4 12  1  0
 12 13  1  0
 13 14  1  0
 14 15  1  0
 15 16  1  0
 16  4  1  0
 11  5  1  0
A    1
 O1 
A    2
 C1 
A    3
 O2 
A    4
 C2 
A    5
 C3 
A    6
 C4 
A    7
 C5 
A    8
 C6 
A    9
 C7 
A   10
 F1 
A   11
 C8 
A   12
 C9 
A   13
 C10
A   14
 O3 
A   15
 C11
A   16
 C12
M  END
>  <ref_pdb>  (1042) 
Ax0310a

>  <ref_mols>  (1042) 
Ax0446a,Ax1080a,Ax0812a,Ax0719a,Ax1140a,Ax0528a,Ax0310a

>  <original SMILES>  (1042) 
O=C(O)C1(c2cccc(F)c2)CCOCC1

>  <rationale>  (1042) 
info info set:3d;hbond:S87; 

>  <experiment>  (1042) 
3d

>  <cluster_label>  (1042) 
3

>  <cluster_rank>  (1042) 
699

>  <N_interactions>  (1042) 
1

>  <∆∆G>  (1042) 
-1.663121

>  <comRMSD>  (1042) 
0.701421

>  <ROCS_TanimotoCombo>  (1042) 
0.325

>  <ROCS_ShapeTanimoto>  (1042) 
0.202

>  <ROCS_ColorTanimoto>  (1042) 
0.123

$$$$
EN300_127410
     RDKit          3D

 14 14  0  0  0  0  0  0  0  0999 V2000
   29.1702   13.0902    8.8067 N   0  0  0  0  0  0  0  0  0  0  0  0
   30.4863   13.3974    7.8390 S   0  0  0  0  0  6  0  0  0  0  0  0
   31.3851   14.1803    8.6662 O   0  0  0  0  0  0  0  0  0  0  0  0
   29.8241   13.8598    6.6464 O   0  0  0  0  0  0  0  0  0  0  0  0
   31.2264   11.8313    7.4596 C   0  0  0  0  0  0  0  0  0  0  0  0
   30.6358   10.7024    8.1901 C   0  0  0  0  0  0  0  0  0  0  0  0
   31.1244    9.4447    7.9683 C   0  0  0  0  0  0  0  0  0  0  0  0
   30.4370    8.1605    8.8246 Cl  0  0  0  0  0  0  0  0  0  0  0  0
   32.1570    9.2453    7.0639 C   0  0  0  0  0  0  0  0  0  0  0  0
   32.7484   10.3159    6.3480 C   0  0  0  0  0  0  0  0  0  0  0  0
   32.2724   11.6179    6.5589 C   0  0  0  0  0  0  0  0  0  0  0  0
   32.9172   12.6969    5.7972 N   0  0  0  0  0  4  0  0  0  0  0  0
   33.7125   13.4241    6.4055 O   0  0  0  0  0  0  0  0  0  0  0  0
   32.4260   12.9638    4.6953 O   0  0  0  0  0  1  0  0  0  0  0  0
  1  2  1  0
  2  3  2  0
  2  4  2  0
  2  5  1  0
  5  6  2  0
  6  7  1  0
  7  8  1  0
  7  9  2  0
  9 10  1  0
 10 11  2  0
 11 12  1  0
 12 13  2  0
 12 14  1  0
 11  5  1  0
M  CHG  2  12   1  14  -1
A    1
 N1 
A    2
 S1 
A    3
 O1 
A    4
 O2 
A    5
 C1 
A    6
 C2 
A    7
 C3 
A    8
CL1 
A    9
 C4 
A   10
 C5 
A   11
 C6 
A   12
 N2 
A   13
 O3 
A   14
 O4 
M  END
>  <ref_pdb>  (1043) 
Ax0310a

>  <ref_mols>  (1043) 
Ax0446a,Ax1080a,Ax0812a,Ax0719a,Ax1140a,Ax0528a,Ax0310a

>  <original SMILES>  (1043) 
NS(=O)(=O)c1cc(Cl)ccc1[N+](=O)[O-]

>  <rationale>  (1043) 
info info set:sulfonimide_whole;hbond:S87+S125; 

>  <experiment>  (1043) 
sulfonimide_whole

>  <cluster_label>  (1043) 
3

>  <cluster_rank>  (1043) 
700

>  <N_interactions>  (1043) 
2

>  <∆∆G>  (1043) 
-5.409719

>  <comRMSD>  (1043) 
0.485802

>  <ROCS_TanimotoCombo>  (1043) 
0.336

>  <ROCS_ShapeTanimoto>  (1043) 
0.199

>  <ROCS_ColorTanimoto>  (1043) 
0.136

$$$$
EN300_7435510
     RDKit          3D

 16 18  0  0  0  0  0  0  0  0999 V2000
   34.2113   10.7200    4.8121 C   0  0  0  0  0  0  0  0  0  0  0  0
   33.3223   10.5585    5.9978 C   0  0  2  0  0  0  0  0  0  0  0  0
   32.9998    9.1525    6.3494 C   0  0  0  0  0  0  0  0  0  0  0  0
   32.2911    9.2772    7.5666 O   0  0  0  0  0  0  0  0  0  0  0  0
   31.9218   10.6885    7.4405 C   0  0  2  0  0  0  0  0  0  0  0  0
   30.7217   11.1161    8.1990 C   0  0  0  0  0  0  0  0  0  0  0  0
   30.1553   10.3546    8.9559 O   0  0  0  0  0  0  0  0  0  0  0  0
   30.4451   12.4194    7.8471 N   0  0  0  0  0  0  0  0  0  0  0  0
   29.4972   13.2788    8.3645 C   0  0  0  0  0  0  0  0  0  0  0  0
   29.5811   13.9172    9.7418 C   0  0  0  0  0  0  0  0  0  0  0  0
   28.5756   14.7263   10.1694 C   0  0  0  0  0  0  0  0  0  0  0  0
   27.5030   14.9843    9.3340 C   0  0  0  0  0  0  0  0  0  0  0  0
   27.4295   14.4210    8.0703 C   0  0  0  0  0  0  0  0  0  0  0  0
   28.4039   13.5745    7.5819 C   0  0  0  0  0  0  0  0  0  0  0  0
   31.8510   10.9661    5.9523 C   0  0  0  0  0  0  0  0  0  0  0  0
   33.0829   11.6782    7.0873 C   0  0  0  0  0  0  0  0  0  0  0  0
  2  1  1  6
  2  3  1  0
  3  4  1  0
  4  5  1  0
  5  6  1  1
  6  7  2  0
  6  8  1  0
  8  9  1  0
  9 10  2  0
 10 11  1  0
 11 12  2  0
 12 13  1  0
 13 14  2  0
  5 15  1  0
  5 16  1  0
 15  2  1  0
 16  2  1  0
 14  9  1  0
A    1
 C1 
A    2
 C2 
A    3
 C3 
A    4
 O1 
A    5
 C4 
A    6
 C5 
A    7
 O2 
A    8
 N1 
A    9
 C6 
A   10
 C7 
A   11
 C8 
A   12
 C9 
A   13
 C10
A   14
 C11
A   15
 C12
A   16
 C13
M  END
>  <ref_pdb>  (1044) 
Ax0310a

>  <ref_mols>  (1044) 
Ax0446a,Ax1080a,Ax0812a,Ax0719a,Ax1140a,Ax0528a,Ax0310a

>  <original SMILES>  (1044) 
C[C@]12CO[C@](C(=O)Nc3ccccc3)(C1)C2

>  <rationale>  (1044) 
info info set:bb_densepocket;hydroph_interaction:P107+Y89+Y90; 

>  <experiment>  (1044) 
bb_densepocket

>  <cluster_label>  (1044) 
3

>  <cluster_rank>  (1044) 
701

>  <N_interactions>  (1044) 
4

>  <∆∆G>  (1044) 
-0.72977

>  <comRMSD>  (1044) 
0.830349

>  <ROCS_TanimotoCombo>  (1044) 
0.705

>  <ROCS_ShapeTanimoto>  (1044) 
0.224

>  <ROCS_ColorTanimoto>  (1044) 
0.481

$$$$
Z366741818
     RDKit          3D

 22 24  0  0  0  0  0  0  0  0999 V2000
   35.8992    9.1152    2.7898 C   0  0  0  0  0  0  0  0  0  0  0  0
   34.8970    9.4447    3.8642 C   0  0  0  0  0  0  0  0  0  0  0  0
   34.4172   10.8633    4.0603 C   0  0  0  0  0  0  0  0  0  0  0  0
   33.4683   10.7567    5.1876 C   0  0  0  0  0  0  0  0  0  0  0  0
   32.6668   11.8294    5.8570 C   0  0  0  0  0  0  0  0  0  0  0  0
   31.8094   11.3196    6.9837 C   0  0  0  0  0  0  0  0  0  0  0  0
   31.0129   12.2558    7.7012 N   0  0  0  0  0  0  0  0  0  0  0  0
   30.0599   11.6202    8.4098 C   0  0  0  0  0  0  0  0  0  0  0  0
   30.1896   10.5285    8.9388 O   0  0  0  0  0  0  0  0  0  0  0  0
   28.7872   12.4033    8.3964 C   0  0  0  0  0  0  0  0  0  0  0  0
   28.7782   13.7250    8.1823 C   0  0  0  0  0  0  0  0  0  0  0  0
   28.2143   14.2792    7.0395 C   0  0  0  0  0  0  0  0  0  0  0  0
   27.6315   13.5128    6.0537 C   0  0  0  0  0  0  0  0  0  0  0  0
   28.2896   15.5398    7.0174 N   0  0  0  0  0  0  0  0  0  0  0  0
   28.9052   15.7858    8.2095 N   0  0  0  0  0  0  0  0  0  0  0  0
   29.1091   16.9694    8.5351 C   0  0  0  0  0  0  0  0  0  0  0  0
   29.2367   14.7255    8.9301 C   0  0  0  0  0  0  0  0  0  0  0  0
   29.9636   14.7650   10.2906 C   0  0  0  0  0  0  0  0  0  0  0  0
   31.7346    9.9872    7.3817 C   0  0  0  0  0  0  0  0  0  0  0  0
   32.5167    8.8770    6.7412 C   0  0  0  0  0  0  0  0  0  0  0  0
   33.4145    9.3154    5.6060 C   0  0  0  0  0  0  0  0  0  0  0  0
   34.2817    8.6133    4.7849 N   0  0  0  0  0  0  0  0  0  0  0  0
  1  2  1  0
  2  3  2  0
  3  4  1  0
  4  5  2  0
  5  6  1  0
  6  7  1  0
  7  8  1  0
  8  9  2  0
  8 10  1  0
 10 11  1  0
 11 12  1  0
 12 13  1  0
 12 14  2  0
 14 15  1  0
 15 16  1  0
 15 17  1  0
 17 18  1  0
  6 19  2  0
 19 20  1  0
 20 21  2  0
 21 22  1  0
 22  2  1  0
 21  4  1  0
 17 11  2  0
A    1
 C1 
A    2
 C2 
A    3
 C3 
A    4
 C4 
A    5
 C5 
A    6
 C6 
A    7
 N1 
A    8
 C7 
A    9
 O1 
A   10
 C8 
A   11
 C9 
A   12
 C10
A   13
 C11
A   14
 N2 
A   15
 N3 
A   16
 C12
A   17
 C13
A   18
 C14
A   19
 C15
A   20
 C16
A   21
 C17
A   22
 N4 
M  END
>  <ref_pdb>  (1045) 
Ax0310a

>  <ref_mols>  (1045) 
Ax0446a,Ax1080a,Ax0812a,Ax0719a,Ax1140a,Ax0528a,Ax0310a

>  <original SMILES>  (1045) 
Cc1cc2cc(NC(=O)Cc3c(C)nn(C)c3C)ccc2[nH]1

>  <rationale>  (1045) 
info info set:screening_pocket;hbond:S87+G127; hydroph_interaction:P107+Y90; pistack:H21; 

>  <experiment>  (1045) 
screening_pocket

>  <cluster_label>  (1045) 
3

>  <cluster_rank>  (1045) 
702

>  <N_interactions>  (1045) 
7

>  <∆∆G>  (1045) 
-3.525839

>  <comRMSD>  (1045) 
0.787855

>  <ROCS_TanimotoCombo>  (1045) 
0.628

>  <ROCS_ShapeTanimoto>  (1045) 
0.244

>  <ROCS_ColorTanimoto>  (1045) 
0.384

$$$$
EN300_156117
     RDKit          3D

 14 14  0  0  0  0  0  0  0  0999 V2000
   33.8407    8.8643    5.5642 C   0  0  0  0  0  0  0  0  0  0  0  0
   32.6450    8.4629    6.2411 O   0  0  0  0  0  0  0  0  0  0  0  0
   32.1224    9.4961    6.8547 C   0  0  0  0  0  0  0  0  0  0  0  0
   32.9440   10.5404    6.6178 C   0  0  0  0  0  0  0  0  0  0  0  0
   32.6629   11.7457    7.1403 C   0  0  0  0  0  0  0  0  0  0  0  0
   31.5580   11.9545    7.9087 C   0  0  0  0  0  0  0  0  0  0  0  0
   31.4255   13.3677    8.4263 C   0  0  0  0  0  0  0  0  0  0  0  0
   32.9072   13.8720    8.6145 C   0  0  0  0  0  0  0  0  0  0  0  0
   34.0127   13.8611    7.1630 S   0  0  0  0  0  6  0  0  0  0  0  0
   35.4285   14.4820    7.7862 N   0  0  0  0  0  0  0  0  0  0  0  0
   33.6724   14.7668    6.1161 O   0  0  0  0  0  0  0  0  0  0  0  0
   34.2641   12.5310    6.7212 O   0  0  0  0  0  0  0  0  0  0  0  0
   30.6867   10.8904    8.1549 C   0  0  0  0  0  0  0  0  0  0  0  0
   30.9779    9.6337    7.6220 C   0  0  0  0  0  0  0  0  0  0  0  0
  1  2  1  0
  2  3  1  0
  3  4  2  0
  4  5  1  0
  5  6  2  0
  6  7  1  0
  7  8  1  0
  8  9  1  0
  9 10  1  0
  9 11  2  0
  9 12  2  0
  6 13  1  0
 13 14  2  0
 14  3  1  0
A    1
 C1 
A    2
 O1 
A    3
 C2 
A    4
 C3 
A    5
 C4 
A    6
 C5 
A    7
 C6 
A    8
 C7 
A    9
 S1 
A   10
 N1 
A   11
 O2 
A   12
 O3 
A   13
 C8 
A   14
 C9 
M  END
>  <ref_pdb>  (1046) 
Ax0310a

>  <ref_mols>  (1046) 
Ax0446a,Ax1080a,Ax0812a,Ax0719a,Ax1140a,Ax0528a,Ax0310a

>  <original SMILES>  (1046) 
COc1ccc(CCS(N)(=O)=O)cc1

>  <rationale>  (1046) 
info info set:sulfonimide_whole;hbond:S87+G127+E85; 

>  <experiment>  (1046) 
sulfonimide_whole

>  <cluster_label>  (1046) 
3

>  <cluster_rank>  (1046) 
703

>  <N_interactions>  (1046) 
3

>  <∆∆G>  (1046) 
-1.080688

>  <comRMSD>  (1046) 
0.910472

>  <ROCS_TanimotoCombo>  (1046) 
0.341

>  <ROCS_ShapeTanimoto>  (1046) 
0.161

>  <ROCS_ColorTanimoto>  (1046) 
0.181

$$$$
Z1509621382
     RDKit          3D

 15 15  0  0  0  0  0  0  0  0999 V2000
   35.0728   12.1688    5.3057 C   0  0  0  0  0  0  0  0  0  0  0  0
   34.2656   11.0443    4.9876 O   0  0  0  0  0  0  0  0  0  0  0  0
   33.2479   10.7644    5.8537 C   0  0  0  0  0  0  0  0  0  0  0  0
   32.9385    9.4044    6.4520 C   0  0  0  0  0  0  0  0  0  0  0  0
   31.7794    9.3417    7.4004 C   0  0  0  0  0  0  0  0  0  0  0  0
   31.5240    8.1428    7.9463 O   0  0  0  0  0  0  0  0  0  0  0  0
   30.2737    8.1141    8.6052 C   0  0  0  0  0  0  0  0  0  0  0  0
   31.0523   10.4820    7.6709 C   0  0  0  0  0  0  0  0  0  0  0  0
   31.3453   11.7216    7.1005 C   0  0  0  0  0  0  0  0  0  0  0  0
   30.4549   12.8913    7.4902 C   0  0  0  0  0  0  0  0  0  0  0  0
   30.3165   13.3510    6.0287 C   0  0  0  0  0  0  0  0  0  0  0  0
   29.0504   12.4821    7.8925 C   0  0  0  0  0  0  0  0  0  0  0  0
   31.1039   13.8054    8.4610 C   0  0  0  0  0  0  0  0  0  0  0  0
   31.6234   14.4721    9.2599 N   0  0  0  0  0  0  0  0  0  0  0  0
   32.4364   11.8457    6.2075 C   0  0  0  0  0  0  0  0  0  0  0  0
  1  2  1  0
  2  3  1  0
  3  4  2  0
  4  5  1  0
  5  6  1  0
  6  7  1  0
  5  8  2  0
  8  9  1  0
  9 10  1  0
 10 11  1  0
 10 12  1  0
 10 13  1  0
 13 14  3  0
  9 15  2  0
 15  3  1  0
A    1
 C1 
A    2
 O1 
A    3
 C2 
A    4
 C3 
A    5
 C4 
A    6
 O2 
A    7
 C5 
A    8
 C6 
A    9
 C7 
A   10
 C8 
A   11
 C9 
A   12
 C10
A   13
 C11
A   14
 N1 
A   15
 C12
M  END
>  <ref_pdb>  (1047) 
Ax0310a

>  <ref_mols>  (1047) 
Ax0446a,Ax1080a,Ax0812a,Ax0719a,Ax1140a,Ax0528a,Ax0310a

>  <original SMILES>  (1047) 
COc1cc(OC)cc(C(C)(C)C#N)c1

>  <rationale>  (1047) 
info info set:3d;hbond:S87; 

>  <experiment>  (1047) 
3d

>  <cluster_label>  (1047) 
3

>  <cluster_rank>  (1047) 
704

>  <N_interactions>  (1047) 
1

>  <∆∆G>  (1047) 
-10.528163

>  <comRMSD>  (1047) 
0.434161

>  <ROCS_TanimotoCombo>  (1047) 
0.318

>  <ROCS_ShapeTanimoto>  (1047) 
0.21

>  <ROCS_ColorTanimoto>  (1047) 
0.108

$$$$
Z208333304
     RDKit          3D

 14 15  0  0  0  0  0  0  0  0999 V2000
   31.5066   14.0218    8.6244 O   0  0  0  0  0  0  0  0  0  0  0  0
   30.9420   13.1392    7.9793 C   0  0  0  0  0  0  0  0  0  0  0  0
   29.5979   13.2929    7.4134 N   0  0  0  0  0  0  0  0  0  0  0  0
   29.0085   14.4614    6.9458 C   0  0  0  0  0  0  0  0  0  0  0  0
   28.7808   15.4250    7.9131 C   0  0  0  0  0  0  0  0  0  0  0  0
   27.7393   14.9179    8.6569 C   0  0  0  0  0  0  0  0  0  0  0  0
   28.2187   13.7608    9.2655 C   0  0  0  0  0  0  0  0  0  0  0  0
   28.6127   12.8027    8.3105 C   0  0  0  0  0  0  0  0  0  0  0  0
   31.5540   11.8916    7.8008 N   0  0  0  0  0  0  0  0  0  0  0  0
   32.2699   11.7248    6.6765 C   0  0  0  0  0  0  0  0  0  0  0  0
   32.4769   10.4618    6.1636 C   0  0  0  0  0  0  0  0  0  0  0  0
   32.4472    9.4186    7.1273 O   0  0  0  0  0  0  0  0  0  0  0  0
   31.2571    9.4284    7.8945 C   0  0  0  0  0  0  0  0  0  0  0  0
   30.7463   10.7134    8.1578 C   0  0  0  0  0  0  0  0  0  0  0  0
  1  2  2  0
  2  3  1  0
  3  4  1  0
  4  5  1  0
  5  6  1  0
  6  7  1  0
  7  8  1  0
  2  9  1  0
  9 10  1  0
 10 11  1  0
 11 12  1  0
 12 13  1  0
 13 14  1  0
  8  3  1  0
 14  9  1  0
A    1
 O1 
A    2
 C1 
A    3
 N1 
A    4
 C2 
A    5
 C3 
A    6
 C4 
A    7
 C5 
A    8
 C6 
A    9
 N2 
A   10
 C7 
A   11
 C8 
A   12
 O2 
A   13
 C9 
A   14
 C10
M  END
>  <ref_pdb>  (1048) 
Ax0310a

>  <ref_mols>  (1048) 
Ax0446a,Ax1080a,Ax0812a,Ax0719a,Ax1140a,Ax0528a,Ax0310a

>  <original SMILES>  (1048) 
O=C(N1CCCCC1)N1CCOCC1

>  <rationale>  (1048) 
info info set:3d;hbond:S87; hydroph_interaction:Y89+Y90; 

>  <experiment>  (1048) 
3d

>  <cluster_label>  (1048) 
3

>  <cluster_rank>  (1048) 
705

>  <N_interactions>  (1048) 
3

>  <∆∆G>  (1048) 
-3.546144

>  <comRMSD>  (1048) 
0.872552

>  <ROCS_TanimotoCombo>  (1048) 
0.286

>  <ROCS_ShapeTanimoto>  (1048) 
0.169

>  <ROCS_ColorTanimoto>  (1048) 
0.117

$$$$
EN300_801262
     RDKit          3D

 16 17  0  0  0  0  0  0  0  0999 V2000
   28.7747    8.9558    8.2420 C   0  0  0  0  0  0  0  0  0  0  0  0
   30.2391    8.9371    8.1948 C   0  0  0  0  0  0  0  0  0  0  0  0
   30.2599    9.3182    9.5180 C   0  0  0  0  0  0  0  0  0  0  0  0
   30.7440    7.6547    8.3845 C   0  0  0  0  0  0  0  0  0  0  0  0
   31.2062    9.8473    7.4281 C   0  0  0  0  0  0  0  0  0  0  0  0
   32.1715    9.2579    6.5711 N   0  0  0  0  0  0  0  0  0  0  0  0
   33.1791   10.0152    5.7966 C   0  0  0  0  0  0  0  0  0  0  0  0
   34.3092    9.5183    4.7820 C   0  0  0  0  0  0  0  0  0  0  0  0
   34.8363    8.0235    4.1349 Cl  0  0  0  0  0  0  0  0  0  0  0  0
   35.2307   10.5334    4.1356 C   0  0  0  0  0  0  0  0  0  0  0  0
   35.1424   12.0177    4.3852 C   0  0  0  0  0  0  0  0  0  0  0  0
   34.0604   12.4838    5.3302 C   0  0  0  0  0  0  0  0  0  0  0  0
   33.1087   11.5236    6.0118 C   0  0  0  0  0  0  0  0  0  0  0  0
   32.0734   12.1183    6.9139 C   0  0  0  0  0  0  0  0  0  0  0  0
   31.1110   11.2205    7.6150 C   0  0  0  0  0  0  0  0  0  0  0  0
   30.1763   11.8236    8.4130 O   0  0  0  0  0  0  0  0  0  0  0  0
  1  2  1  0
  2  3  1  0
  2  4  1  0
  2  5  1  0
  5  6  2  0
  6  7  1  0
  7  8  2  0
  8  9  1  0
  8 10  1  0
 10 11  2  0
 11 12  1  0
 12 13  2  0
 13 14  1  0
 14 15  2  0
 15 16  1  0
 15  5  1  0
 13  7  1  0
A    1
 C1 
A    2
 C2 
A    3
 C3 
A    4
 C4 
A    5
 C5 
A    6
 N1 
A    7
 C6 
A    8
 C7 
A    9
CL1 
A   10
 C8 
A   11
 C9 
A   12
 C10
A   13
 C11
A   14
 C12
A   15
 C13
A   16
 O1 
M  END
>  <ref_pdb>  (1049) 
Ax0310a

>  <ref_mols>  (1049) 
Ax0446a,Ax1080a,Ax0812a,Ax0719a,Ax1140a,Ax0528a,Ax0310a

>  <original SMILES>  (1049) 
CC(C)(C)c1nc2c(Cl)cccc2cc1O

>  <rationale>  (1049) 
info info set:bb_densepocket2;hbond:S125; 

>  <experiment>  (1049) 
bb_densepocket2

>  <cluster_label>  (1049) 
3

>  <cluster_rank>  (1049) 
706

>  <N_interactions>  (1049) 
1

>  <∆∆G>  (1049) 
-3.423667

>  <comRMSD>  (1049) 
0.970708

>  <ROCS_TanimotoCombo>  (1049) 
0.616

>  <ROCS_ShapeTanimoto>  (1049) 
0.269

>  <ROCS_ColorTanimoto>  (1049) 
0.347

$$$$
Z1455769211
     RDKit          3D

 17 18  0  0  0  0  0  0  0  0999 V2000
   29.4050   12.3716    8.1632 C   0  0  0  0  0  0  0  0  0  0  0  0
   30.2616   11.3758    8.6923 O   0  0  0  0  0  0  0  0  0  0  0  0
   31.0798   10.6752    7.8906 C   0  0  0  0  0  0  0  0  0  0  0  0
   31.1838    9.3125    7.9400 C   0  0  0  0  0  0  0  0  0  0  0  0
   32.0544    8.7040    7.0822 C   0  0  0  0  0  0  0  0  0  0  0  0
   32.8189    9.3986    6.1724 C   0  0  0  0  0  0  0  0  0  0  0  0
   32.7298   10.7567    6.1024 C   0  0  0  0  0  0  0  0  0  0  0  0
   33.7099   11.5629    4.9341 Cl  0  0  0  0  0  0  0  0  0  0  0  0
   31.8547   11.4087    6.9730 C   0  0  0  0  0  0  0  0  0  0  0  0
   31.7641   12.8936    6.9097 C   0  0  0  0  0  0  0  0  0  0  0  0
   30.7020   13.3607    6.5375 O   0  0  0  0  0  0  0  0  0  0  0  0
   32.9268   13.6424    7.3071 N   0  0  0  0  0  0  0  0  0  0  0  0
   34.0373   13.9432    6.4241 C   0  0  0  0  0  0  0  0  0  0  0  0
   35.0133   14.9358    7.0150 C   0  0  0  0  0  0  0  0  0  0  0  0
   35.3780   14.8406    8.4324 N   0  0  0  0  0  0  0  0  0  0  0  0
   34.2731   14.4151    9.2583 C   0  0  0  0  0  0  0  0  0  0  0  0
   33.3797   13.3789    8.6266 C   0  0  0  0  0  0  0  0  0  0  0  0
  1  2  1  0
  2  3  1  0
  3  4  2  0
  4  5  1  0
  5  6  2  0
  6  7  1  0
  7  8  1  0
  7  9  2  0
  9 10  1  0
 10 11  2  0
 10 12  1  0
 12 13  1  0
 13 14  1  0
 14 15  1  0
 15 16  1  0
 16 17  1  0
  9  3  1  0
 17 12  1  0
A    1
 C1 
A    2
 O1 
A    3
 C2 
A    4
 C3 
A    5
 C4 
A    6
 C5 
A    7
 C6 
A    8
CL1 
A    9
 C7 
A   10
 C8 
A   11
 O2 
A   12
 N1 
A   13
 C9 
A   14
 C10
A   15
 N2 
A   16
 C11
A   17
 C12
M  END
>  <ref_pdb>  (1050) 
Ax0310a

>  <ref_mols>  (1050) 
Ax0446a,Ax1080a,Ax0812a,Ax0719a,Ax1140a,Ax0528a,Ax0310a

>  <original SMILES>  (1050) 
COc1cccc(Cl)c1C(=O)N1CCNCC1

>  <rationale>  (1050) 
info info set:3d;hbond:G127; 

>  <experiment>  (1050) 
3d

>  <cluster_label>  (1050) 
3

>  <cluster_rank>  (1050) 
707

>  <N_interactions>  (1050) 
1

>  <∆∆G>  (1050) 
-3.596531

>  <comRMSD>  (1050) 
0.840965

>  <ROCS_TanimotoCombo>  (1050) 
0.323

>  <ROCS_ShapeTanimoto>  (1050) 
0.21

>  <ROCS_ColorTanimoto>  (1050) 
0.112

$$$$
EN300_1273031
     RDKit          3D

 10 10  0  0  0  0  0  0  0  0999 V2000
   34.1084    8.8823    5.1660 N   0  0  0  0  0  0  0  0  0  0  0  0
   33.1929    9.5468    5.9529 C   0  0  0  0  0  0  0  0  0  0  0  0
   32.3889    8.8319    6.7578 N   0  0  0  0  0  0  0  0  0  0  0  0
   31.5016    9.4983    7.5024 C   0  0  0  0  0  0  0  0  0  0  0  0
   30.6636    8.7581    8.3482 N   0  0  0  0  0  0  0  0  0  0  0  0
   31.3927   11.0029    7.4475 C   0  0  0  0  0  0  0  0  0  0  0  0
   30.4680   11.7408    8.1965 N   0  0  0  0  0  0  0  0  0  0  0  0
   32.3103   11.5315    6.5726 C   0  0  0  0  0  0  0  0  0  0  0  0
   32.4333   13.2121    6.3148 Cl  0  0  0  0  0  0  0  0  0  0  0  0
   33.1943   10.8592    5.8333 N   0  0  0  0  0  0  0  0  0  0  0  0
  1  2  1  0
  2  3  2  0
  3  4  1  0
  4  5  1  0
  4  6  2  0
  6  7  1  0
  6  8  1  0
  8  9  1  0
  8 10  2  0
 10  2  1  0
A    1
 N1 
A    2
 C1 
A    3
 N2 
A    4
 C2 
A    5
 N3 
A    6
 C3 
A    7
 N4 
A    8
 C4 
A    9
CL1 
A   10
 N5 
M  END
>  <ref_pdb>  (1051) 
Ax0310a

>  <ref_mols>  (1051) 
Ax0446a,Ax1080a,Ax0812a,Ax0719a,Ax1140a,Ax0528a,Ax0310a

>  <original SMILES>  (1051) 
Nc1nc(N)c(N)c(Cl)n1

>  <rationale>  (1051) 
info info set:bb_densepocket2;hbond:S105+S125+G127; 

>  <experiment>  (1051) 
bb_densepocket2

>  <cluster_label>  (1051) 
3

>  <cluster_rank>  (1051) 
708

>  <N_interactions>  (1051) 
4

>  <∆∆G>  (1051) 
-2.407665

>  <comRMSD>  (1051) 
0.289215

>  <ROCS_TanimotoCombo>  (1051) 
0.613

>  <ROCS_ShapeTanimoto>  (1051) 
0.212

>  <ROCS_ColorTanimoto>  (1051) 
0.401

$$$$
Z45542221
     RDKit          3D

 17 18  0  0  0  0  0  0  0  0999 V2000
   30.5949    9.9555    8.6674 C   0  0  0  0  0  0  0  0  0  0  0  0
   31.5764    9.9966    7.5814 C   0  0  0  0  0  0  0  0  0  0  0  0
   31.8004    8.8413    7.0024 N   0  0  0  0  0  0  0  0  0  0  0  0
   32.6910    9.1137    5.9814 O   0  0  0  0  0  0  0  0  0  0  0  0
   32.9996   10.4337    5.9985 C   0  0  0  0  0  0  0  0  0  0  0  0
   33.8807   10.8622    5.0171 C   0  0  0  0  0  0  0  0  0  0  0  0
   32.3479   11.0478    7.0131 C   0  0  0  0  0  0  0  0  0  0  0  0
   32.5180   12.7120    7.3800 S   0  0  0  0  0  6  0  0  0  0  0  0
   33.1800   12.7534    8.6660 O   0  0  0  0  0  0  0  0  0  0  0  0
   33.1786   13.2854    6.2295 O   0  0  0  0  0  0  0  0  0  0  0  0
   30.9963   13.4237    7.4818 N   0  0  0  0  0  0  0  0  0  0  0  0
   30.3390   13.3303    8.6519 C   0  0  0  0  0  0  0  0  0  0  0  0
   29.1752   14.3617    8.6717 C   0  0  0  0  0  0  0  0  0  0  0  0
   28.3032   14.2141    7.4086 C   0  0  0  0  0  0  0  0  0  0  0  0
   27.5758   12.9156    7.5167 C   0  0  0  0  0  0  0  0  0  0  0  0
   28.9665   14.1651    6.2053 C   0  0  0  0  0  0  0  0  0  0  0  0
   30.1775   13.2278    6.2574 C   0  0  0  0  0  0  0  0  0  0  0  0
  1  2  1  0
  2  3  2  0
  3  4  1  0
  4  5  1  0
  5  6  1  0
  5  7  2  0
  7  8  1  0
  8  9  2  0
  8 10  2  0
  8 11  1  0
 11 12  1  0
 12 13  1  0
 13 14  1  0
 14 15  1  0
 14 16  1  0
 16 17  1  0
  7  2  1  0
 17 11  1  0
A    1
 C1 
A    2
 C2 
A    3
 N1 
A    4
 O1 
A    5
 C3 
A    6
 C4 
A    7
 C5 
A    8
 S1 
A    9
 O2 
A   10
 O3 
A   11
 N2 
A   12
 C6 
A   13
 C7 
A   14
 C8 
A   15
 C9 
A   16
 C10
A   17
 C11
M  END
>  <ref_pdb>  (1052) 
Ax0310a

>  <ref_mols>  (1052) 
Ax0446a,Ax1080a,Ax0812a,Ax0719a,Ax1140a,Ax0528a,Ax0310a

>  <original SMILES>  (1052) 
Cc1noc(C)c1S(=O)(=O)N1CCC(C)CC1

>  <rationale>  (1052) 
info info set:3d;hbond:S87+G127; 

>  <experiment>  (1052) 
3d

>  <cluster_label>  (1052) 
3

>  <cluster_rank>  (1052) 
709

>  <N_interactions>  (1052) 
2

>  <∆∆G>  (1052) 
-7.467412

>  <comRMSD>  (1052) 
0.784762

>  <ROCS_TanimotoCombo>  (1052) 
0.31

>  <ROCS_ShapeTanimoto>  (1052) 
0.199

>  <ROCS_ColorTanimoto>  (1052) 
0.111

$$$$
EN300_1179894
     RDKit          3D

 19 21  0  0  0  0  0  0  0  0999 V2000
   28.5231   15.0713    7.3796 C   0  0  0  0  0  0  0  0  0  0  0  0
   29.1540   13.4537    7.5938 S   0  0  0  0  0  6  0  0  0  0  0  0
   29.4486   12.8832    6.2890 O   0  0  0  0  0  0  0  0  0  0  0  0
   28.3249   12.8029    8.5483 O   0  0  0  0  0  0  0  0  0  0  0  0
   30.6703   13.7599    8.3569 C   0  0  0  0  0  0  0  0  0  0  0  0
   30.9426   14.8120    9.1046 N   0  0  0  0  0  0  0  0  0  0  0  0
   32.2789   14.6535    9.4891 N   0  0  0  0  0  0  0  0  0  0  0  0
   32.7715   13.5440    8.9905 N   0  0  0  0  0  0  0  0  0  0  0  0
   31.7717   12.9687    8.2973 N   0  0  0  0  0  0  0  0  0  0  0  0
   31.9658   11.7318    7.6866 C   0  0  0  0  0  0  0  0  0  0  0  0
   30.9724   10.6852    8.2010 C   0  0  0  0  0  0  0  0  0  0  0  0
   31.2070    9.3259    7.6030 C   0  0  0  0  0  0  0  0  0  0  0  0
   32.3063    9.0566    6.5938 C   0  0  0  0  0  0  0  0  0  0  0  0
   33.0578   10.1498    6.2609 C   0  0  0  0  0  0  0  0  0  0  0  0
   34.0857    9.6757    5.2342 C   0  0  0  0  0  0  0  0  0  0  0  0
   34.9812   10.6435    4.7521 C   0  0  0  0  0  0  0  0  0  0  0  0
   34.9224   11.9597    5.1947 C   0  0  0  0  0  0  0  0  0  0  0  0
   33.9833   12.3935    6.1371 C   0  0  0  0  0  0  0  0  0  0  0  0
   32.9646   11.4565    6.7320 C   0  0  0  0  0  0  0  0  0  0  0  0
  1  2  1  0
  2  3  2  0
  2  4  2  0
  2  5  1  0
  5  6  2  0
  6  7  1  0
  7  8  2  0
  8  9  1  0
  9 10  1  0
 10 11  2  0
 11 12  1  0
 12 13  2  0
 13 14  1  0
 14 15  2  0
 15 16  1  0
 16 17  2  0
 17 18  1  0
 18 19  2  0
  9  5  1  0
 19 10  1  0
 19 14  1  0
A    1
 C1 
A    2
 S1 
A    3
 O1 
A    4
 O2 
A    5
 C2 
A    6
 N1 
A    7
 N2 
A    8
 N3 
A    9
 N4 
A   10
 C3 
A   11
 C4 
A   12
 C5 
A   13
 C6 
A   14
 C7 
A   15
 C8 
A   16
 C9 
A   17
 C10
A   18
 C11
A   19
 C12
M  END
>  <ref_pdb>  (1053) 
Ax0310a

>  <ref_mols>  (1053) 
Ax0446a,Ax1080a,Ax0812a,Ax0719a,Ax1140a,Ax0528a,Ax0310a

>  <original SMILES>  (1053) 
CS(=O)(=O)c1nnnn1-c1cccc2ccccc12

>  <rationale>  (1053) 
info info set:bb_whole;hbond:S87+G127; 

>  <experiment>  (1053) 
bb_whole

>  <cluster_label>  (1053) 
3

>  <cluster_rank>  (1053) 
710

>  <N_interactions>  (1053) 
2

>  <∆∆G>  (1053) 
-5.467441

>  <comRMSD>  (1053) 
0.409484

>  <ROCS_TanimotoCombo>  (1053) 
0.415

>  <ROCS_ShapeTanimoto>  (1053) 
0.238

>  <ROCS_ColorTanimoto>  (1053) 
0.177

$$$$
EN300_801824
     RDKit          3D

 17 18  0  0  0  0  0  0  0  0999 V2000
   30.7560    7.6853    8.4069 C   0  0  0  0  0  0  0  0  0  0  0  0
   30.2050    8.9594    8.1569 C   0  0  0  0  0  0  0  0  0  0  0  0
   30.3126    9.3586    9.4222 C   0  0  0  0  0  0  0  0  0  0  0  0
   28.7439    9.0203    8.2896 C   0  0  0  0  0  0  0  0  0  0  0  0
   31.1745    9.9136    7.4325 C   0  0  0  0  0  0  0  0  0  0  0  0
   32.0990    9.2768    6.6483 N   0  0  0  0  0  0  0  0  0  0  0  0
   33.0411    9.9434    5.9245 C   0  0  0  0  0  0  0  0  0  0  0  0
   33.9820    9.0904    5.0757 C   0  0  0  0  0  0  0  0  0  0  0  0
   34.8875   10.0770    4.4115 C   0  0  0  0  0  0  0  0  0  0  0  0
   36.0446    9.3261    3.3754 Cl  0  0  0  0  0  0  0  0  0  0  0  0
   34.9082   11.4377    4.5147 C   0  0  0  0  0  0  0  0  0  0  0  0
   34.0036   12.0712    5.3066 C   0  0  0  0  0  0  0  0  0  0  0  0
   33.0738   11.3314    6.0029 C   0  0  0  0  0  0  0  0  0  0  0  0
   32.1308   11.9808    6.8062 C   0  0  0  0  0  0  0  0  0  0  0  0
   31.1549   11.2967    7.5335 C   0  0  0  0  0  0  0  0  0  0  0  0
   30.2060   12.0050    8.3191 N   0  0  0  0  0  0  0  0  0  0  0  0
   30.0188   13.2168    8.1305 N   0  0  0  0  0  0  0  0  0  0  0  0
  1  2  1  0
  2  3  1  0
  2  4  1  0
  2  5  1  0
  5  6  2  0
  6  7  1  0
  7  8  2  0
  8  9  1  0
  9 10  1  0
  9 11  2  0
 11 12  1  0
 12 13  2  0
 13 14  1  0
 14 15  2  0
 15 16  1  0
 16 17  1  0
 15  5  1  0
 13  7  1  0
A    1
 C1 
A    2
 C2 
A    3
 C3 
A    4
 C4 
A    5
 C5 
A    6
 N1 
A    7
 C6 
A    8
 C7 
A    9
 C8 
A   10
CL1 
A   11
 C9 
A   12
 C10
A   13
 C11
A   14
 C12
A   15
 C13
A   16
 N2 
A   17
 N3 
M  END
>  <ref_pdb>  (1054) 
Ax0310a

>  <ref_mols>  (1054) 
Ax0446a,Ax1080a,Ax0812a,Ax0719a,Ax1140a,Ax0528a,Ax0310a

>  <original SMILES>  (1054) 
CC(C)(C)c1nc2cc(Cl)ccc2cc1NN

>  <rationale>  (1054) 
info info set:bb_densepocket2;

>  <experiment>  (1054) 
bb_densepocket2

>  <cluster_label>  (1054) 
3

>  <cluster_rank>  (1054) 
711

>  <N_interactions>  (1054) 
0

>  <∆∆G>  (1054) 
-5.608752

>  <comRMSD>  (1054) 
0.713986

>  <ROCS_TanimotoCombo>  (1054) 
0.619

>  <ROCS_ShapeTanimoto>  (1054) 
0.283

>  <ROCS_ColorTanimoto>  (1054) 
0.336

$$$$
Z1268200359
     RDKit          3D

 19 20  0  0  0  0  0  0  0  0999 V2000
   30.7104   14.7725    8.9127 N   0  0  0  0  0  0  0  0  0  0  0  0
   29.3221   15.0181    8.5572 C   0  0  0  0  0  0  0  0  0  0  0  0
   28.8335   15.8643    7.5278 O   0  0  0  0  0  0  0  0  0  0  0  0
   28.5022   14.2020    9.4871 C   0  0  0  0  0  0  0  0  0  0  0  0
   28.6682   13.0257    8.5416 C   0  0  0  0  0  0  0  0  0  0  0  0
   30.0231   12.6120    8.1466 N   0  0  0  0  0  0  0  0  0  0  0  0
   30.4414   11.2825    8.2308 C   0  0  0  0  0  0  0  0  0  0  0  0
   30.0744   10.4470    9.0115 O   0  0  0  0  0  0  0  0  0  0  0  0
   31.4576   10.7644    7.2791 C   0  0  0  0  0  0  0  0  0  0  0  0
   32.1847   11.6128    6.3147 C   0  0  0  0  0  0  0  0  0  0  0  0
   33.1250   10.7727    5.4899 C   0  0  0  0  0  0  0  0  0  0  0  0
   33.7447   11.7228    4.4785 C   0  0  0  0  0  0  0  0  0  0  0  0
   34.7184   11.1073    3.5370 C   0  0  0  0  0  0  0  0  0  0  0  0
   35.4838   12.0612    2.3387 Cl  0  0  0  0  0  0  0  0  0  0  0  0
   35.0031    9.7651    3.6254 C   0  0  0  0  0  0  0  0  0  0  0  0
   34.3468    8.9678    4.6343 C   0  0  0  0  0  0  0  0  0  0  0  0
   33.3755    9.4820    5.5958 C   0  0  0  0  0  0  0  0  0  0  0  0
   32.7407    8.7228    6.5534 O   0  0  0  0  0  0  0  0  0  0  0  0
   31.6806    9.3473    7.3641 C   0  0  0  0  0  0  0  0  0  0  0  0
  1  2  1  0
  2  3  2  0
  2  4  1  0
  4  5  1  0
  5  6  1  0
  6  7  1  0
  7  8  2  0
  7  9  1  0
  9 10  2  0
 10 11  1  0
 11 12  2  0
 12 13  1  0
 13 14  1  0
 13 15  2  0
 15 16  1  0
 16 17  2  0
 17 18  1  0
 18 19  1  0
 19  9  1  0
 17 11  1  0
A    1
 N1 
A    2
 C1 
A    3
 O1 
A    4
 C2 
A    5
 C3 
A    6
 N2 
A    7
 C4 
A    8
 O2 
A    9
 C5 
A   10
 C6 
A   11
 C7 
A   12
 C8 
A   13
 C9 
A   14
CL1 
A   15
 C10
A   16
 C11
A   17
 C12
A   18
 O3 
A   19
 C13
M  END
>  <ref_pdb>  (1055) 
Ax0310a

>  <ref_mols>  (1055) 
Ax0446a,Ax1080a,Ax0812a,Ax0719a,Ax1140a,Ax0528a,Ax0310a

>  <original SMILES>  (1055) 
NC(=O)CCNC(=O)C1=Cc2cc(Cl)ccc2OC1

>  <rationale>  (1055) 
info info set:screening_pocket;hbond:S87+Y90; hydroph_interaction:P107+Y90; 

>  <experiment>  (1055) 
screening_pocket

>  <cluster_label>  (1055) 
3

>  <cluster_rank>  (1055) 
712

>  <N_interactions>  (1055) 
5

>  <∆∆G>  (1055) 
-1.551553

>  <comRMSD>  (1055) 
0.63361

>  <ROCS_TanimotoCombo>  (1055) 
0.631

>  <ROCS_ShapeTanimoto>  (1055) 
0.256

>  <ROCS_ColorTanimoto>  (1055) 
0.374

$$$$
Z241725866
     RDKit          3D

 12 12  0  0  0  0  0  0  0  0999 V2000
   30.4547   13.4799    9.4281 N   0  0  0  0  0  0  0  0  0  0  0  0
   31.9495   13.8565    8.8301 S   0  0  0  0  0  6  0  0  0  0  0  0
   31.9839   15.2317    9.2687 O   0  0  0  0  0  0  0  0  0  0  0  0
   33.0667   12.9979    9.1617 O   0  0  0  0  0  0  0  0  0  0  0  0
   31.5079   13.4085    7.1572 C   0  0  0  0  0  0  0  0  0  0  0  0
   31.6897   11.9507    7.1159 C   0  0  0  0  0  0  0  0  0  0  0  0
   30.7215   11.1781    7.9544 C   0  0  0  0  0  0  0  0  0  0  0  0
   30.9537    9.7587    7.9155 C   0  0  0  0  0  0  0  0  0  0  0  0
   31.9467    9.1669    7.1914 C   0  0  0  0  0  0  0  0  0  0  0  0
   32.0897    7.9144    7.2323 F   0  0  0  0  0  0  0  0  0  0  0  0
   32.7989    9.9453    6.4227 C   0  0  0  0  0  0  0  0  0  0  0  0
   32.6658   11.3068    6.3929 C   0  0  0  0  0  0  0  0  0  0  0  0
  1  2  1  0
  2  3  2  0
  2  4  2  0
  2  5  1  0
  5  6  1  0
  6  7  2  0
  7  8  1  0
  8  9  2  0
  9 10  1  0
  9 11  1  0
 11 12  2  0
 12  6  1  0
A    1
 N1 
A    2
 S1 
A    3
 O1 
A    4
 O2 
A    5
 C1 
A    6
 C2 
A    7
 C3 
A    8
 C4 
A    9
 C5 
A   10
 F1 
A   11
 C6 
A   12
 C7 
M  END
>  <ref_pdb>  (1056) 
Ax0310a

>  <ref_mols>  (1056) 
Ax0446a,Ax1080a,Ax0812a,Ax0719a,Ax1140a,Ax0528a,Ax0310a

>  <original SMILES>  (1056) 
NS(=O)(=O)Cc1ccc(F)cc1

>  <rationale>  (1056) 
info info set:3d;halogenbond:S105; hbond:S87+S125+G127; 

>  <experiment>  (1056) 
3d

>  <cluster_label>  (1056) 
3

>  <cluster_rank>  (1056) 
713

>  <N_interactions>  (1056) 
4

>  <∆∆G>  (1056) 
-2.368688

>  <comRMSD>  (1056) 
0.41476

>  <ROCS_TanimotoCombo>  (1056) 
0.301

>  <ROCS_ShapeTanimoto>  (1056) 
0.172

>  <ROCS_ColorTanimoto>  (1056) 
0.129

$$$$
Z3064921282
     RDKit          3D

 15 15  0  0  0  0  0  0  0  0999 V2000
   29.8543    8.5575    8.6046 C   0  0  0  0  0  0  0  0  0  0  0  0
   31.2644    8.3927    8.1420 C   0  0  0  0  0  0  0  0  0  0  0  0
   31.8190    9.4559    7.1953 C   0  0  0  0  0  0  0  0  0  0  0  0
   32.8325    8.8989    6.3613 N   0  0  0  0  0  0  0  0  0  0  0  0
   33.2118    9.9098    5.6093 N   0  0  0  0  0  0  0  0  0  0  0  0
   34.2436    9.6610    4.6452 C   0  0  0  0  0  0  0  0  0  0  0  0
   32.5507   11.0788    5.8615 C   0  0  0  0  0  0  0  0  0  0  0  0
   32.8096   12.2517    5.1739 C   0  0  0  0  0  0  0  0  0  0  0  0
   33.8828   13.1673    5.7856 C   0  0  0  0  0  0  0  0  0  0  0  0
   31.6501   10.8337    6.8690 C   0  0  0  0  0  0  0  0  0  0  0  0
   30.8736   11.8619    7.2912 N   0  0  0  0  0  0  0  0  0  0  0  0
   30.0411   11.7299    8.3006 C   0  0  0  0  0  0  0  0  0  0  0  0
   30.0190   10.6817    8.9187 O   0  0  0  0  0  0  0  0  0  0  0  0
   29.1287   12.9509    8.5938 C   0  0  0  0  0  0  0  0  0  0  0  0
   28.0706   13.3013    7.2204 Cl  0  0  0  0  0  0  0  0  0  0  0  0
  1  2  1  0
  2  3  1  0
  3  4  2  0
  4  5  1  0
  5  6  1  0
  5  7  1  0
  7  8  1  0
  8  9  1  0
  7 10  2  0
 10 11  1  0
 11 12  1  0
 12 13  2  0
 12 14  1  0
 14 15  1  0
 10  3  1  0
A    1
 C1 
A    2
 C2 
A    3
 C3 
A    4
 N1 
A    5
 N2 
A    6
 C4 
A    7
 C5 
A    8
 C6 
A    9
 C7 
A   10
 C8 
A   11
 N3 
A   12
 C9 
A   13
 O1 
A   14
 C10
A   15
CL1 
M  END
>  <ref_pdb>  (1057) 
Ax0310a

>  <ref_mols>  (1057) 
Ax0446a,Ax1080a,Ax0812a,Ax0719a,Ax1140a,Ax0528a,Ax0310a

>  <original SMILES>  (1057) 
CCc1nn(C)c(CC)c1NC(=O)CCl

>  <rationale>  (1057) 
info info set:screening_pocket;hydroph_interaction:P107+V124; 

>  <experiment>  (1057) 
screening_pocket

>  <cluster_label>  (1057) 
3

>  <cluster_rank>  (1057) 
714

>  <N_interactions>  (1057) 
2

>  <∆∆G>  (1057) 
-6.090683

>  <comRMSD>  (1057) 
0.898374

>  <ROCS_TanimotoCombo>  (1057) 
0.649

>  <ROCS_ShapeTanimoto>  (1057) 
0.234

>  <ROCS_ColorTanimoto>  (1057) 
0.415

$$$$
EN300_795708
     RDKit          3D

 11 11  0  0  0  0  0  0  0  0999 V2000
   29.6540    8.1400    8.6999 C   0  0  0  0  0  0  0  0  0  0  0  0
   30.8611    8.8728    8.2421 C   0  0  0  0  0  0  0  0  0  0  0  0
   30.7938   10.4207    8.1662 C   0  0  0  0  0  0  0  0  0  0  0  0
   30.2152   11.3110    8.7277 O   0  0  0  0  0  0  0  0  0  0  0  0
   31.7826   10.6027    6.9995 C   0  0  0  0  0  0  0  0  0  0  0  0
   31.7923   11.9762    6.3735 C   0  0  0  0  0  0  0  0  0  0  0  0
   32.7919   12.1795    5.1872 C   0  0  0  0  0  0  0  0  0  0  0  0
   33.6348   10.9668    4.8041 C   0  0  0  0  0  0  0  0  0  0  0  0
   33.4161    9.6938    5.6171 C   0  0  0  0  0  0  0  0  0  0  0  0
   34.1926    8.6125    5.2462 N   0  0  0  0  0  0  0  0  0  0  0  0
   32.5499    9.5444    6.6352 N   0  0  0  0  0  0  0  0  0  0  0  0
  1  2  3  0
  2  3  1  0
  3  4  2  0
  3  5  1  0
  5  6  2  0
  6  7  1  0
  7  8  2  0
  8  9  1  0
  9 10  1  0
  9 11  2  0
 11  5  1  0
A    1
 C1 
A    2
 C2 
A    3
 C3 
A    4
 O1 
A    5
 C4 
A    6
 C5 
A    7
 C6 
A    8
 C7 
A    9
 C8 
A   10
 N1 
A   11
 N2 
M  END
>  <ref_pdb>  (1058) 
Ax0310a

>  <ref_mols>  (1058) 
Ax0446a,Ax1080a,Ax0812a,Ax0719a,Ax1140a,Ax0528a,Ax0310a

>  <original SMILES>  (1058) 
C#CC(=O)c1cccc(N)n1

>  <rationale>  (1058) 
info info set:bb_densepocket2;hbond:S105; hydroph_interaction:P107+V124; 

>  <experiment>  (1058) 
bb_densepocket2

>  <cluster_label>  (1058) 
3

>  <cluster_rank>  (1058) 
715

>  <N_interactions>  (1058) 
3

>  <∆∆G>  (1058) 
-1.212729

>  <comRMSD>  (1058) 
0.719273

>  <ROCS_TanimotoCombo>  (1058) 
0.615

>  <ROCS_ShapeTanimoto>  (1058) 
0.198

>  <ROCS_ColorTanimoto>  (1058) 
0.417

$$$$
Z1421256455
     RDKit          3D

 18 19  0  0  0  0  0  0  0  0999 V2000
   34.1544    9.7454    4.7514 C   0  0  0  0  0  0  0  0  0  0  0  0
   33.0916    9.9214    5.8114 C   0  0  0  0  0  0  0  0  0  0  0  0
   32.7107    8.9520    6.6399 N   0  0  0  0  0  0  0  0  0  0  0  0
   31.7763    9.3404    7.4557 C   0  0  0  0  0  0  0  0  0  0  0  0
   31.3194    8.2716    8.4173 C   0  0  0  0  0  0  0  0  0  0  0  0
   30.2419    8.8547    9.2271 C   0  0  0  0  0  0  0  0  0  0  0  0
   29.3508    8.8001    8.1119 C   0  0  0  0  0  0  0  0  0  0  0  0
   29.8374    7.8798   10.2250 C   0  0  0  0  0  0  0  0  0  0  0  0
   31.3202   10.7567    7.3077 C   0  0  0  0  0  0  0  0  0  0  0  0
   30.3390   11.3994    8.0289 N   0  0  0  0  0  0  0  0  0  0  0  0
   30.3804   12.6417    8.6068 C   0  0  0  0  0  0  0  0  0  0  0  0
   31.3722   13.2526    8.9506 O   0  0  0  0  0  0  0  0  0  0  0  0
   28.9861   13.2290    8.7834 C   0  0  0  0  0  0  0  0  0  0  0  0
   28.1260   12.9149    7.5682 C   0  0  0  0  0  0  0  0  0  0  0  0
   28.1045   14.1865    6.7709 C   0  0  0  0  0  0  0  0  0  0  0  0
   28.6466   15.1767    7.5753 C   0  0  0  0  0  0  0  0  0  0  0  0
   29.0662   14.7409    8.9197 C   0  0  0  0  0  0  0  0  0  0  0  0
   32.2644   11.4190    6.0497 S   0  0  0  0  0  0  0  0  0  0  0  0
  1  2  1  0
  2  3  2  0
  3  4  1  0
  4  5  1  0
  5  6  1  0
  6  7  1  0
  6  8  1  0
  4  9  2  0
  9 10  1  0
 10 11  1  0
 11 12  2  0
 11 13  1  0
 13 14  1  0
 14 15  1  0
 15 16  2  0
 16 17  1  0
  9 18  1  0
 18  2  1  0
 17 13  1  0
A    1
 C1 
A    2
 C2 
A    3
 N1 
A    4
 C3 
A    5
 C4 
A    6
 C5 
A    7
 C6 
A    8
 C7 
A    9
 C8 
A   10
 N2 
A   11
 C9 
A   12
 O1 
A   13
 C10
A   14
 C11
A   15
 C12
A   16
 C13
A   17
 C14
A   18
 S1 
M  END
>  <ref_pdb>  (1059) 
Ax0310a

>  <ref_mols>  (1059) 
Ax0446a,Ax1080a,Ax0812a,Ax0719a,Ax1140a,Ax0528a,Ax0310a

>  <original SMILES>  (1059) 
Cc1nc(CC(C)C)c(NC(=O)C2CC=CC2)s1

>  <rationale>  (1059) 
info info set:screening_pocket;hbond:G127; hydroph_interaction:Y89+Y90+V124; 

>  <experiment>  (1059) 
screening_pocket

>  <cluster_label>  (1059) 
3

>  <cluster_rank>  (1059) 
716

>  <N_interactions>  (1059) 
4

>  <∆∆G>  (1059) 
-5.544147

>  <comRMSD>  (1059) 
0.914962

>  <ROCS_TanimotoCombo>  (1059) 
0.636

>  <ROCS_ShapeTanimoto>  (1059) 
0.234

>  <ROCS_ColorTanimoto>  (1059) 
0.403

$$$$
EN300_21046913
     RDKit          3D

 14 14  0  0  0  0  0  0  0  0999 V2000
   29.3839    7.4375    8.5683 C   0  0  0  0  0  0  0  0  0  0  0  0
   29.8903    8.6413    9.0934 C   0  0  0  0  0  0  0  0  0  0  0  0
   28.9456    9.7584    8.7345 C   0  0  0  0  0  0  0  0  0  0  0  0
   29.7796    8.1205   10.4062 C   0  0  0  0  0  0  0  0  0  0  0  0
   31.1531    9.0012    8.6221 O   0  0  0  0  0  0  0  0  0  0  0  0
   31.1634   10.2336    8.1340 C   0  0  0  0  0  0  0  0  0  0  0  0
   30.5778   11.1996    8.5654 O   0  0  0  0  0  0  0  0  0  0  0  0
   32.0433   10.2799    6.9516 C   0  0  0  0  0  0  0  0  0  0  0  0
   32.7934    9.0787    6.5942 N   0  0  0  0  0  0  0  0  0  0  0  0
   33.5869    9.2318    5.5084 C   0  0  0  0  0  0  0  0  0  0  0  0
   33.6861   10.5516    4.7194 C   0  0  0  0  0  0  0  0  0  0  0  0
   32.9090   11.7841    5.0861 C   0  0  0  0  0  0  0  0  0  0  0  0
   32.0095   11.6653    6.2899 C   0  0  0  0  0  0  0  0  0  0  0  0
   31.2648   12.6898    6.7249 F   0  0  0  0  0  0  0  0  0  0  0  0
  1  2  1  0
  2  3  1  0
  2  4  1  0
  2  5  1  0
  5  6  1  0
  6  7  2  0
  6  8  1  0
  8  9  2  0
  9 10  1  0
 10 11  2  0
 11 12  1  0
 12 13  2  0
 13 14  1  0
 13  8  1  0
A    1
 C1 
A    2
 C2 
A    3
 C3 
A    4
 C4 
A    5
 O1 
A    6
 C5 
A    7
 O2 
A    8
 C6 
A    9
 N1 
A   10
 C7 
A   11
 C8 
A   12
 C9 
A   13
 C10
A   14
 F1 
M  END
>  <ref_pdb>  (1060) 
Ax0310a

>  <ref_mols>  (1060) 
Ax0446a,Ax1080a,Ax0812a,Ax0719a,Ax1140a,Ax0528a,Ax0310a

>  <original SMILES>  (1060) 
CC(C)(C)OC(=O)c1ncccc1F

>  <rationale>  (1060) 
info info set:bb_densepocket2;hydroph_interaction:P107+V124+D109; 

>  <experiment>  (1060) 
bb_densepocket2

>  <cluster_label>  (1060) 
3

>  <cluster_rank>  (1060) 
717

>  <N_interactions>  (1060) 
3

>  <∆∆G>  (1060) 
-2.921069

>  <comRMSD>  (1060) 
0.696122

>  <ROCS_TanimotoCombo>  (1060) 
0.61

>  <ROCS_ShapeTanimoto>  (1060) 
0.214

>  <ROCS_ColorTanimoto>  (1060) 
0.396

$$$$
EN300_198672
     RDKit          3D

 14 14  0  0  0  0  0  0  0  0999 V2000
   35.4106   11.1651    5.0255 C   0  0  0  0  0  0  0  0  0  0  0  0
   35.1812   10.0397    5.3999 O   0  0  0  0  0  0  0  0  0  0  0  0
   33.9257    9.6159    5.1601 C   0  0  0  0  0  0  0  0  0  0  0  0
   33.0186   10.0271    6.1538 C   0  0  0  0  0  0  0  0  0  0  0  0
   32.1328    9.0518    6.7240 C   0  0  0  0  0  0  0  0  0  0  0  0
   31.1963    9.3653    7.6717 C   0  0  0  0  0  0  0  0  0  0  0  0
   31.0616   10.8003    8.1912 C   0  0  0  0  0  0  0  0  0  0  0  0
   31.9891   11.6813    7.6057 C   0  0  0  0  0  0  0  0  0  0  0  0
   32.0068   13.0070    8.0175 C   0  0  0  0  0  0  0  0  0  0  0  0
   30.3618   13.7020    7.9957 S   0  0  0  0  0  6  0  0  0  0  0  0
   29.3287   12.5569    8.5878 N   0  0  0  0  0  0  0  0  0  0  0  0
   29.9359   13.7652    6.6166 O   0  0  0  0  0  0  0  0  0  0  0  0
   30.3264   14.8080    8.9341 O   0  0  0  0  0  0  0  0  0  0  0  0
   32.9239   11.3180    6.6219 C   0  0  0  0  0  0  0  0  0  0  0  0
  1  2  1  0
  2  3  1  0
  3  4  1  0
  4  5  2  0
  5  6  1  0
  6  7  2  0
  7  8  1  0
  8  9  1  0
  9 10  1  0
 10 11  1  0
 10 12  2  0
 10 13  2  0
  8 14  2  0
 14  4  1  0
A    1
 C1 
A    2
 O1 
A    3
 C2 
A    4
 C3 
A    5
 C4 
A    6
 C5 
A    7
 C6 
A    8
 C7 
A    9
 C8 
A   10
 S1 
A   11
 N1 
A   12
 O2 
A   13
 O3 
A   14
 C9 
M  END
>  <ref_pdb>  (1061) 
Ax0310a

>  <ref_mols>  (1061) 
Ax0446a,Ax1080a,Ax0812a,Ax0719a,Ax1140a,Ax0528a,Ax0310a

>  <original SMILES>  (1061) 
COCc1cccc(CS(N)(=O)=O)c1

>  <rationale>  (1061) 
info info set:sulfonimide_whole;hbond:S87+S125; 

>  <experiment>  (1061) 
sulfonimide_whole

>  <cluster_label>  (1061) 
3

>  <cluster_rank>  (1061) 
718

>  <N_interactions>  (1061) 
2

>  <∆∆G>  (1061) 
-4.797858

>  <comRMSD>  (1061) 
0.864491

>  <ROCS_TanimotoCombo>  (1061) 
0.35

>  <ROCS_ShapeTanimoto>  (1061) 
0.179

>  <ROCS_ColorTanimoto>  (1061) 
0.171

$$$$
EN300_801880
     RDKit          3D

 16 17  0  0  0  0  0  0  0  0999 V2000
   29.6951    8.1292    8.4766 C   0  0  0  0  0  0  0  0  0  0  0  0
   31.0101    8.7074    8.7815 C   0  0  0  0  0  0  0  0  0  0  0  0
   31.5433    9.5545    7.6817 C   0  0  0  0  0  0  0  0  0  0  0  0
   32.5091    8.9820    6.8898 N   0  0  0  0  0  0  0  0  0  0  0  0
   33.0838    9.6779    5.8685 C   0  0  0  0  0  0  0  0  0  0  0  0
   34.1637    9.0452    5.0093 C   0  0  0  0  0  0  0  0  0  0  0  0
   34.7579    9.8628    3.8692 C   0  0  0  0  0  0  0  0  0  0  0  0
   34.4141   11.2945    3.4527 C   0  0  0  0  0  0  0  0  0  0  0  0
   33.4167   11.7460    4.3441 C   0  0  0  0  0  0  0  0  0  0  0  0
   32.9231   13.0117    4.2014 O   0  0  0  0  0  0  0  0  0  0  0  0
   33.4300   13.7677    3.1157 C   0  0  0  0  0  0  0  0  0  0  0  0
   32.7438   10.9728    5.5451 C   0  0  0  0  0  0  0  0  0  0  0  0
   31.7649   11.5463    6.3502 C   0  0  0  0  0  0  0  0  0  0  0  0
   31.0860   10.8520    7.5001 C   0  0  0  0  0  0  0  0  0  0  0  0
   30.0866   11.4653    8.3015 N   0  0  0  0  0  0  0  0  0  0  0  0
   29.4565   12.6467    7.8918 N   0  0  0  0  0  0  0  0  0  0  0  0
  1  2  1  0
  2  3  1  0
  3  4  2  0
  4  5  1  0
  5  6  2  0
  6  7  1  0
  7  8  2  0
  8  9  1  0
  9 10  1  0
 10 11  1  0
  9 12  2  0
 12 13  1  0
 13 14  2  0
 14 15  1  0
 15 16  1  0
 14  3  1  0
 12  5  1  0
A    1
 C1 
A    2
 C2 
A    3
 C3 
A    4
 N1 
A    5
 C4 
A    6
 C5 
A    7
 C6 
A    8
 C7 
A    9
 C8 
A   10
 O1 
A   11
 C9 
A   12
 C10
A   13
 C11
A   14
 C12
A   15
 N2 
A   16
 N3 
M  END
>  <ref_pdb>  (1062) 
Ax0310a

>  <ref_mols>  (1062) 
Ax0446a,Ax1080a,Ax0812a,Ax0719a,Ax1140a,Ax0528a,Ax0310a

>  <original SMILES>  (1062) 
CCc1nc2cccc(OC)c2cc1NN

>  <rationale>  (1062) 
info info set:bb_densepocket2;hbond:S125; hydroph_interaction:P107+V124; 

>  <experiment>  (1062) 
bb_densepocket2

>  <cluster_label>  (1062) 
3

>  <cluster_rank>  (1062) 
719

>  <N_interactions>  (1062) 
3

>  <∆∆G>  (1062) 
-5.96817

>  <comRMSD>  (1062) 
0.456887

>  <ROCS_TanimotoCombo>  (1062) 
0.618

>  <ROCS_ShapeTanimoto>  (1062) 
0.259

>  <ROCS_ColorTanimoto>  (1062) 
0.359

$$$$
EN300_1727037
     RDKit          3D

 17 19  0  0  0  0  0  0  0  0999 V2000
   32.7733   13.4770    8.8834 O   0  0  0  0  0  0  0  0  0  0  0  0
   31.6622   14.0006    8.9703 C   0  0  0  0  0  0  0  0  0  0  0  0
   31.4431   15.0562    9.7900 O   0  0  0  0  0  0  0  0  0  0  0  0
   30.4890   13.4931    8.1544 C   0  0  0  0  0  0  0  0  0  0  0  0
   29.1446   14.0557    8.0442 C   0  0  0  0  0  0  0  0  0  0  0  0
   28.2869   13.2704    7.1296 N   0  0  0  0  0  0  0  0  0  0  0  0
   29.1653   12.2381    6.7108 O   0  0  0  0  0  0  0  0  0  0  0  0
   30.4647   12.2879    7.2553 C   0  0  0  0  0  0  0  0  0  0  0  0
   31.5503   11.2300    6.8639 C   0  0  0  0  0  0  0  0  0  0  0  0
   31.1300    9.8782    7.5039 C   0  0  0  0  0  0  0  0  0  0  0  0
   32.1161    8.9998    7.0940 N   0  0  0  0  0  0  0  0  0  0  0  0
   32.9990    9.7681    6.3108 C   0  0  0  0  0  0  0  0  0  0  0  0
   34.1667    9.3626    5.6379 C   0  0  0  0  0  0  0  0  0  0  0  0
   34.9377   10.1709    4.9390 N   0  0  0  0  0  0  0  0  0  0  0  0
   34.5833   11.4958    4.8585 C   0  0  0  0  0  0  0  0  0  0  0  0
   33.4547   11.9831    5.4672 C   0  0  0  0  0  0  0  0  0  0  0  0
   32.6722   11.1106    6.1849 N   0  0  0  0  0  0  0  0  0  0  0  0
  1  2  2  0
  2  3  1  0
  2  4  1  0
  4  5  1  0
  5  6  2  0
  6  7  1  0
  7  8  1  0
  8  9  1  0
  9 10  2  0
 10 11  1  0
 11 12  2  0
 12 13  1  0
 13 14  2  0
 14 15  1  0
 15 16  2  0
 16 17  1  0
  8  4  2  0
 17  9  1  0
 17 12  1  0
A    1
 O1 
A    2
 C1 
A    3
 O2 
A    4
 C2 
A    5
 C3 
A    6
 N1 
A    7
 O3 
A    8
 C4 
A    9
 C5 
A   10
 C6 
A   11
 N2 
A   12
 C7 
A   13
 C8 
A   14
 N3 
A   15
 C9 
A   16
 C10
A   17
 N4 
M  END
>  <ref_pdb>  (1063) 
Ax0310a

>  <ref_mols>  (1063) 
Ax0446a,Ax1080a,Ax0812a,Ax0719a,Ax1140a,Ax0528a,Ax0310a

>  <original SMILES>  (1063) 
O=C(O)c1cnoc1-c1cnc2cnccn12

>  <rationale>  (1063) 
info info set:bb_whole;hbond:S87+G127; 

>  <experiment>  (1063) 
bb_whole

>  <cluster_label>  (1063) 
3

>  <cluster_rank>  (1063) 
720

>  <N_interactions>  (1063) 
3

>  <∆∆G>  (1063) 
-3.891865

>  <comRMSD>  (1063) 
0.557357

>  <ROCS_TanimotoCombo>  (1063) 
0.412

>  <ROCS_ShapeTanimoto>  (1063) 
0.236

>  <ROCS_ColorTanimoto>  (1063) 
0.177

$$$$
EN300_1267268
     RDKit          3D

 15 15  0  0  0  0  0  0  0  0999 V2000
   32.3734   14.1338    4.0496 C   0  0  0  0  0  0  0  0  0  0  0  0
   31.8481   13.4827    5.1984 O   0  0  0  0  0  0  0  0  0  0  0  0
   32.7893   12.8786    5.9558 C   0  0  0  0  0  0  0  0  0  0  0  0
   33.9604   13.1986    6.0573 O   0  0  0  0  0  0  0  0  0  0  0  0
   32.2125   11.7937    6.6275 C   0  0  0  0  0  0  0  0  0  0  0  0
   32.8593   10.4464    6.2596 C   0  0  0  0  0  0  0  0  0  0  0  0
   32.2561    9.2148    6.9838 C   0  0  0  0  0  0  0  0  0  0  0  0
   31.1107    9.5070    7.9663 C   0  0  0  0  0  0  0  0  0  0  0  0
   30.5496    8.4712    8.6467 O   0  0  0  0  0  0  0  0  0  0  0  0
   30.6183   10.7729    8.1977 C   0  0  0  0  0  0  0  0  0  0  0  0
   31.1482   11.8893    7.5485 C   0  0  0  0  0  0  0  0  0  0  0  0
   30.4189   13.4480    7.9282 S   0  0  0  0  0  6  0  0  0  0  0  0
   29.0733   13.1804    8.8639 N   0  0  0  0  0  0  0  0  0  0  0  0
   29.8013   13.8983    6.7083 O   0  0  0  0  0  0  0  0  0  0  0  0
   31.3093   14.2217    8.7746 O   0  0  0  0  0  0  0  0  0  0  0  0
  1  2  1  0
  2  3  1  0
  3  4  2  0
  3  5  1  0
  5  6  2  0
  6  7  1  0
  7  8  2  0
  8  9  1  0
  8 10  1  0
 10 11  2  0
 11 12  1  0
 12 13  1  0
 12 14  2  0
 12 15  2  0
 11  5  1  0
A    1
 C1 
A    2
 O1 
A    3
 C2 
A    4
 O2 
A    5
 C3 
A    6
 C4 
A    7
 C5 
A    8
 C6 
A    9
 O3 
A   10
 C7 
A   11
 C8 
A   12
 S1 
A   13
 N1 
A   14
 O4 
A   15
 O5 
M  END
>  <ref_pdb>  (1064) 
Ax0310a

>  <ref_mols>  (1064) 
Ax0446a,Ax1080a,Ax0812a,Ax0719a,Ax1140a,Ax0528a,Ax0310a

>  <original SMILES>  (1064) 
COC(=O)c1ccc(O)cc1S(N)(=O)=O

>  <rationale>  (1064) 
info info set:sulfonimide_whole;hbond:S87+S125; 

>  <experiment>  (1064) 
sulfonimide_whole

>  <cluster_label>  (1064) 
3

>  <cluster_rank>  (1064) 
721

>  <N_interactions>  (1064) 
2

>  <∆∆G>  (1064) 
-6.173293

>  <comRMSD>  (1064) 
0.469567

>  <ROCS_TanimotoCombo>  (1064) 
0.341

>  <ROCS_ShapeTanimoto>  (1064) 
0.202

>  <ROCS_ColorTanimoto>  (1064) 
0.139

$$$$
EN300_2517376
     RDKit          3D

 10 10  0  0  0  0  0  0  0  0999 V2000
   29.6052    8.3755    8.3644 C   0  0  0  0  0  0  0  0  0  0  0  0
   31.0500    8.6317    8.4874 C   0  0  0  0  0  0  0  0  0  0  0  0
   31.6521    9.5344    7.4905 C   0  0  0  0  0  0  0  0  0  0  0  0
   32.5516    8.9010    6.7088 N   0  0  0  0  0  0  0  0  0  0  0  0
   33.1832    9.5977    5.7696 C   0  0  0  0  0  0  0  0  0  0  0  0
   32.9991   11.0826    5.4662 C   0  0  0  0  0  0  0  0  0  0  0  0
   32.0453   11.6069    6.3369 C   0  0  0  0  0  0  0  0  0  0  0  0
   31.3736   10.8811    7.3278 C   0  0  0  0  0  0  0  0  0  0  0  0
   30.4624   11.5787    8.0919 C   0  0  0  0  0  0  0  0  0  0  0  0
   30.7967   12.5667    8.7276 O   0  0  0  0  0  0  0  0  0  0  0  0
  1  2  2  0
  2  3  1  0
  3  4  2  0
  4  5  1  0
  5  6  2  0
  6  7  1  0
  7  8  2  0
  8  9  1  0
  9 10  2  0
  8  3  1  0
A    1
 C1 
A    2
 C2 
A    3
 C3 
A    4
 N1 
A    5
 C4 
A    6
 C5 
A    7
 C6 
A    8
 C7 
A    9
 C8 
A   10
 O1 
M  END
>  <ref_pdb>  (1065) 
Ax0310a

>  <ref_mols>  (1065) 
Ax0446a,Ax1080a,Ax0812a,Ax0719a,Ax1140a,Ax0528a,Ax0310a

>  <original SMILES>  (1065) 
C=Cc1ncccc1C=O

>  <rationale>  (1065) 
info info set:bb_densepocket2;hbond:G127; hydroph_interaction:P107+V124; 

>  <experiment>  (1065) 
bb_densepocket2

>  <cluster_label>  (1065) 
3

>  <cluster_rank>  (1065) 
722

>  <N_interactions>  (1065) 
3

>  <∆∆G>  (1065) 
-0.329315

>  <comRMSD>  (1065) 
0.613588

>  <ROCS_TanimotoCombo>  (1065) 
0.617

>  <ROCS_ShapeTanimoto>  (1065) 
0.199

>  <ROCS_ColorTanimoto>  (1065) 
0.418

$$$$
Z8467784064
     RDKit          3D

 18 19  0  0  0  0  0  0  0  0999 V2000
   29.8765   14.3424   10.2366 C   0  0  0  0  0  0  0  0  0  0  0  0
   29.2682   13.7932    8.9666 C   0  0  0  0  0  0  0  0  0  0  0  0
   30.3223   13.0089    8.2495 C   0  0  0  0  0  0  0  0  0  0  0  0
   31.2107   13.6408    7.7275 O   0  0  0  0  0  0  0  0  0  0  0  0
   30.2142   11.6446    8.2463 N   0  0  0  0  0  0  0  0  0  0  0  0
   31.1495   11.0045    7.5146 C   0  0  0  0  0  0  0  0  0  0  0  0
   32.1005   11.8167    6.5216 C   0  0  0  0  0  0  0  0  0  0  0  0
   33.1491   10.8772    5.7454 C   0  0  0  0  0  0  0  0  0  0  0  0
   34.1365   11.4488    4.7649 C   0  0  0  0  0  0  0  0  0  0  0  0
   35.4462   11.2318    4.9460 F   0  0  0  0  0  0  0  0  0  0  0  0
   33.8887   11.0468    3.4907 F   0  0  0  0  0  0  0  0  0  0  0  0
   34.0264   12.8076    4.7101 F   0  0  0  0  0  0  0  0  0  0  0  0
   33.0315    9.5186    6.0856 C   0  0  0  0  0  0  0  0  0  0  0  0
   32.2104    8.8317    6.9412 N   0  0  0  0  0  0  0  0  0  0  0  0
   31.3291    9.4922    7.6156 C   0  0  0  0  0  0  0  0  0  0  0  0
   30.5324    8.7057    8.4621 N   0  0  0  0  0  0  0  0  0  0  0  0
   28.2453   14.6608    8.2475 C   0  0  0  0  0  0  0  0  0  0  0  0
   27.8292   13.3706    8.9058 C   0  0  0  0  0  0  0  0  0  0  0  0
  1  2  1  0
  2  3  1  0
  3  4  2  0
  3  5  1  0
  5  6  1  0
  6  7  2  0
  7  8  1  0
  8  9  1  0
  9 10  1  0
  9 11  1  0
  9 12  1  0
  8 13  2  0
 13 14  1  0
 14 15  2  0
 15 16  1  0
  2 17  1  0
 17 18  1  0
 18  2  1  0
 15  6  1  0
A    1
 C1 
A    2
 C2 
A    3
 C3 
A    4
 O1 
A    5
 N1 
A    6
 C4 
A    7
 C5 
A    8
 C6 
A    9
 C7 
A   10
 F1 
A   11
 F2 
A   12
 F3 
A   13
 C8 
A   14
 N2 
A   15
 C9 
A   16
 N3 
A   17
 C10
A   18
 C11
M  END
>  <ref_pdb>  (1066) 
Ax0310a

>  <ref_mols>  (1066) 
Ax0446a,Ax1080a,Ax0812a,Ax0719a,Ax1140a,Ax0528a,Ax0310a

>  <original SMILES>  (1066) 
CC1(C(=O)Nc2cc(C(F)(F)F)cnc2N)CC1

>  <rationale>  (1066) 
info info set:screening_pocket;hbond:S87+S105+S125; hydroph_interaction:Y90; 

>  <experiment>  (1066) 
screening_pocket

>  <cluster_label>  (1066) 
3

>  <cluster_rank>  (1066) 
723

>  <N_interactions>  (1066) 
4

>  <∆∆G>  (1066) 
-5.617627

>  <comRMSD>  (1066) 
0.5284

>  <ROCS_TanimotoCombo>  (1066) 
0.627

>  <ROCS_ShapeTanimoto>  (1066) 
0.258

>  <ROCS_ColorTanimoto>  (1066) 
0.37

$$$$
EN300_1273021
     RDKit          3D

 14 15  0  0  0  0  0  0  0  0999 V2000
   33.7140    9.7905    4.6091 C   0  0  0  0  0  0  0  0  0  0  0  0
   33.2578    9.9649    6.0426 C   0  0  2  0  0  0  0  0  0  0  0  0
   32.4702    8.8895    6.6972 C   0  0  0  0  0  0  0  0  0  0  0  0
   31.7309    9.3834    7.8572 N   0  0  0  0  0  0  0  0  0  0  0  0
   31.5551   10.7036    7.4546 C   0  0  0  0  0  0  0  0  0  0  0  0
   30.6809   11.6106    7.9990 C   0  0  0  0  0  0  0  0  0  0  0  0
   30.6350   12.9999    7.4273 C   0  0  0  0  0  0  0  0  0  0  0  0
   29.5679   14.2286    8.1304 S   0  0  0  0  0  6  0  0  0  0  0  0
   28.5151   13.3981    9.1305 N   0  0  0  0  0  0  0  0  0  0  0  0
   30.3627   15.0456    9.0339 O   0  0  0  0  0  0  0  0  0  0  0  0
   28.7171   14.8509    7.0367 O   0  0  0  0  0  0  0  0  0  0  0  0
   31.5125   13.2082    6.3221 C   0  0  0  0  0  0  0  0  0  0  0  0
   32.3525   12.2715    5.8429 C   0  0  0  0  0  0  0  0  0  0  0  0
   32.3897   11.0588    6.3982 C   0  0  0  0  0  0  0  0  0  0  0  0
  2  1  1  6
  2  3  1  0
  3  4  1  0
  4  5  1  0
  5  6  2  0
  6  7  1  0
  7  8  1  0
  8  9  1  0
  8 10  2  0
  8 11  2  0
  7 12  2  0
 12 13  1  0
 13 14  2  0
 14  2  1  0
 14  5  1  0
A    1
 C1 
A    2
 C2 
A    3
 C3 
A    4
 N1 
A    5
 C4 
A    6
 C5 
A    7
 C6 
A    8
 S1 
A    9
 N2 
A   10
 O1 
A   11
 O2 
A   12
 C7 
A   13
 C8 
A   14
 C9 
M  END
>  <ref_pdb>  (1067) 
Ax0310a

>  <ref_mols>  (1067) 
Ax0446a,Ax1080a,Ax0812a,Ax0719a,Ax1140a,Ax0528a,Ax0310a

>  <original SMILES>  (1067) 
C[C@@H]1CNc2cc(S(N)(=O)=O)ccc21

>  <rationale>  (1067) 
info info set:sulfonimide_whole;hbond:S87+S125+T126; hydroph_interaction:P107; 

>  <experiment>  (1067) 
sulfonimide_whole

>  <cluster_label>  (1067) 
3

>  <cluster_rank>  (1067) 
724

>  <N_interactions>  (1067) 
4

>  <∆∆G>  (1067) 
-1.568892

>  <comRMSD>  (1067) 
0.74874

>  <ROCS_TanimotoCombo>  (1067) 
0.334

>  <ROCS_ShapeTanimoto>  (1067) 
0.191

>  <ROCS_ColorTanimoto>  (1067) 
0.143

$$$$
EN300_744933
     RDKit          3D

 16 17  0  0  0  0  0  0  0  0999 V2000
   28.8289    9.5791    9.2576 C   0  0  0  0  0  0  0  0  0  0  0  0
   30.2077    9.3333    8.9272 C   0  0  0  0  0  0  0  0  0  0  0  0
   30.8309    8.2535    9.5820 C   0  0  0  0  0  0  0  0  0  0  0  0
   30.0341    8.4492    7.9167 C   0  0  0  0  0  0  0  0  0  0  0  0
   30.9911   10.4317    8.2793 C   0  0  0  0  0  0  0  0  0  0  0  0
   30.7055   11.7806    8.6859 O   0  0  0  0  0  0  0  0  0  0  0  0
   31.9210   10.2577    7.1533 C   0  0  0  0  0  0  0  0  0  0  0  0
   31.8245   11.4129    6.2121 C   0  0  0  0  0  0  0  0  0  0  0  0
   32.8736   10.7845    5.3328 C   0  0  0  0  0  0  0  0  0  0  0  0
   33.3297   11.3462    4.1469 C   0  0  0  0  0  0  0  0  0  0  0  0
   34.2990   10.6792    3.4143 C   0  0  0  0  0  0  0  0  0  0  0  0
   34.8693   11.3386    1.9324 Cl  0  0  0  0  0  0  0  0  0  0  0  0
   34.8171    9.4778    3.8723 C   0  0  0  0  0  0  0  0  0  0  0  0
   34.3607    8.9346    5.0536 C   0  0  0  0  0  0  0  0  0  0  0  0
   33.3701    9.5932    5.7758 C   0  0  0  0  0  0  0  0  0  0  0  0
   32.7782    9.2327    6.9176 O   0  0  0  0  0  0  0  0  0  0  0  0
  1  2  1  0
  2  3  1  0
  2  4  1  0
  2  5  1  0
  5  6  2  0
  5  7  1  0
  7  8  2  0
  8  9  1  0
  9 10  2  0
 10 11  1  0
 11 12  1  0
 11 13  2  0
 13 14  1  0
 14 15  2  0
 15 16  1  0
 16  7  1  0
 15  9  1  0
A    1
 C1 
A    2
 C2 
A    3
 C3 
A    4
 C4 
A    5
 C5 
A    6
 O1 
A    7
 C6 
A    8
 C7 
A    9
 C8 
A   10
 C9 
A   11
 C10
A   12
CL1 
A   13
 C11
A   14
 C12
A   15
 C13
A   16
 O2 
M  END
>  <ref_pdb>  (1068) 
Ax0310a

>  <ref_mols>  (1068) 
Ax0446a,Ax1080a,Ax0812a,Ax0719a,Ax1140a,Ax0528a,Ax0310a

>  <original SMILES>  (1068) 
CC(C)(C)C(=O)c1cc2cc(Cl)ccc2o1

>  <rationale>  (1068) 
info info set:bb_densepocket2;hbond:S125+G127; hydroph_interaction:P107+V124; 

>  <experiment>  (1068) 
bb_densepocket2

>  <cluster_label>  (1068) 
3

>  <cluster_rank>  (1068) 
725

>  <N_interactions>  (1068) 
4

>  <∆∆G>  (1068) 
-3.433812

>  <comRMSD>  (1068) 
0.672549

>  <ROCS_TanimotoCombo>  (1068) 
0.606

>  <ROCS_ShapeTanimoto>  (1068) 
0.218

>  <ROCS_ColorTanimoto>  (1068) 
0.388

$$$$
EN300_27733923
     RDKit          3D

 16 17  0  0  0  0  0  0  0  0999 V2000
   34.6441   10.5603    2.9050 C   0  0  0  0  0  0  0  0  0  0  0  0
   34.1967    9.9948    4.1303 O   0  0  0  0  0  0  0  0  0  0  0  0
   34.5471   10.7076    5.2359 C   0  0  0  0  0  0  0  0  0  0  0  0
   35.6193   11.2330    5.4087 O   0  0  0  0  0  0  0  0  0  0  0  0
   33.3366   10.7176    6.1560 C   0  0  1  0  0  0  0  0  0  0  0  0
   32.7165    9.4856    6.3728 C   0  0  0  0  0  0  0  0  0  0  0  0
   31.6778    9.6915    7.4595 C   0  0  0  0  0  0  0  0  0  0  0  0
   31.5371   11.1730    7.3542 C   0  0  1  0  0  0  0  0  0  0  0  0
   30.3898   11.7090    8.1706 C   0  0  0  0  0  0  0  0  0  0  0  0
   30.3692   13.4809    8.2726 S   0  0  0  0  0  6  0  0  0  0  0  0
   29.2270   13.8739    9.4360 N   0  0  0  0  0  0  0  0  0  0  0  0
   31.6222   14.0156    8.7647 O   0  0  0  0  0  0  0  0  0  0  0  0
   29.7517   13.9031    7.0398 O   0  0  0  0  0  0  0  0  0  0  0  0
   32.9185   11.8124    7.1535 C   0  0  0  0  0  0  0  0  0  0  0  0
   31.1638   11.2805    6.0079 O   0  0  0  0  0  0  0  0  0  0  0  0
   32.4378   11.4941    5.3390 C   0  0  0  0  0  0  0  0  0  0  0  0
  1  2  1  0
  2  3  1  0
  3  4  2  0
  5  3  1  6
  5  6  1  0
  6  7  1  0
  7  8  1  0
  8  9  1  1
  9 10  1  0
 10 11  1  0
 10 12  2  0
 10 13  2  0
  8 14  1  0
  8 15  1  0
 15 16  1  0
 14  5  1  0
 16  5  1  0
A    1
 C1 
A    2
 O1 
A    3
 C2 
A    4
 O2 
A    5
 C3 
A    6
 C4 
A    7
 C5 
A    8
 C6 
A    9
 C7 
A   10
 S1 
A   11
 N1 
A   12
 O3 
A   13
 O4 
A   14
 C8 
A   15
 O5 
A   16
 C9 
M  END
>  <ref_pdb>  (1069) 
Ax0310a

>  <ref_mols>  (1069) 
Ax0446a,Ax1080a,Ax0812a,Ax0719a,Ax1140a,Ax0528a,Ax0310a

>  <original SMILES>  (1069) 
COC(=O)[C@@]12CC[C@@](CS(N)(=O)=O)(C1)OC2

>  <rationale>  (1069) 
info info set:bb_whole;hbond:S87+S125; 

>  <experiment>  (1069) 
bb_whole

>  <cluster_label>  (1069) 
3

>  <cluster_rank>  (1069) 
726

>  <N_interactions>  (1069) 
2

>  <∆∆G>  (1069) 
-0.202352

>  <comRMSD>  (1069) 
0.776925

>  <ROCS_TanimotoCombo>  (1069) 
0.438

>  <ROCS_ShapeTanimoto>  (1069) 
0.202

>  <ROCS_ColorTanimoto>  (1069) 
0.236

$$$$
EN300_801858
     RDKit          3D

 16 17  0  0  0  0  0  0  0  0999 V2000
   29.6852    8.1618    8.5008 C   0  0  0  0  0  0  0  0  0  0  0  0
   31.0541    8.7240    8.6200 C   0  0  0  0  0  0  0  0  0  0  0  0
   31.7250    9.5302    7.4675 C   0  0  0  0  0  0  0  0  0  0  0  0
   32.6965    9.0027    6.6718 N   0  0  0  0  0  0  0  0  0  0  0  0
   33.2286    9.7994    5.6941 C   0  0  0  0  0  0  0  0  0  0  0  0
   34.3352    9.3743    4.7185 C   0  0  0  0  0  0  0  0  0  0  0  0
   34.8484    8.0987    4.8610 O   0  0  0  0  0  0  0  0  0  0  0  0
   35.2951    7.4242    3.6931 C   0  0  0  0  0  0  0  0  0  0  0  0
   34.8526   10.1766    3.7194 C   0  0  0  0  0  0  0  0  0  0  0  0
   34.3600   11.5763    3.5168 C   0  0  0  0  0  0  0  0  0  0  0  0
   33.2842   12.0756    4.4552 C   0  0  0  0  0  0  0  0  0  0  0  0
   32.7536   11.1356    5.5344 C   0  0  0  0  0  0  0  0  0  0  0  0
   31.7628   11.7891    6.2984 C   0  0  0  0  0  0  0  0  0  0  0  0
   31.1643   10.9351    7.3875 C   0  0  0  0  0  0  0  0  0  0  0  0
   30.1485   11.4295    8.2502 N   0  0  0  0  0  0  0  0  0  0  0  0
   29.3642   12.5276    7.8912 N   0  0  0  0  0  0  0  0  0  0  0  0
  1  2  1  0
  2  3  1  0
  3  4  2  0
  4  5  1  0
  5  6  2  0
  6  7  1  0
  7  8  1  0
  6  9  1  0
  9 10  2  0
 10 11  1  0
 11 12  2  0
 12 13  1  0
 13 14  2  0
 14 15  1  0
 15 16  1  0
 14  3  1  0
 12  5  1  0
A    1
 C1 
A    2
 C2 
A    3
 C3 
A    4
 N1 
A    5
 C4 
A    6
 C5 
A    7
 O1 
A    8
 C6 
A    9
 C7 
A   10
 C8 
A   11
 C9 
A   12
 C10
A   13
 C11
A   14
 C12
A   15
 N2 
A   16
 N3 
M  END
>  <ref_pdb>  (1070) 
Ax0310a

>  <ref_mols>  (1070) 
Ax0446a,Ax1080a,Ax0812a,Ax0719a,Ax1140a,Ax0528a,Ax0310a

>  <original SMILES>  (1070) 
CCc1nc2c(OC)cccc2cc1NN

>  <rationale>  (1070) 
info info set:bb_densepocket2;hbond:S125; hydroph_interaction:P107+V124; 

>  <experiment>  (1070) 
bb_densepocket2

>  <cluster_label>  (1070) 
3

>  <cluster_rank>  (1070) 
727

>  <N_interactions>  (1070) 
4

>  <∆∆G>  (1070) 
-5.067741

>  <comRMSD>  (1070) 
0.659362

>  <ROCS_TanimotoCombo>  (1070) 
0.615

>  <ROCS_ShapeTanimoto>  (1070) 
0.256

>  <ROCS_ColorTanimoto>  (1070) 
0.359

$$$$
EN300_122260
     RDKit          3D

 16 16  0  0  0  0  0  0  0  0999 V2000
   32.5045   14.8635    9.9450 C   0  0  0  0  0  0  0  0  0  0  0  0
   31.2295   15.1257    9.3421 O   0  0  0  0  0  0  0  0  0  0  0  0
   30.3915   14.0450    9.1939 C   0  0  0  0  0  0  0  0  0  0  0  0
   29.7767   14.0117    7.9325 C   0  0  0  0  0  0  0  0  0  0  0  0
   30.6395   13.6889    7.1103 O   0  0  0  0  0  0  0  0  0  0  0  0
   30.9942   12.4260    7.1898 C   0  0  0  0  0  0  0  0  0  0  0  0
   30.1097   11.5903    8.0495 C   0  0  0  0  0  0  0  0  0  0  0  0
   30.4778   10.2007    8.1407 C   0  0  0  0  0  0  0  0  0  0  0  0
   31.6430    9.6953    7.4100 C   0  0  0  0  0  0  0  0  0  0  0  0
   31.9382    8.1721    7.5553 Cl  0  0  0  0  0  0  0  0  0  0  0  0
   32.4426   10.4839    6.6374 C   0  0  0  0  0  0  0  0  0  0  0  0
   32.1239   11.9119    6.5120 C   0  0  0  0  0  0  0  0  0  0  0  0
   33.2538   12.7986    5.4851 S   0  0  0  0  0  6  0  0  0  0  0  0
   34.5582   11.7481    5.3787 N   0  0  0  0  0  0  0  0  0  0  0  0
   33.7711   13.9291    6.2050 O   0  0  0  0  0  0  0  0  0  0  0  0
   32.7259   12.8678    4.1440 O   0  0  0  0  0  0  0  0  0  0  0  0
  1  2  1  0
  2  3  1  0
  3  4  1  0
  4  5  1  0
  5  6  1  0
  6  7  2  0
  7  8  1  0
  8  9  2  0
  9 10  1  0
  9 11  1  0
 11 12  2  0
 12 13  1  0
 13 14  1  0
 13 15  2  0
 13 16  2  0
 12  6  1  0
A    1
 C1 
A    2
 O1 
A    3
 C2 
A    4
 C3 
A    5
 O2 
A    6
 C4 
A    7
 C5 
A    8
 C6 
A    9
 C7 
A   10
CL1 
A   11
 C8 
A   12
 C9 
A   13
 S1 
A   14
 N1 
A   15
 O3 
A   16
 O4 
M  END
>  <ref_pdb>  (1071) 
Ax0310a

>  <ref_mols>  (1071) 
Ax0446a,Ax1080a,Ax0812a,Ax0719a,Ax1140a,Ax0528a,Ax0310a

>  <original SMILES>  (1071) 
COCCOc1ccc(Cl)cc1S(N)(=O)=O

>  <rationale>  (1071) 
info info set:sulfonimide_whole;halogenbond:S105; hbond:S87+G127; 

>  <experiment>  (1071) 
sulfonimide_whole

>  <cluster_label>  (1071) 
3

>  <cluster_rank>  (1071) 
728

>  <N_interactions>  (1071) 
3

>  <∆∆G>  (1071) 
-3.760714

>  <comRMSD>  (1071) 
0.717265

>  <ROCS_TanimotoCombo>  (1071) 
0.351

>  <ROCS_ShapeTanimoto>  (1071) 
0.211

>  <ROCS_ColorTanimoto>  (1071) 
0.139

$$$$
Z2892620153
     RDKit          3D

 19 21  0  0  0  0  0  0  0  0999 V2000
   31.2464   12.9462    5.6880 C   0  0  0  0  0  0  0  0  0  0  0  0
   30.1316   12.4919    6.4636 N   0  0  0  0  0  0  0  0  0  0  0  0
   30.6243   11.6185    7.4748 C   0  0  0  0  0  0  0  0  0  0  0  0
   30.2260   11.6992    8.7950 O   0  0  0  0  0  0  0  0  0  0  0  0
   31.5737   10.6355    6.9879 C   0  0  0  0  0  0  0  0  0  0  0  0
   31.5551    9.1686    7.3815 C   0  0  0  0  0  0  0  0  0  0  0  0
   32.5165    8.4583    6.7899 N   0  0  0  0  0  0  0  0  0  0  0  0
   33.2560    9.2424    5.9880 C   0  0  0  0  0  0  0  0  0  0  0  0
   34.2891    8.8471    5.2383 N   0  0  0  0  0  0  0  0  0  0  0  0
   35.0036    9.7783    4.5420 C   0  0  0  0  0  0  0  0  0  0  0  0
   35.9029    9.3674    3.4343 C   0  0  0  0  0  0  0  0  0  0  0  0
   34.5164   10.2830    3.1926 C   0  0  0  0  0  0  0  0  0  0  0  0
   32.8449   10.9149    5.9117 S   0  0  0  0  0  0  0  0  0  0  0  0
   29.4606   13.4810    6.9551 C   0  0  0  0  0  0  0  0  0  0  0  0
   28.4077   14.1983    6.4827 C   0  0  0  0  0  0  0  0  0  0  0  0
   27.9982   15.1576    7.2652 N   0  0  0  0  0  0  0  0  0  0  0  0
   28.8314   15.0462    8.2829 N   0  0  0  0  0  0  0  0  0  0  0  0
   28.7148   15.9314    9.3436 C   0  0  0  0  0  0  0  0  0  0  0  0
   29.7296   14.0523    8.1663 C   0  0  0  0  0  0  0  0  0  0  0  0
  1  2  1  0
  2  3  1  0
  3  4  2  0
  3  5  1  0
  5  6  2  0
  6  7  1  0
  7  8  2  0
  8  9  1  0
  9 10  1  0
 10 11  1  0
 11 12  1  0
  8 13  1  0
  2 14  1  0
 14 15  1  0
 15 16  2  0
 16 17  1  0
 17 18  1  0
 17 19  1  0
 13  5  1  0
 19 14  2  0
 12 10  1  0
A    1
 C1 
A    2
 N1 
A    3
 C2 
A    4
 O1 
A    5
 C3 
A    6
 C4 
A    7
 N2 
A    8
 C5 
A    9
 N3 
A   10
 C6 
A   11
 C7 
A   12
 C8 
A   13
 S1 
A   14
 C9 
A   15
 C10
A   16
 N4 
A   17
 N5 
A   18
 C11
A   19
 C12
M  END
>  <ref_pdb>  (1072) 
Ax0310a

>  <ref_mols>  (1072) 
Ax0446a,Ax1080a,Ax0812a,Ax0719a,Ax1140a,Ax0528a,Ax0310a

>  <original SMILES>  (1072) 
CN(C(=O)c1cnc(NC2CC2)s1)c1cnn(C)c1

>  <rationale>  (1072) 
info info set:screening_pocket;hbond:S105+G127; pistack:H21; 

>  <experiment>  (1072) 
screening_pocket

>  <cluster_label>  (1072) 
3

>  <cluster_rank>  (1072) 
729

>  <N_interactions>  (1072) 
3

>  <∆∆G>  (1072) 
-3.504484

>  <comRMSD>  (1072) 
0.70669

>  <ROCS_TanimotoCombo>  (1072) 
0.643

>  <ROCS_ShapeTanimoto>  (1072) 
0.242

>  <ROCS_ColorTanimoto>  (1072) 
0.402

$$$$
Z57366146
     RDKit          3D

 24 26  0  0  0  0  0  0  0  0999 V2000
   31.5868   15.7645   10.1921 C   0  0  0  0  0  0  0  0  0  0  0  0
   31.6383   14.5102    9.5030 O   0  0  0  0  0  0  0  0  0  0  0  0
   30.5550   14.1944    8.7245 C   0  0  0  0  0  0  0  0  0  0  0  0
   29.2374   14.6663    9.0182 C   0  0  0  0  0  0  0  0  0  0  0  0
   28.0796   14.3623    8.1928 C   0  0  0  0  0  0  0  0  0  0  0  0
   28.2149   13.5748    7.0721 C   0  0  0  0  0  0  0  0  0  0  0  0
   26.7568   13.1401    5.9569 Br  0  0  0  0  0  0  0  0  0  0  0  0
   29.4464   13.0711    6.7147 C   0  0  0  0  0  0  0  0  0  0  0  0
   30.6172   13.3119    7.4342 C   0  0  0  0  0  0  0  0  0  0  0  0
   31.6956   12.6782    6.7822 C   0  0  0  0  0  0  0  0  0  0  0  0
   33.0426   13.4140    6.9244 C   0  0  0  0  0  0  0  0  0  0  0  0
   33.6506   14.1756    5.8809 C   0  0  0  0  0  0  0  0  0  0  0  0
   33.1332   14.3419    4.5839 C   0  0  0  0  0  0  0  0  0  0  0  0
   34.9085   14.7383    6.4174 N   0  0  0  0  0  0  0  0  0  0  0  0
   34.9883   14.2582    7.7335 N   0  0  0  0  0  0  0  0  0  0  0  0
   33.9437   13.4504    8.1410 C   0  0  0  0  0  0  0  0  0  0  0  0
   33.8994   12.9513    9.2290 O   0  0  0  0  0  0  0  0  0  0  0  0
   31.7167   11.1955    7.0666 C   0  0  0  0  0  0  0  0  0  0  0  0
   32.5044   10.3180    6.3243 C   0  0  0  0  0  0  0  0  0  0  0  0
   33.3718   10.7489    5.2284 C   0  0  0  0  0  0  0  0  0  0  0  0
   32.4209    9.0479    6.6795 N   0  0  0  0  0  0  0  0  0  0  0  0
   31.5403    9.0836    7.7031 N   0  0  0  0  0  0  0  0  0  0  0  0
   31.0840   10.3522    7.9755 C   0  0  0  0  0  0  0  0  0  0  0  0
   30.1616   10.5611    9.0110 O   0  0  0  0  0  0  0  0  0  0  0  0
  1  2  1  0
  2  3  1  0
  3  4  2  0
  4  5  1  0
  5  6  2  0
  6  7  1  0
  6  8  1  0
  8  9  2  0
  9 10  1  0
 10 11  1  0
 11 12  1  0
 12 13  1  0
 12 14  2  0
 14 15  1  0
 15 16  1  0
 16 17  1  0
 10 18  1  0
 18 19  1  0
 19 20  1  0
 19 21  2  0
 21 22  1  0
 22 23  1  0
 23 24  1  0
  9  3  1  0
 16 11  2  0
 23 18  2  0
A    1
 C1 
A    2
 O1 
A    3
 C2 
A    4
 C3 
A    5
 C4 
A    6
 C5 
A    7
BR1 
A    8
 C6 
A    9
 C7 
A   10
 C8 
A   11
 C9 
A   12
 C10
A   13
 C11
A   14
 N1 
A   15
 N2 
A   16
 C12
A   17
 O2 
A   18
 C13
A   19
 C14
A   20
 C15
A   21
 N3 
A   22
 N4 
A   23
 C16
A   24
 O3 
M  END
>  <ref_pdb>  (1073) 
Ax0310a

>  <ref_mols>  (1073) 
Ax0446a,Ax1080a,Ax0812a,Ax0719a,Ax1140a,Ax0528a,Ax0310a

>  <original SMILES>  (1073) 
COc1ccc(Br)cc1C(c1c(C)n[nH]c1O)c1c(C)n[nH]c1O

>  <rationale>  (1073) 
info info set:screening_whole;hbond:S87+S105+G127; hydroph_interaction:P107+Y90; 

>  <experiment>  (1073) 
screening_whole

>  <cluster_label>  (1073) 
3

>  <cluster_rank>  (1073) 
730

>  <N_interactions>  (1073) 
6

>  <∆∆G>  (1073) 
-7.772794

>  <comRMSD>  (1073) 
0.716843

>  <ROCS_TanimotoCombo>  (1073) 
0.457

>  <ROCS_ShapeTanimoto>  (1073) 
0.251

>  <ROCS_ColorTanimoto>  (1073) 
0.206

$$$$
EN300_173081
     RDKit          3D

 12 12  0  0  0  0  0  0  0  0999 V2000
   30.2527   11.5674    8.1563 N   0  0  0  0  0  0  0  0  0  0  0  0
   31.2311   10.8487    7.4480 C   0  0  0  0  0  0  0  0  0  0  0  0
   32.0597   11.6531    6.4806 C   0  0  0  0  0  0  0  0  0  0  0  0
   33.1682   11.0105    5.6182 C   0  0  0  0  0  0  0  0  0  0  0  0
   33.1700    9.5243    5.9900 C   0  0  0  0  0  0  0  0  0  0  0  0
   34.0976    8.7850    5.3126 O   0  0  0  0  0  0  0  0  0  0  0  0
   32.4166    8.8276    6.8706 N   0  0  0  0  0  0  0  0  0  0  0  0
   31.4619    9.4826    7.5862 C   0  0  0  0  0  0  0  0  0  0  0  0
   30.5865    8.6884    8.6273 C   0  0  0  0  0  0  0  0  0  0  0  0
   31.2509    7.8470    9.4235 F   0  0  0  0  0  0  0  0  0  0  0  0
   29.5265    7.9890    8.2257 F   0  0  0  0  0  0  0  0  0  0  0  0
   30.0206    9.5332    9.4677 F   0  0  0  0  0  0  0  0  0  0  0  0
  1  2  1  0
  2  3  2  0
  3  4  1  0
  4  5  2  0
  5  6  1  0
  5  7  1  0
  7  8  2  0
  8  9  1  0
  9 10  1  0
  9 11  1  0
  9 12  1  0
  8  2  1  0
A    1
 N1 
A    2
 C1 
A    3
 C2 
A    4
 C3 
A    5
 C4 
A    6
 O1 
A    7
 N2 
A    8
 C5 
A    9
 C6 
A   10
 F1 
A   11
 F2 
A   12
 F3 
M  END
>  <ref_pdb>  (1074) 
Ax0310a

>  <ref_mols>  (1074) 
Ax0446a,Ax1080a,Ax0812a,Ax0719a,Ax1140a,Ax0528a,Ax0310a

>  <original SMILES>  (1074) 
Nc1ccc(O)nc1C(F)(F)F

>  <rationale>  (1074) 
info info set:bb_densepocket2;hbond:S125; hydroph_interaction:P107; 

>  <experiment>  (1074) 
bb_densepocket2

>  <cluster_label>  (1074) 
3

>  <cluster_rank>  (1074) 
731

>  <N_interactions>  (1074) 
2

>  <∆∆G>  (1074) 
-0.203636

>  <comRMSD>  (1074) 
0.328163

>  <ROCS_TanimotoCombo>  (1074) 
0.622

>  <ROCS_ShapeTanimoto>  (1074) 
0.23

>  <ROCS_ColorTanimoto>  (1074) 
0.391

$$$$
Z785975382
     RDKit          3D

 18 19  0  0  0  0  0  0  0  0999 V2000
   32.4405   13.0516    5.8847 C   0  0  0  0  0  0  0  0  0  0  0  0
   32.8927   12.3385    6.9665 C   0  0  0  0  0  0  0  0  0  0  0  0
   33.9139   13.0052    7.6407 C   0  0  0  0  0  0  0  0  0  0  0  0
   33.2575   10.9544    6.4064 C   0  0  0  0  0  0  0  0  0  0  0  0
   32.7634    9.9269    7.2500 O   0  0  0  0  0  0  0  0  0  0  0  0
   31.3681    9.9944    7.1639 C   0  0  0  0  0  0  0  0  0  0  0  0
   30.8581   11.1023    7.8331 C   0  0  0  0  0  0  0  0  0  0  0  0
   31.8214   12.1870    7.9779 N   0  0  0  0  0  0  0  0  0  0  0  0
   31.4281   13.3656    8.5765 C   0  0  0  0  0  0  0  0  0  0  0  0
   32.1422   14.0929    9.2586 O   0  0  0  0  0  0  0  0  0  0  0  0
   30.0450   13.7912    8.3589 C   0  0  0  0  0  0  0  0  0  0  0  0
   29.2288   14.4230    9.4177 C   0  0  0  0  0  0  0  0  0  0  0  0
   27.8046   14.8435    9.1146 C   0  0  0  0  0  0  0  0  0  0  0  0
   27.4527   14.5125    7.6741 C   0  0  0  0  0  0  0  0  0  0  0  0
   26.2813   14.8027    7.2588 F   0  0  0  0  0  0  0  0  0  0  0  0
   28.2683   13.9298    6.7717 C   0  0  0  0  0  0  0  0  0  0  0  0
   27.7969   13.7088    5.5363 F   0  0  0  0  0  0  0  0  0  0  0  0
   29.5414   13.5660    7.0807 C   0  0  0  0  0  0  0  0  0  0  0  0
  1  2  1  0
  2  3  1  0
  2  4  1  0
  4  5  1  0
  5  6  1  0
  6  7  1  0
  7  8  1  0
  8  9  1  0
  9 10  2  0
  9 11  1  0
 11 12  2  0
 12 13  1  0
 13 14  2  0
 14 15  1  0
 14 16  1  0
 16 17  1  0
 16 18  2  0
  8  2  1  0
 18 11  1  0
A    1
 C1 
A    2
 C2 
A    3
 C3 
A    4
 C4 
A    5
 O1 
A    6
 C5 
A    7
 C6 
A    8
 N1 
A    9
 C7 
A   10
 O2 
A   11
 C8 
A   12
 C9 
A   13
 C10
A   14
 C11
A   15
 F1 
A   16
 C12
A   17
 F2 
A   18
 C13
M  END
>  <ref_pdb>  (1075) 
Ax0310a

>  <ref_mols>  (1075) 
Ax0446a,Ax1080a,Ax0812a,Ax0719a,Ax1140a,Ax0528a,Ax0310a

>  <original SMILES>  (1075) 
CC1(C)COCCN1C(=O)c1ccc(F)c(F)c1

>  <rationale>  (1075) 
info info set:3d;hbond:S87; hydroph_interaction:Y90; 

>  <experiment>  (1075) 
3d

>  <cluster_label>  (1075) 
3

>  <cluster_rank>  (1075) 
732

>  <N_interactions>  (1075) 
2

>  <∆∆G>  (1075) 
-3.85301

>  <comRMSD>  (1075) 
0.896597

>  <ROCS_TanimotoCombo>  (1075) 
0.311

>  <ROCS_ShapeTanimoto>  (1075) 
0.195

>  <ROCS_ColorTanimoto>  (1075) 
0.116

$$$$
Z4419052725
     RDKit          3D

 22 24  0  0  0  0  0  0  0  0999 V2000
   32.4617   13.1419    5.4714 C   0  0  0  0  0  0  0  0  0  0  0  0
   32.5268   11.7210    5.8606 C   0  0  0  0  0  0  0  0  0  0  0  0
   31.6113   11.2351    6.9737 C   0  0  0  0  0  0  0  0  0  0  0  0
   30.7628   12.1655    7.5745 N   0  0  0  0  0  0  0  0  0  0  0  0
   29.8845   11.7570    8.4816 C   0  0  0  0  0  0  0  0  0  0  0  0
   30.0463   10.6356    8.9694 O   0  0  0  0  0  0  0  0  0  0  0  0
   28.7829   12.6639    8.6937 N   0  0  0  0  0  0  0  0  0  0  0  0
   28.2863   13.5080    9.8693 C   0  0  0  0  0  0  0  0  0  0  0  0
   29.3095   14.3778   10.6533 C   0  0  0  0  0  0  0  0  0  0  0  0
   30.3023   15.2264    9.4491 S   0  0  0  0  0  0  0  0  0  0  0  0
   28.8086   15.5613    8.4345 C   0  0  0  0  0  0  0  0  0  0  0  0
   28.2779   14.5677    7.3769 C   0  0  0  0  0  0  0  0  0  0  0  0
   26.9922   14.8181    7.2972 F   0  0  0  0  0  0  0  0  0  0  0  0
   28.8574   14.7759    6.1794 F   0  0  0  0  0  0  0  0  0  0  0  0
   28.2179   13.1019    7.5147 C   0  0  0  0  0  0  0  0  0  0  0  0
   31.6811    9.8865    7.3161 C   0  0  0  0  0  0  0  0  0  0  0  0
   32.5004    8.9814    6.7452 N   0  0  0  0  0  0  0  0  0  0  0  0
   33.2869    9.4782    5.7723 C   0  0  0  0  0  0  0  0  0  0  0  0
   34.1831    8.7280    5.0747 N   0  0  0  0  0  0  0  0  0  0  0  0
   34.8379    9.4889    4.1554 C   0  0  0  0  0  0  0  0  0  0  0  0
   34.3483   10.7674    4.2650 C   0  0  0  0  0  0  0  0  0  0  0  0
   33.3655   10.7698    5.2865 C   0  0  0  0  0  0  0  0  0  0  0  0
  1  2  1  0
  2  3  2  0
  3  4  1  0
  4  5  1  0
  5  6  2  0
  5  7  1  0
  7  8  1  0
  8  9  1  0
  9 10  1  0
 10 11  1  0
 11 12  1  0
 12 13  1  0
 12 14  1  0
 12 15  1  0
  3 16  1  0
 16 17  2  0
 17 18  1  0
 18 19  1  0
 19 20  1  0
 20 21  2  0
 21 22  1  0
 22  2  1  0
 15  7  1  0
 22 18  2  0
A    1
 C1 
A    2
 C2 
A    3
 C3 
A    4
 N1 
A    5
 C4 
A    6
 O1 
A    7
 N2 
A    8
 C5 
A    9
 C6 
A   10
 S1 
A   11
 C7 
A   12
 C8 
A   13
 F1 
A   14
 F2 
A   15
 C9 
A   16
 C10
A   17
 N3 
A   18
 C11
A   19
 N4 
A   20
 C12
A   21
 C13
A   22
 C14
M  END
>  <ref_pdb>  (1076) 
Ax0310a

>  <ref_mols>  (1076) 
Ax0446a,Ax1080a,Ax0812a,Ax0719a,Ax1140a,Ax0528a,Ax0310a

>  <original SMILES>  (1076) 
Cc1c(NC(=O)N2CCSCC(F)(F)C2)cnc2[nH]ccc12

>  <rationale>  (1076) 
info info set:screening_pocket;hydroph_interaction:P107; 

>  <experiment>  (1076) 
screening_pocket

>  <cluster_label>  (1076) 
3

>  <cluster_rank>  (1076) 
733

>  <N_interactions>  (1076) 
1

>  <∆∆G>  (1076) 
-0.06159

>  <comRMSD>  (1076) 
0.765016

>  <ROCS_TanimotoCombo>  (1076) 
0.651

>  <ROCS_ShapeTanimoto>  (1076) 
0.258

>  <ROCS_ColorTanimoto>  (1076) 
0.393

$$$$
Z1955031558
     RDKit          3D

 21 23  0  0  0  0  0  0  0  0999 V2000
   32.4086   14.4073    9.2729 C   0  0  0  0  0  0  0  0  0  0  0  0
   31.2357   15.2204    9.4254 O   0  0  0  0  0  0  0  0  0  0  0  0
   30.1985   14.5852    8.8307 C   0  0  0  0  0  0  0  0  0  0  0  0
   28.9252   15.4183    8.5792 C   0  0  0  0  0  0  0  0  0  0  0  0
   27.7837   14.6368    7.9782 C   0  0  0  0  0  0  0  0  0  0  0  0
   28.1208   13.1953    7.6965 C   0  0  0  0  0  0  0  0  0  0  0  0
   27.2258   12.5144    7.2325 O   0  0  0  0  0  0  0  0  0  0  0  0
   29.3625   12.7332    7.9200 N   0  0  0  0  0  0  0  0  0  0  0  0
   29.6119   11.3788    7.9712 C   0  0  0  0  0  0  0  0  0  0  0  0
   30.7663   10.9450    7.4211 C   0  0  0  0  0  0  0  0  0  0  0  0
   31.5688   11.8199    6.7346 N   0  0  0  0  0  0  0  0  0  0  0  0
   32.6750   11.3821    6.1661 C   0  0  0  0  0  0  0  0  0  0  0  0
   33.6208   12.2855    5.3917 C   0  0  0  0  0  0  0  0  0  0  0  0
   34.8475   11.7406    4.7520 C   0  0  0  0  0  0  0  0  0  0  0  0
   35.1300   10.3923    4.8558 C   0  0  0  0  0  0  0  0  0  0  0  0
   34.2662    9.4014    5.6043 C   0  0  0  0  0  0  0  0  0  0  0  0
   33.0005    9.8950    6.2981 C   0  0  0  0  0  0  0  0  0  0  0  0
   32.2008    9.0701    7.0003 N   0  0  0  0  0  0  0  0  0  0  0  0
   31.0875    9.6178    7.5614 C   0  0  0  0  0  0  0  0  0  0  0  0
   30.1518    8.7179    8.3657 C   0  0  0  0  0  0  0  0  0  0  0  0
   30.3695   13.3926    8.5182 N   0  0  0  0  0  0  0  0  0  0  0  0
  1  2  1  0
  2  3  1  0
  3  4  1  0
  4  5  2  0
  5  6  1  0
  6  7  2  0
  6  8  1  0
  8  9  1  0
  9 10  1  0
 10 11  2  0
 11 12  1  0
 12 13  2  0
 13 14  1  0
 14 15  2  0
 15 16  1  0
 16 17  2  0
 17 18  1  0
 18 19  2  0
 19 20  1  0
  8 21  1  0
 21  3  2  0
 19 10  1  0
 17 12  1  0
A    1
 C1 
A    2
 O1 
A    3
 C2 
A    4
 C3 
A    5
 C4 
A    6
 C5 
A    7
 O2 
A    8
 N1 
A    9
 C6 
A   10
 C7 
A   11
 N2 
A   12
 C8 
A   13
 C9 
A   14
 C10
A   15
 C11
A   16
 C12
A   17
 C13
A   18
 N3 
A   19
 C14
A   20
 C15
A   21
 N4 
M  END
>  <ref_pdb>  (1077) 
Ax0310a

>  <ref_mols>  (1077) 
Ax0446a,Ax1080a,Ax0812a,Ax0719a,Ax1140a,Ax0528a,Ax0310a

>  <original SMILES>  (1077) 
COc1ccc(=O)n(Cc2nc3ccccc3nc2C)n1

>  <rationale>  (1077) 
info info set:screening_whole;hbond:S87+G127; hydroph_interaction:Y89+Y90+V124; 

>  <experiment>  (1077) 
screening_whole

>  <cluster_label>  (1077) 
3

>  <cluster_rank>  (1077) 
734

>  <N_interactions>  (1077) 
5

>  <∆∆G>  (1077) 
-4.442798

>  <comRMSD>  (1077) 
0.583084

>  <ROCS_TanimotoCombo>  (1077) 
0.455

>  <ROCS_ShapeTanimoto>  (1077) 
0.267

>  <ROCS_ColorTanimoto>  (1077) 
0.188

$$$$
EN300_102647
     RDKit          3D

 10 10  0  0  0  0  0  0  0  0999 V2000
   32.2738   12.9906    6.4917 C   0  0  0  0  0  0  0  0  0  0  0  0
   32.2526   11.4910    6.6461 C   0  0  0  0  0  0  0  0  0  0  0  0
   33.1707   10.8205    5.9277 N   0  0  0  0  0  0  0  0  0  0  0  0
   33.1681    9.5022    6.0535 C   0  0  0  0  0  0  0  0  0  0  0  0
   34.1045    8.8382    5.3143 O   0  0  0  0  0  0  0  0  0  0  0  0
   32.3534    8.7649    6.8252 N   0  0  0  0  0  0  0  0  0  0  0  0
   31.4641    9.4841    7.5115 C   0  0  0  0  0  0  0  0  0  0  0  0
   30.6274    8.7485    8.3034 O   0  0  0  0  0  0  0  0  0  0  0  0
   31.3380   10.8742    7.4782 C   0  0  0  0  0  0  0  0  0  0  0  0
   30.3648   11.6014    8.2204 N   0  0  0  0  0  0  0  0  0  0  0  0
  1  2  1  0
  2  3  2  0
  3  4  1  0
  4  5  1  0
  4  6  2  0
  6  7  1  0
  7  8  1  0
  7  9  2  0
  9 10  1  0
  9  2  1  0
A    1
 C1 
A    2
 C2 
A    3
 N1 
A    4
 C3 
A    5
 O1 
A    6
 N2 
A    7
 C4 
A    8
 O2 
A    9
 C5 
A   10
 N3 
M  END
>  <ref_pdb>  (1078) 
Ax0310a

>  <ref_mols>  (1078) 
Ax0446a,Ax1080a,Ax0812a,Ax0719a,Ax1140a,Ax0528a,Ax0310a

>  <original SMILES>  (1078) 
Cc1nc(O)nc(O)c1N

>  <rationale>  (1078) 
info info set:bb_densepocket2;hbond:S105+S125+G127; 

>  <experiment>  (1078) 
bb_densepocket2

>  <cluster_label>  (1078) 
3

>  <cluster_rank>  (1078) 
735

>  <N_interactions>  (1078) 
3

>  <∆∆G>  (1078) 
-3.312801

>  <comRMSD>  (1078) 
0.21265

>  <ROCS_TanimotoCombo>  (1078) 
0.616

>  <ROCS_ShapeTanimoto>  (1078) 
0.214

>  <ROCS_ColorTanimoto>  (1078) 
0.402

$$$$
EN300_801224
     RDKit          3D

 17 18  0  0  0  0  0  0  0  0999 V2000
   29.7808    6.9656    9.2024 C   0  0  0  0  0  0  0  0  0  0  0  0
   29.7349    8.3523    9.0318 C   0  0  0  0  0  0  0  0  0  0  0  0
   28.9523    8.7052    8.0224 C   0  0  0  0  0  0  0  0  0  0  0  0
   29.1517    8.7341   10.1795 C   0  0  0  0  0  0  0  0  0  0  0  0
   31.0555    8.9172    8.8195 C   0  0  0  0  0  0  0  0  0  0  0  0
   31.5637    9.7326    7.6629 C   0  0  0  0  0  0  0  0  0  0  0  0
   32.4446    9.0773    6.8489 N   0  0  0  0  0  0  0  0  0  0  0  0
   32.9792    9.7433    5.8082 C   0  0  0  0  0  0  0  0  0  0  0  0
   33.8797    9.1311    4.9530 C   0  0  0  0  0  0  0  0  0  0  0  0
   34.4371    9.7603    3.8645 C   0  0  0  0  0  0  0  0  0  0  0  0
   35.6315    8.7916    2.7651 Br  0  0  0  0  0  0  0  0  0  0  0  0
   34.1196   11.0731    3.5894 C   0  0  0  0  0  0  0  0  0  0  0  0
   33.2328   11.7321    4.4313 C   0  0  0  0  0  0  0  0  0  0  0  0
   32.6603   11.0708    5.5354 C   0  0  0  0  0  0  0  0  0  0  0  0
   31.7600   11.7177    6.3807 C   0  0  0  0  0  0  0  0  0  0  0  0
   31.1841   11.0745    7.4670 C   0  0  0  0  0  0  0  0  0  0  0  0
   30.3070   11.7778    8.2614 O   0  0  0  0  0  0  0  0  0  0  0  0
  1  2  1  0
  2  3  1  0
  2  4  1  0
  2  5  1  0
  5  6  1  0
  6  7  2  0
  7  8  1  0
  8  9  2  0
  9 10  1  0
 10 11  1  0
 10 12  2  0
 12 13  1  0
 13 14  2  0
 14 15  1  0
 15 16  2  0
 16 17  1  0
 16  6  1  0
 14  8  1  0
A    1
 C1 
A    2
 C2 
A    3
 C3 
A    4
 C4 
A    5
 C5 
A    6
 C6 
A    7
 N1 
A    8
 C7 
A    9
 C8 
A   10
 C9 
A   11
BR1 
A   12
 C10
A   13
 C11
A   14
 C12
A   15
 C13
A   16
 C14
A   17
 O1 
M  END
>  <ref_pdb>  (1079) 
Ax0310a

>  <ref_mols>  (1079) 
Ax0446a,Ax1080a,Ax0812a,Ax0719a,Ax1140a,Ax0528a,Ax0310a

>  <original SMILES>  (1079) 
CC(C)(C)Cc1nc2cc(Br)ccc2cc1O

>  <rationale>  (1079) 
info info set:bb_densepocket2;hbond:S125; hydroph_interaction:P107+V124+D109; 

>  <experiment>  (1079) 
bb_densepocket2

>  <cluster_label>  (1079) 
3

>  <cluster_rank>  (1079) 
736

>  <N_interactions>  (1079) 
5

>  <∆∆G>  (1079) 
-1.048795

>  <comRMSD>  (1079) 
0.492888

>  <ROCS_TanimotoCombo>  (1079) 
0.608

>  <ROCS_ShapeTanimoto>  (1079) 
0.239

>  <ROCS_ColorTanimoto>  (1079) 
0.369

$$$$
EN300_766959
     RDKit          3D

 16 17  0  0  0  0  0  0  0  0999 V2000
   29.1394    8.7349    8.1043 C   0  0  0  0  0  0  0  0  0  0  0  0
   30.2124    9.0417    8.8663 C   0  0  0  0  0  0  0  0  0  0  0  0
   29.5607    8.6380   10.0934 C   0  0  0  0  0  0  0  0  0  0  0  0
   31.2344    8.0829    8.5261 C   0  0  0  0  0  0  0  0  0  0  0  0
   30.7055   10.4245    8.3300 C   0  0  0  0  0  0  0  0  0  0  0  0
   30.1941   11.4972    8.6127 O   0  0  0  0  0  0  0  0  0  0  0  0
   31.7672   10.6460    7.4343 N   0  0  0  0  0  0  0  0  0  0  0  0
   31.9353   11.8828    6.7438 C   0  0  0  0  0  0  0  0  0  0  0  0
   32.8508   11.7334    5.7038 C   0  0  0  0  0  0  0  0  0  0  0  0
   33.9437   12.4520    5.9607 F   0  0  0  0  0  0  0  0  0  0  0  0
   32.3997   12.3105    4.5834 F   0  0  0  0  0  0  0  0  0  0  0  0
   33.1870   10.4095    5.4540 C   0  0  0  0  0  0  0  0  0  0  0  0
   34.5932   10.0587    5.5019 C   0  0  0  0  0  0  0  0  0  0  0  0
   35.0777    9.9321    4.2750 N   0  0  0  0  0  0  0  0  0  0  0  0
   33.6903    9.8723    4.0203 C   0  0  0  0  0  0  0  0  0  0  0  0
   32.3221    9.6290    6.4943 C   0  0  0  0  0  0  0  0  0  0  0  0
  1  2  1  0
  2  3  1  0
  2  4  1  0
  2  5  1  0
  5  6  2  0
  5  7  1  0
  7  8  1  0
  8  9  1  0
  9 10  1  0
  9 11  1  0
  9 12  1  0
 12 13  1  0
 13 14  1  0
 14 15  1  0
 12 16  1  0
 16  7  1  0
 15 12  1  0
A    1
 C1 
A    2
 C2 
A    3
 C3 
A    4
 C4 
A    5
 C5 
A    6
 O1 
A    7
 N1 
A    8
 C6 
A    9
 C7 
A   10
 F1 
A   11
 F2 
A   12
 C8 
A   13
 C9 
A   14
 N2 
A   15
 C10
A   16
 C11
M  END
>  <ref_pdb>  (1080) 
Ax0310a

>  <ref_mols>  (1080) 
Ax0446a,Ax1080a,Ax0812a,Ax0719a,Ax1140a,Ax0528a,Ax0310a

>  <original SMILES>  (1080) 
CC(C)(C)C(=O)N1CC(F)(F)C2(CNC2)C1

>  <rationale>  (1080) 
info info set:bb_densepocket2;hydroph_interaction:P107+V124; 

>  <experiment>  (1080) 
bb_densepocket2

>  <cluster_label>  (1080) 
3

>  <cluster_rank>  (1080) 
737

>  <N_interactions>  (1080) 
2

>  <∆∆G>  (1080) 
-0.316896

>  <comRMSD>  (1080) 
0.976333

>  <ROCS_TanimotoCombo>  (1080) 
0.615

>  <ROCS_ShapeTanimoto>  (1080) 
0.239

>  <ROCS_ColorTanimoto>  (1080) 
0.376

$$$$
Z31266433
     RDKit          3D

 25 28  0  0  0  0  0  0  0  0999 V2000
   32.0449   14.3914    9.2024 O   0  0  0  0  0  0  0  0  0  0  0  0
   30.9074   14.7757    9.4992 N   0  0  0  0  0  4  0  0  0  0  0  0
   30.7010   15.7858   10.1831 O   0  0  0  0  0  1  0  0  0  0  0  0
   29.9301   14.3998    8.6473 C   0  0  0  0  0  0  0  0  0  0  0  0
   28.5563   14.9698    8.8435 C   0  0  0  0  0  0  0  0  0  0  0  0
   27.5474   14.5117    7.8378 C   0  0  0  0  0  0  0  0  0  0  0  0
   27.9242   13.5133    6.7370 C   0  0  0  0  0  0  0  0  0  0  0  0
   27.0026   13.0948    5.8607 F   0  0  0  0  0  0  0  0  0  0  0  0
   29.2715   13.0759    6.6963 C   0  0  0  0  0  0  0  0  0  0  0  0
   30.2003   13.5275    7.6181 C   0  0  0  0  0  0  0  0  0  0  0  0
   31.4397   13.0295    7.3951 O   0  0  0  0  0  0  0  0  0  0  0  0
   31.6258   11.6851    7.2571 C   0  0  0  0  0  0  0  0  0  0  0  0
   30.7647   10.7885    7.8586 N   0  0  0  0  0  0  0  0  0  0  0  0
   31.0338    9.4953    7.6806 C   0  0  0  0  0  0  0  0  0  0  0  0
   32.0376    8.9811    6.9738 N   0  0  0  0  0  0  0  0  0  0  0  0
   32.8362    9.8959    6.4016 C   0  0  0  0  0  0  0  0  0  0  0  0
   34.1559    9.3858    5.4530 S   0  0  0  0  0  0  0  0  0  0  0  0
   34.7139   10.9687    5.1114 C   0  0  0  0  0  0  0  0  0  0  0  0
   33.8143   12.0105    5.7455 C   0  0  0  0  0  0  0  0  0  0  0  0
   32.7081   11.2635    6.5022 C   0  0  0  0  0  0  0  0  0  0  0  0
   33.9804   13.5084    5.6559 C   0  0  0  0  0  0  0  0  0  0  0  0
   34.4678   14.0099    4.2839 C   0  0  0  0  0  0  0  0  0  0  0  0
   35.7283   13.5608    3.8882 C   0  0  0  0  0  0  0  0  0  0  0  0
   35.8248   12.3101    3.2879 C   0  0  0  0  0  0  0  0  0  0  0  0
   35.9506   11.1645    4.2780 C   0  0  0  0  0  0  0  0  0  0  0  0
  1  2  2  0
  2  3  1  0
  2  4  1  0
  4  5  2  0
  5  6  1  0
  6  7  2  0
  7  8  1  0
  7  9  1  0
  9 10  2  0
 10 11  1  0
 11 12  1  0
 12 13  2  0
 13 14  1  0
 14 15  2  0
 15 16  1  0
 16 17  1  0
 17 18  1  0
 18 19  2  0
 19 20  1  0
 19 21  1  0
 21 22  1  0
 22 23  1  0
 23 24  1  0
 24 25  1  0
 10  4  1  0
 20 12  1  0
 20 16  2  0
 25 18  1  0
M  CHG  2   2   1   3  -1
A    1
 O1 
A    2
 N1 
A    3
 O2 
A    4
 C1 
A    5
 C2 
A    6
 C3 
A    7
 C4 
A    8
 F1 
A    9
 C5 
A   10
 C6 
A   11
 O3 
A   12
 C7 
A   13
 N2 
A   14
 C8 
A   15
 N3 
A   16
 C9 
A   17
 S1 
A   18
 C10
A   19
 C11
A   20
 C12
A   21
 C13
A   22
 C14
A   23
 C15
A   24
 C16
A   25
 C17
M  END
>  <ref_pdb>  (1081) 
Ax0310a

>  <ref_mols>  (1081) 
Ax0446a,Ax1080a,Ax0812a,Ax0719a,Ax1140a,Ax0528a,Ax0310a

>  <original SMILES>  (1081) 
O=[N+]([O-])c1ccc(F)cc1Oc1ncnc2sc3c(c12)CCCCC3

>  <rationale>  (1081) 
info info set:screening_whole;hydroph_interaction:P107+Y89+Y90; 

>  <experiment>  (1081) 
screening_whole

>  <cluster_label>  (1081) 
3

>  <cluster_rank>  (1081) 
738

>  <N_interactions>  (1081) 
3

>  <∆∆G>  (1081) 
-5.540869

>  <comRMSD>  (1081) 
0.555794

>  <ROCS_TanimotoCombo>  (1081) 
0.456

>  <ROCS_ShapeTanimoto>  (1081) 
0.256

>  <ROCS_ColorTanimoto>  (1081) 
0.2

$$$$
EN300_31156
     RDKit          3D

 17 18  0  0  0  0  0  0  0  0999 V2000
   35.4570    9.5769    3.9139 C   0  0  0  0  0  0  0  0  0  0  0  0
   34.5248    8.7216    4.7584 C   0  0  0  0  0  0  0  0  0  0  0  0
   33.7568    9.9592    5.2147 C   0  0  0  0  0  0  0  0  0  0  0  0
   32.6067    9.9131    5.9387 N   0  0  0  0  0  0  0  0  0  0  0  0
   32.1974    9.0272    6.9476 C   0  0  0  0  0  0  0  0  0  0  0  0
   32.6067    7.8205    7.2554 O   0  0  0  0  0  0  0  0  0  0  0  0
   31.2378    9.6039    7.6949 N   0  0  0  0  0  0  0  0  0  0  0  0
   31.1909   10.8672    7.3895 C   0  0  0  0  0  0  0  0  0  0  0  0
   30.4264   11.9108    8.0369 C   0  0  0  0  0  0  0  0  0  0  0  0
   30.3970   13.3806    7.6491 C   0  0  0  0  0  0  0  0  0  0  0  0
   29.4818   14.6659    8.4555 S   0  0  0  0  0  6  0  0  0  0  0  0
   28.5194   13.8499    9.5512 N   0  0  0  0  0  0  0  0  0  0  0  0
   30.4039   15.4252    9.2760 O   0  0  0  0  0  0  0  0  0  0  0  0
   28.5932   15.2754    7.5072 O   0  0  0  0  0  0  0  0  0  0  0  0
   31.2832   13.2998    6.5324 C   0  0  0  0  0  0  0  0  0  0  0  0
   32.0794   12.2471    5.8602 C   0  0  0  0  0  0  0  0  0  0  0  0
   32.0271   11.0150    6.3108 C   0  0  0  0  0  0  0  0  0  0  0  0
  1  2  1  0
  2  3  1  0
  3  4  1  0
  4  5  1  0
  5  6  2  0
  5  7  1  0
  7  8  1  0
  8  9  2  0
  9 10  1  0
 10 11  1  0
 11 12  1  0
 11 13  2  0
 11 14  2  0
 10 15  2  0
 15 16  1  0
 16 17  2  0
 17  4  1  0
 17  8  1  0
A    1
 C1 
A    2
 C2 
A    3
 C3 
A    4
 N1 
A    5
 C4 
A    6
 O1 
A    7
 N2 
A    8
 C5 
A    9
 C6 
A   10
 C7 
A   11
 S1 
A   12
 N3 
A   13
 O2 
A   14
 O3 
A   15
 C8 
A   16
 C9 
A   17
 C10
M  END
>  <ref_pdb>  (1082) 
Ax0310a

>  <ref_mols>  (1082) 
Ax0446a,Ax1080a,Ax0812a,Ax0719a,Ax1140a,Ax0528a,Ax0310a

>  <original SMILES>  (1082) 
CCCn1c(=O)[nH]c2cc(S(N)(=O)=O)ccc21

>  <rationale>  (1082) 
info info set:sulfonimide_whole;hbond:S87+S105+S125; hydroph_interaction:P107; 

>  <experiment>  (1082) 
sulfonimide_whole

>  <cluster_label>  (1082) 
3

>  <cluster_rank>  (1082) 
739

>  <N_interactions>  (1082) 
4

>  <∆∆G>  (1082) 
-1.917012

>  <comRMSD>  (1082) 
0.6295

>  <ROCS_TanimotoCombo>  (1082) 
0.341

>  <ROCS_ShapeTanimoto>  (1082) 
0.201

>  <ROCS_ColorTanimoto>  (1082) 
0.14

$$$$
Z1255379726
     RDKit          3D

 13 13  0  0  0  0  0  0  0  0999 V2000
   35.3592   10.4800    4.8823 C   0  0  0  0  0  0  0  0  0  0  0  0
   34.1139   11.0992    4.7930 O   0  0  0  0  0  0  0  0  0  0  0  0
   33.2095   10.7186    5.7539 C   0  0  0  0  0  0  0  0  0  0  0  0
   32.8321    9.3846    6.3055 C   0  0  0  0  0  0  0  0  0  0  0  0
   31.7746    9.2321    7.3558 C   0  0  0  0  0  0  0  0  0  0  0  0
   30.9325   10.4008    8.0186 C   0  0  0  0  0  0  0  0  0  0  0  0
   31.3729   11.6179    7.4285 C   0  0  0  0  0  0  0  0  0  0  0  0
   30.6403   12.8445    7.9287 C   0  0  0  0  0  0  0  0  0  0  0  0
   31.9167   13.3814    8.7056 C   0  0  0  0  0  0  0  0  0  0  0  0
   33.2313   12.7942    8.7791 O   0  0  0  0  0  0  0  0  0  0  0  0
   31.7912   14.4120    9.3636 O   0  0  0  0  0  0  0  0  0  0  0  0
   32.3726   11.8084    6.4363 C   0  0  0  0  0  0  0  0  0  0  0  0
   32.6215   13.0569    6.0326 F   0  0  0  0  0  0  0  0  0  0  0  0
  1  2  1  0
  2  3  1  0
  3  4  2  0
  4  5  1  0
  5  6  2  0
  6  7  1  0
  7  8  1  0
  8  9  1  0
  9 10  2  0
  9 11  1  0
  7 12  2  0
 12 13  1  0
 12  3  1  0
A    1
 C1 
A    2
 O1 
A    3
 C2 
A    4
 C3 
A    5
 C4 
A    6
 C5 
A    7
 C6 
A    8
 C7 
A    9
 C8 
A   10
 O2 
A   11
 O3 
A   12
 C9 
A   13
 F1 
M  END
>  <ref_pdb>  (1083) 
Ax0310a

>  <ref_mols>  (1083) 
Ax0446a,Ax1080a,Ax0812a,Ax0719a,Ax1140a,Ax0528a,Ax0310a

>  <original SMILES>  (1083) 
COc1cccc(CC(=O)O)c1F

>  <rationale>  (1083) 
info info set:3d;hbond:S87+G127; 

>  <experiment>  (1083) 
3d

>  <cluster_label>  (1083) 
3

>  <cluster_rank>  (1083) 
740

>  <N_interactions>  (1083) 
3

>  <∆∆G>  (1083) 
-4.232018

>  <comRMSD>  (1083) 
0.80623

>  <ROCS_TanimotoCombo>  (1083) 
0.308

>  <ROCS_ShapeTanimoto>  (1083) 
0.185

>  <ROCS_ColorTanimoto>  (1083) 
0.123

$$$$
EN300_26613948
     RDKit          3D

 23 26  0  0  0  0  0  0  0  0999 V2000
   34.6774    9.2040    5.1234 C   0  0  0  0  0  0  0  0  0  0  0  0
   33.5769    9.9209    5.8265 C   0  0  0  0  0  0  0  0  0  0  0  0
   32.7090    9.2285    6.4693 N   0  0  0  0  0  0  0  0  0  0  0  0
   31.8662   10.1977    6.9472 N   0  0  0  0  0  0  0  0  0  0  0  0
   32.1564   11.4568    6.6258 C   0  0  0  0  0  0  0  0  0  0  0  0
   31.3791   12.5159    6.9869 N   0  0  0  0  0  0  0  0  0  0  0  0
   30.2762   12.2465    7.6424 C   0  0  0  0  0  0  0  0  0  0  0  0
   29.3815   13.2625    7.9442 N   0  0  0  0  0  0  0  0  0  0  0  0
   29.4408   13.7991    9.3029 C   0  0  0  0  0  0  0  0  0  0  0  0
   29.9287   15.2128    9.3629 C   0  0  0  0  0  0  0  0  0  0  0  0
   28.7667   15.9089    8.6017 C   0  0  0  0  0  0  0  0  0  0  0  0
   28.7314   15.1243    7.3039 C   0  0  0  0  0  0  0  0  0  0  0  0
   27.6207   14.3326    7.0818 C   0  0  0  0  0  0  0  0  0  0  0  0
   28.0286   13.0900    7.4089 C   0  0  0  0  0  0  0  0  0  0  0  0
   29.9668   10.8460    8.0499 C   0  0  0  0  0  0  0  0  0  0  0  0
   28.9045   10.4276    8.7743 C   0  0  0  0  0  0  0  0  0  0  0  0
   28.8344    9.0770    9.0393 C   0  0  0  0  0  0  0  0  0  0  0  0
   29.7057    8.1812    8.6182 C   0  0  0  0  0  0  0  0  0  0  0  0
   30.7372    8.5790    7.9183 C   0  0  0  0  0  0  0  0  0  0  0  0
   30.8352    9.8685    7.6591 C   0  0  0  0  0  0  0  0  0  0  0  0
   33.3069   11.3231    5.9056 C   0  0  0  0  0  0  0  0  0  0  0  0
   34.0758   12.5215    5.3176 C   0  0  0  0  0  0  0  0  0  0  0  0
   33.9143   13.6771    5.7076 O   0  0  0  0  0  0  0  0  0  0  0  0
  1  2  1  0
  2  3  2  0
  3  4  1  0
  4  5  1  0
  5  6  1  0
  6  7  2  0
  7  8  1  0
  8  9  1  0
  9 10  1  0
 10 11  1  0
 11 12  1  0
 12 13  1  0
 13 14  1  0
  7 15  1  0
 15 16  2  0
 16 17  1  0
 17 18  2  0
 18 19  1  0
 19 20  2  0
  5 21  2  0
 21 22  1  0
 22 23  2  0
 21  2  1  0
 20  4  1  0
 14  8  1  0
 20 15  1  0
A    1
 C1 
A    2
 C2 
A    3
 N1 
A    4
 N2 
A    5
 C3 
A    6
 N3 
A    7
 C4 
A    8
 N4 
A    9
 C5 
A   10
 C6 
A   11
 C7 
A   12
 C8 
A   13
 C9 
A   14
 C10
A   15
 C11
A   16
 C12
A   17
 C13
A   18
 C14
A   19
 C15
A   20
 C16
A   21
 C17
A   22
 C18
A   23
 O1 
M  END
>  <ref_pdb>  (1084) 
Ax0310a

>  <ref_mols>  (1084) 
Ax0446a,Ax1080a,Ax0812a,Ax0719a,Ax1140a,Ax0528a,Ax0310a

>  <original SMILES>  (1084) 
Cc1nn2c(nc(N3CCCCCC3)c3ccccc32)c1C=O

>  <rationale>  (1084) 
info info set:bb_whole;hbond:S87; hydroph_interaction:Y89+Y90+V124; 

>  <experiment>  (1084) 
bb_whole

>  <cluster_label>  (1084) 
3

>  <cluster_rank>  (1084) 
741

>  <N_interactions>  (1084) 
5

>  <∆∆G>  (1084) 
-2.22859

>  <comRMSD>  (1084) 
0.957685

>  <ROCS_TanimotoCombo>  (1084) 
0.41

>  <ROCS_ShapeTanimoto>  (1084) 
0.26

>  <ROCS_ColorTanimoto>  (1084) 
0.15

$$$$
Z70983601
     RDKit          3D

 20 21  0  0  0  0  0  0  0  0999 V2000
   31.2735   15.7834   10.0748 C   0  0  0  0  0  0  0  0  0  0  0  0
   30.0577   14.9696    9.9645 N   0  0  0  0  0  0  0  0  0  0  0  0
   29.4325   14.7790   11.2841 C   0  0  0  0  0  0  0  0  0  0  0  0
   29.2444   14.8175    8.7672 C   0  0  0  0  0  0  0  0  0  0  0  0
   28.7248   15.8428    7.9321 O   0  0  0  0  0  0  0  0  0  0  0  0
   28.9598   13.4116    8.2920 C   0  0  0  0  0  0  0  0  0  0  0  0
   29.9445   12.8361    7.4985 N   0  0  0  0  0  0  0  0  0  0  0  0
   30.4295   11.5132    7.8879 C   0  0  0  0  0  0  0  0  0  0  0  0
   30.0078   10.7025    8.9136 O   0  0  0  0  0  0  0  0  0  0  0  0
   31.5288   10.8941    7.0392 C   0  0  0  0  0  0  0  0  0  0  0  0
   32.3840   11.6601    6.0843 C   0  0  0  0  0  0  0  0  0  0  0  0
   33.3535   11.0259    5.3370 C   0  0  0  0  0  0  0  0  0  0  0  0
   34.1812   11.7501    4.4027 C   0  0  0  0  0  0  0  0  0  0  0  0
   35.3172   11.2821    3.4528 C   0  0  0  0  0  0  0  0  0  0  0  0
   35.2603    9.8072    3.8451 C   0  0  0  0  0  0  0  0  0  0  0  0
   34.4802    9.0934    4.7374 C   0  0  0  0  0  0  0  0  0  0  0  0
   33.5141    9.6846    5.5002 C   0  0  0  0  0  0  0  0  0  0  0  0
   32.7048    8.9672    6.4209 C   0  0  0  0  0  0  0  0  0  0  0  0
   31.7424    9.5500    7.1619 C   0  0  0  0  0  0  0  0  0  0  0  0
   31.0135    8.7546    8.0119 O   0  0  0  0  0  0  0  0  0  0  0  0
  1  2  1  0
  2  3  1  0
  2  4  1  0
  4  5  2  0
  4  6  1  0
  6  7  1  0
  7  8  1  0
  8  9  2  0
  8 10  1  0
 10 11  2  0
 11 12  1  0
 12 13  2  0
 13 14  1  0
 14 15  2  0
 15 16  1  0
 16 17  2  0
 17 18  1  0
 18 19  2  0
 19 20  1  0
 19 10  1  0
 17 12  1  0
A    1
 C1 
A    2
 N1 
A    3
 C2 
A    4
 C3 
A    5
 O1 
A    6
 C4 
A    7
 N2 
A    8
 C5 
A    9
 O2 
A   10
 C6 
A   11
 C7 
A   12
 C8 
A   13
 C9 
A   14
 C10
A   15
 C11
A   16
 C12
A   17
 C13
A   18
 C14
A   19
 C15
A   20
 O3 
M  END
>  <ref_pdb>  (1085) 
Ax0310a

>  <ref_mols>  (1085) 
Ax0446a,Ax1080a,Ax0812a,Ax0719a,Ax1140a,Ax0528a,Ax0310a

>  <original SMILES>  (1085) 
CN(C)C(=O)CNC(=O)c1cc2ccccc2cc1O

>  <rationale>  (1085) 
info info set:screening_pocket;hbond:S87+Y90; hydroph_interaction:P107; 

>  <experiment>  (1085) 
screening_pocket

>  <cluster_label>  (1085) 
3

>  <cluster_rank>  (1085) 
742

>  <N_interactions>  (1085) 
4

>  <∆∆G>  (1085) 
-9.962122

>  <comRMSD>  (1085) 
0.711578

>  <ROCS_TanimotoCombo>  (1085) 
0.624

>  <ROCS_ShapeTanimoto>  (1085) 
0.275

>  <ROCS_ColorTanimoto>  (1085) 
0.349

$$$$
EN300_66704
     RDKit          3D

 18 18  0  0  0  0  0  0  0  0999 V2000
   30.4188   12.7202    7.9093 N   0  0  0  0  0  0  0  0  0  0  0  0
   30.8205   11.3179    7.9937 C   0  0  0  0  0  0  0  0  0  0  0  0
   30.3072   10.5622    8.7849 O   0  0  0  0  0  0  0  0  0  0  0  0
   31.8780   10.7828    7.0563 C   0  0  0  0  0  0  0  0  0  0  0  0
   32.8224   11.6132    6.1964 C   0  0  0  0  0  0  0  0  0  0  0  0
   32.4111   13.0009    6.5695 C   0  0  0  0  0  0  0  0  0  0  0  0
   31.1445   13.2888    6.1969 F   0  0  0  0  0  0  0  0  0  0  0  0
   33.2028   13.9123    5.9369 F   0  0  0  0  0  0  0  0  0  0  0  0
   32.5615   13.2600    7.9028 F   0  0  0  0  0  0  0  0  0  0  0  0
   33.7580   11.0885    5.3411 C   0  0  0  0  0  0  0  0  0  0  0  0
   33.7770    9.5540    5.3259 C   0  0  0  0  0  0  0  0  0  0  0  0
   34.7897    8.9668    4.3592 C   0  0  0  0  0  0  0  0  0  0  0  0
   34.1960    8.4986    3.2231 F   0  0  0  0  0  0  0  0  0  0  0  0
   35.6642    9.9135    3.9160 F   0  0  0  0  0  0  0  0  0  0  0  0
   35.5605    7.9452    4.8082 F   0  0  0  0  0  0  0  0  0  0  0  0
   32.9293    8.8210    6.1234 N   0  0  0  0  0  0  0  0  0  0  0  0
   32.0198    9.4045    6.9507 C   0  0  0  0  0  0  0  0  0  0  0  0
   31.1963    8.5617    7.7136 N   0  0  0  0  0  0  0  0  0  0  0  0
  1  2  1  0
  2  3  2  0
  2  4  1  0
  4  5  2  0
  5  6  1  0
  6  7  1  0
  6  8  1  0
  6  9  1  0
  5 10  1  0
 10 11  2  0
 11 12  1  0
 12 13  1  0
 12 14  1  0
 12 15  1  0
 11 16  1  0
 16 17  2  0
 17 18  1  0
 17  4  1  0
A    1
 N1 
A    2
 C1 
A    3
 O1 
A    4
 C2 
A    5
 C3 
A    6
 C4 
A    7
 F1 
A    8
 F2 
A    9
 F3 
A   10
 C5 
A   11
 C6 
A   12
 C7 
A   13
 F4 
A   14
 F5 
A   15
 F6 
A   16
 N2 
A   17
 C8 
A   18
 N3 
M  END
>  <ref_pdb>  (1086) 
Ax0310a

>  <ref_mols>  (1086) 
Ax0446a,Ax1080a,Ax0812a,Ax0719a,Ax1140a,Ax0528a,Ax0310a

>  <original SMILES>  (1086) 
NC(=O)c1c(C(F)(F)F)cc(C(F)(F)F)nc1N

>  <rationale>  (1086) 
info info set:bb_densepocket2;hbond:S105+S125; 

>  <experiment>  (1086) 
bb_densepocket2

>  <cluster_label>  (1086) 
3

>  <cluster_rank>  (1086) 
743

>  <N_interactions>  (1086) 
2

>  <∆∆G>  (1086) 
-0.209532

>  <comRMSD>  (1086) 
0.904586

>  <ROCS_TanimotoCombo>  (1086) 
0.621

>  <ROCS_ShapeTanimoto>  (1086) 
0.259

>  <ROCS_ColorTanimoto>  (1086) 
0.362

$$$$
EN300_111144
     RDKit          3D

  9  9  0  0  0  0  0  0  0  0999 V2000
   30.3322   13.0122    8.3609 C   0  0  0  0  0  0  0  0  0  0  0  0
   30.3054   11.5678    8.3078 N   0  0  0  0  0  0  0  0  0  0  0  0
   31.2563   10.9411    7.4970 C   0  0  0  0  0  0  0  0  0  0  0  0
   32.1285   11.7060    6.5239 C   0  0  0  0  0  0  0  0  0  0  0  0
   33.1037   10.8647    5.7358 C   0  0  0  0  0  0  0  0  0  0  0  0
   33.1118    9.3252    5.9989 C   0  0  0  0  0  0  0  0  0  0  0  0
   32.2909    8.7287    6.8938 N   0  0  0  0  0  0  0  0  0  0  0  0
   31.4048    9.5396    7.6008 C   0  0  0  0  0  0  0  0  0  0  0  0
   30.5914    8.8458    8.5056 N   0  0  0  0  0  0  0  0  0  0  0  0
  1  2  1  0
  2  3  1  0
  3  4  2  0
  4  5  1  0
  5  6  2  0
  6  7  1  0
  7  8  2  0
  8  9  1  0
  8  3  1  0
A    1
 C1 
A    2
 N1 
A    3
 C2 
A    4
 C3 
A    5
 C4 
A    6
 C5 
A    7
 N2 
A    8
 C6 
A    9
 N3 
M  END
>  <ref_pdb>  (1087) 
Ax0310a

>  <ref_mols>  (1087) 
Ax0446a,Ax1080a,Ax0812a,Ax0719a,Ax1140a,Ax0528a,Ax0310a

>  <original SMILES>  (1087) 
CNc1cccnc1N

>  <rationale>  (1087) 
info info set:bb_densepocket2;hbond:S105+S125+G127; hydroph_interaction:P107; 

>  <experiment>  (1087) 
bb_densepocket2

>  <cluster_label>  (1087) 
3

>  <cluster_rank>  (1087) 
744

>  <N_interactions>  (1087) 
4

>  <∆∆G>  (1087) 
-4.392955

>  <comRMSD>  (1087) 
0.232465

>  <ROCS_TanimotoCombo>  (1087) 
0.609

>  <ROCS_ShapeTanimoto>  (1087) 
0.199

>  <ROCS_ColorTanimoto>  (1087) 
0.409

$$$$
EN300_7541564
     RDKit          3D

 13 13  0  0  0  0  0  0  0  0999 V2000
   31.3132    8.6239    8.8331 C   0  0  0  0  0  0  0  0  0  0  0  0
   31.2892    9.5911    7.7685 C   0  0  0  0  0  0  0  0  0  0  0  0
   29.8957    9.5638    8.0823 C   0  0  0  0  0  0  0  0  0  0  0  0
   31.5374    9.1604    6.6474 O   0  0  0  0  0  0  0  0  0  0  0  0
   32.7183    9.5719    6.0756 C   0  0  0  0  0  0  0  0  0  0  0  0
   32.7724   10.9271    5.8933 C   0  0  0  0  0  0  0  0  0  0  0  0
   31.6092   11.4798    6.4547 O   0  0  0  0  0  0  0  0  0  0  0  0
   31.3615   11.0176    7.7913 C   0  0  1  0  0  0  0  0  0  0  0  0
   30.2335   11.7260    8.1191 C   0  0  0  0  0  0  0  0  0  0  0  0
   30.3703   13.4824    8.2753 S   0  0  0  0  0  6  0  0  0  0  0  0
   29.2937   13.9205    9.4673 N   0  0  0  0  0  0  0  0  0  0  0  0
   29.7557   13.9894    7.0850 O   0  0  0  0  0  0  0  0  0  0  0  0
   31.6642   13.9034    8.7621 O   0  0  0  0  0  0  0  0  0  0  0  0
  1  2  1  0
  2  3  1  0
  2  4  1  0
  4  5  1  0
  5  6  1  0
  6  7  1  0
  7  8  1  0
  8  9  1  6
  9 10  1  0
 10 11  1  0
 10 12  2  0
 10 13  2  0
  8  2  1  0
A    1
 C1 
A    2
 C2 
A    3
 C3 
A    4
 O1 
A    5
 C4 
A    6
 C5 
A    7
 O2 
A    8
 C6 
A    9
 C7 
A   10
 S1 
A   11
 N1 
A   12
 O3 
A   13
 O4 
M  END
>  <ref_pdb>  (1088) 
Ax0310a

>  <ref_mols>  (1088) 
Ax0446a,Ax1080a,Ax0812a,Ax0719a,Ax1140a,Ax0528a,Ax0310a

>  <original SMILES>  (1088) 
CC1(C)OCCO[C@H]1CS(N)(=O)=O

>  <rationale>  (1088) 
info info set:sulfonimide_whole;hbond:S87+S125; hydroph_interaction:V124; 

>  <experiment>  (1088) 
sulfonimide_whole

>  <cluster_label>  (1088) 
3

>  <cluster_rank>  (1088) 
745

>  <N_interactions>  (1088) 
3

>  <∆∆G>  (1088) 
-1.048171

>  <comRMSD>  (1088) 
0.931282

>  <ROCS_TanimotoCombo>  (1088) 
0.349

>  <ROCS_ShapeTanimoto>  (1088) 
0.172

>  <ROCS_ColorTanimoto>  (1088) 
0.177

$$$$
Z31209577
     RDKit          3D

 21 23  0  0  0  0  0  0  0  0999 V2000
   35.7939   11.2952    4.3947 C   0  0  0  0  0  0  0  0  0  0  0  0
   34.5809   11.0071    5.2094 C   0  0  0  0  0  0  0  0  0  0  0  0
   34.1117    9.3839    5.5025 S   0  0  0  0  0  0  0  0  0  0  0  0
   32.7896    9.8545    6.4518 C   0  0  0  0  0  0  0  0  0  0  0  0
   31.9840    8.9422    7.0408 N   0  0  0  0  0  0  0  0  0  0  0  0
   30.9921    9.5071    7.7274 C   0  0  0  0  0  0  0  0  0  0  0  0
   30.7506   10.8145    7.8688 N   0  0  0  0  0  0  0  0  0  0  0  0
   31.5962   11.6706    7.2713 C   0  0  0  0  0  0  0  0  0  0  0  0
   31.4216   13.0269    7.3835 O   0  0  0  0  0  0  0  0  0  0  0  0
   30.1637   13.5078    7.5528 C   0  0  0  0  0  0  0  0  0  0  0  0
   29.1857   13.1360    6.6339 C   0  0  0  0  0  0  0  0  0  0  0  0
   27.9006   13.6369    6.7699 C   0  0  0  0  0  0  0  0  0  0  0  0
   27.6210   14.4993    7.8246 C   0  0  0  0  0  0  0  0  0  0  0  0
   28.5754   14.8552    8.7417 C   0  0  0  0  0  0  0  0  0  0  0  0
   29.8567   14.3575    8.6000 C   0  0  0  0  0  0  0  0  0  0  0  0
   30.8881   14.7439    9.5514 N   0  0  0  0  0  4  0  0  0  0  0  0
   32.0492   14.4567    9.2344 O   0  0  0  0  0  0  0  0  0  0  0  0
   30.6109   15.7073   10.2703 O   0  0  0  0  0  1  0  0  0  0  0  0
   32.6725   11.2231    6.5286 C   0  0  0  0  0  0  0  0  0  0  0  0
   33.7205   11.9097    5.8065 C   0  0  0  0  0  0  0  0  0  0  0  0
   33.8463   13.4031    5.7333 C   0  0  0  0  0  0  0  0  0  0  0  0
  1  2  1  0
  2  3  1  0
  3  4  1  0
  4  5  2  0
  5  6  1  0
  6  7  2  0
  7  8  1  0
  8  9  1  0
  9 10  1  0
 10 11  2  0
 11 12  1  0
 12 13  2  0
 13 14  1  0
 14 15  2  0
 15 16  1  0
 16 17  2  0
 16 18  1  0
  8 19  2  0
 19 20  1  0
 20 21  1  0
 20  2  2  0
 19  4  1  0
 15 10  1  0
M  CHG  2  16   1  18  -1
A    1
 C1 
A    2
 C2 
A    3
 S1 
A    4
 C3 
A    5
 N1 
A    6
 C4 
A    7
 N2 
A    8
 C5 
A    9
 O1 
A   10
 C6 
A   11
 C7 
A   12
 C8 
A   13
 C9 
A   14
 C10
A   15
 C11
A   16
 N3 
A   17
 O2 
A   18
 O3 
A   19
 C12
A   20
 C13
A   21
 C14
M  END
>  <ref_pdb>  (1089) 
Ax0310a

>  <ref_mols>  (1089) 
Ax0446a,Ax1080a,Ax0812a,Ax0719a,Ax1140a,Ax0528a,Ax0310a

>  <original SMILES>  (1089) 
Cc1sc2ncnc(Oc3ccccc3[N+](=O)[O-])c2c1C

>  <rationale>  (1089) 
info info set:screening_whole;hydroph_interaction:P107+Y89+Y90; 

>  <experiment>  (1089) 
screening_whole

>  <cluster_label>  (1089) 
3

>  <cluster_rank>  (1089) 
746

>  <N_interactions>  (1089) 
3

>  <∆∆G>  (1089) 
-7.614013

>  <comRMSD>  (1089) 
0.532617

>  <ROCS_TanimotoCombo>  (1089) 
0.457

>  <ROCS_ShapeTanimoto>  (1089) 
0.251

>  <ROCS_ColorTanimoto>  (1089) 
0.206

$$$$
EN300_1971914
     RDKit          3D

 20 22  0  0  0  0  0  0  0  0999 V2000
   30.3729   14.7676    8.9550 O   0  0  0  0  0  0  0  0  0  0  0  0
   31.1699   13.6946    8.5008 C   0  0  0  0  0  0  0  0  0  0  0  0
   32.4379   13.5000    8.8866 O   0  0  0  0  0  0  0  0  0  0  0  0
   30.5705   12.7131    7.5074 C   0  0  0  0  0  0  0  0  0  0  0  0
   31.5576   11.6104    7.0051 C   0  0  0  0  0  0  0  0  0  0  0  0
   31.0845   10.3145    7.5875 C   0  0  0  0  0  0  0  0  0  0  0  0
   31.9621    9.3662    7.1185 N   0  0  0  0  0  0  0  0  0  0  0  0
   32.8465   10.0400    6.3478 C   0  0  0  0  0  0  0  0  0  0  0  0
   34.0851    9.4803    5.5264 C   0  0  0  0  0  0  0  0  0  0  0  0
   34.8921   10.2297    4.8146 N   0  0  0  0  0  0  0  0  0  0  0  0
   34.6494   11.5784    4.7879 C   0  0  0  0  0  0  0  0  0  0  0  0
   33.4891   12.2193    5.5235 C   0  0  0  0  0  0  0  0  0  0  0  0
   32.6488   11.4099    6.2606 N   0  0  0  0  0  0  0  0  0  0  0  0
   29.3385   12.1638    8.1728 C   0  0  0  0  0  0  0  0  0  0  0  0
   28.6050   13.3220    8.8750 C   0  0  0  0  0  0  0  0  0  0  0  0
   28.4492   14.3873    7.9996 C   0  0  0  0  0  0  0  0  0  0  0  0
   27.1678   14.7949    8.0561 F   0  0  0  0  0  0  0  0  0  0  0  0
   29.1437   15.4500    8.4751 F   0  0  0  0  0  0  0  0  0  0  0  0
   28.7943   14.2088    6.5247 C   0  0  0  0  0  0  0  0  0  0  0  0
   29.9124   13.3972    6.2814 C   0  0  0  0  0  0  0  0  0  0  0  0
  1  2  2  0
  2  3  1  0
  2  4  1  0
  4  5  1  0
  5  6  2  0
  6  7  1  0
  7  8  2  0
  8  9  1  0
  9 10  2  0
 10 11  1  0
 11 12  2  0
 12 13  1  0
  4 14  1  0
 14 15  1  0
 15 16  1  0
 16 17  1  0
 16 18  1  0
 16 19  1  0
 19 20  1  0
 20  4  1  0
 13  5  1  0
 13  8  1  0
A    1
 O1 
A    2
 C1 
A    3
 O2 
A    4
 C2 
A    5
 C3 
A    6
 C4 
A    7
 N1 
A    8
 C5 
A    9
 C6 
A   10
 N2 
A   11
 C7 
A   12
 C8 
A   13
 N3 
A   14
 C9 
A   15
 C10
A   16
 C11
A   17
 F1 
A   18
 F2 
A   19
 C12
A   20
 C13
M  END
>  <ref_pdb>  (1090) 
Ax0310a

>  <ref_mols>  (1090) 
Ax0446a,Ax1080a,Ax0812a,Ax0719a,Ax1140a,Ax0528a,Ax0310a

>  <original SMILES>  (1090) 
O=C(O)C1(c2cnc3cnccn23)CCC(F)(F)CC1

>  <rationale>  (1090) 
info info set:bb_whole;hbond:S87+G127; hydroph_interaction:P107; 

>  <experiment>  (1090) 
bb_whole

>  <cluster_label>  (1090) 
3

>  <cluster_rank>  (1090) 
747

>  <N_interactions>  (1090) 
3

>  <∆∆G>  (1090) 
-0.193847

>  <comRMSD>  (1090) 
0.797814

>  <ROCS_TanimotoCombo>  (1090) 
0.417

>  <ROCS_ShapeTanimoto>  (1090) 
0.256

>  <ROCS_ColorTanimoto>  (1090) 
0.161

$$$$
EN300_201099
     RDKit          3D

 15 15  0  0  0  0  0  0  0  0999 V2000
   32.3548   14.0654    4.1182 C   0  0  0  0  0  0  0  0  0  0  0  0
   31.8280   13.4288    5.2784 O   0  0  0  0  0  0  0  0  0  0  0  0
   32.7689   12.8466    6.0539 C   0  0  0  0  0  0  0  0  0  0  0  0
   33.9321   13.1732    6.1817 O   0  0  0  0  0  0  0  0  0  0  0  0
   32.1923   11.7663    6.7176 C   0  0  0  0  0  0  0  0  0  0  0  0
   32.6906   10.4703    6.4636 C   0  0  0  0  0  0  0  0  0  0  0  0
   32.1542    9.3385    7.1016 C   0  0  0  0  0  0  0  0  0  0  0  0
   31.1099    9.4880    8.0098 C   0  0  0  0  0  0  0  0  0  0  0  0
   30.4091    8.1937    8.8376 Cl  0  0  0  0  0  0  0  0  0  0  0  0
   30.6768   10.7570    8.2005 C   0  0  0  0  0  0  0  0  0  0  0  0
   31.1282   11.9238    7.6264 C   0  0  0  0  0  0  0  0  0  0  0  0
   30.4415   13.4696    7.9799 S   0  0  0  0  0  6  0  0  0  0  0  0
   29.0910   13.2608    8.9285 N   0  0  0  0  0  0  0  0  0  0  0  0
   29.7710   13.8894    6.6939 O   0  0  0  0  0  0  0  0  0  0  0  0
   31.3659   14.2379    8.7844 O   0  0  0  0  0  0  0  0  0  0  0  0
  1  2  1  0
  2  3  1  0
  3  4  2  0
  3  5  1  0
  5  6  2  0
  6  7  1  0
  7  8  2  0
  8  9  1  0
  8 10  1  0
 10 11  2  0
 11 12  1  0
 12 13  1  0
 12 14  2  0
 12 15  2  0
 11  5  1  0
A    1
 C1 
A    2
 O1 
A    3
 C2 
A    4
 O2 
A    5
 C3 
A    6
 C4 
A    7
 C5 
A    8
 C6 
A    9
CL1 
A   10
 C7 
A   11
 C8 
A   12
 S1 
A   13
 N1 
A   14
 O3 
A   15
 O4 
M  END
>  <ref_pdb>  (1091) 
Ax0310a

>  <ref_mols>  (1091) 
Ax0446a,Ax1080a,Ax0812a,Ax0719a,Ax1140a,Ax0528a,Ax0310a

>  <original SMILES>  (1091) 
COC(=O)c1ccc(Cl)cc1S(N)(=O)=O

>  <rationale>  (1091) 
info info set:sulfonimide_whole;hbond:S87+S125; 

>  <experiment>  (1091) 
sulfonimide_whole

>  <cluster_label>  (1091) 
3

>  <cluster_rank>  (1091) 
748

>  <N_interactions>  (1091) 
2

>  <∆∆G>  (1091) 
-6.640432

>  <comRMSD>  (1091) 
0.553842

>  <ROCS_TanimotoCombo>  (1091) 
0.335

>  <ROCS_ShapeTanimoto>  (1091) 
0.191

>  <ROCS_ColorTanimoto>  (1091) 
0.143

$$$$
EN300_2002208
     RDKit          3D

 15 15  0  0  0  0  0  0  0  0999 V2000
   33.3052    8.6510    6.2570 C   0  0  0  0  0  0  0  0  0  0  0  0
   32.3276    8.2500    6.9195 O   0  0  0  0  0  0  0  0  0  0  0  0
   32.0158    9.4625    7.0066 C   0  0  0  0  0  0  0  0  0  0  0  0
   32.8280   10.1165    6.0444 C   0  0  0  0  0  0  0  0  0  0  0  0
   32.7052   11.4289    5.9692 C   0  0  0  0  0  0  0  0  0  0  0  0
   31.7139   12.0009    6.9296 C   0  0  0  0  0  0  0  0  0  0  0  0
   31.8255   13.3627    6.6622 C   0  0  0  0  0  0  0  0  0  0  0  0
   33.2931   13.6818    7.0204 C   0  0  0  0  0  0  0  0  0  0  0  0
   33.6266   14.0160    8.7223 S   0  0  0  0  0  6  0  0  0  0  0  0
   35.1031   14.7852    8.7218 N   0  0  0  0  0  0  0  0  0  0  0  0
   33.9207   12.7689    9.2801 O   0  0  0  0  0  0  0  0  0  0  0  0
   32.6304   14.8741    9.3227 O   0  0  0  0  0  0  0  0  0  0  0  0
   30.9083   11.3880    7.8531 C   0  0  0  0  0  0  0  0  0  0  0  0
   31.0978    9.9239    7.8854 C   0  0  0  0  0  0  0  0  0  0  0  0
   30.2412    8.9040    8.9595 Cl  0  0  0  0  0  0  0  0  0  0  0  0
  1  2  1  0
  2  3  1  0
  3  4  2  0
  4  5  1  0
  5  6  2  0
  6  7  1  0
  7  8  1  0
  8  9  1  0
  9 10  1  0
  9 11  2  0
  9 12  2  0
  6 13  1  0
 13 14  2  0
 14 15  1  0
 14  3  1  0
A    1
 C1 
A    2
 O1 
A    3
 C2 
A    4
 C3 
A    5
 C4 
A    6
 C5 
A    7
 C6 
A    8
 C7 
A    9
 S1 
A   10
 N1 
A   11
 O2 
A   12
 O3 
A   13
 C8 
A   14
 C9 
A   15
CL1 
M  END
>  <ref_pdb>  (1092) 
Ax0310a

>  <ref_mols>  (1092) 
Ax0446a,Ax1080a,Ax0812a,Ax0719a,Ax1140a,Ax0528a,Ax0310a

>  <original SMILES>  (1092) 
COc1ccc(CCS(N)(=O)=O)cc1Cl

>  <rationale>  (1092) 
info info set:sulfonimide_whole;hbond:S87+G127+E85; hydroph_interaction:P107; 

>  <experiment>  (1092) 
sulfonimide_whole

>  <cluster_label>  (1092) 
3

>  <cluster_rank>  (1092) 
749

>  <N_interactions>  (1092) 
4

>  <∆∆G>  (1092) 
-2.188631

>  <comRMSD>  (1092) 
0.840588

>  <ROCS_TanimotoCombo>  (1092) 
0.343

>  <ROCS_ShapeTanimoto>  (1092) 
0.19

>  <ROCS_ColorTanimoto>  (1092) 
0.154

$$$$
EN300_843388
     RDKit          3D

 12 12  0  0  0  0  0  0  0  0999 V2000
   29.2766   10.3408    8.7753 C   0  0  0  0  0  0  0  0  0  0  0  0
   30.1163    9.1547    8.4379 C   0  0  0  0  0  0  0  0  0  0  0  0
   29.1100    8.0714    8.3186 C   0  0  0  0  0  0  0  0  0  0  0  0
   30.8334    8.3117    9.3963 C   0  0  0  0  0  0  0  0  0  0  0  0
   31.1755    9.6650    7.4651 C   0  0  0  0  0  0  0  0  0  0  0  0
   31.0871   11.1683    7.1851 C   0  0  0  0  0  0  0  0  0  0  0  0
   32.0960   11.7858    6.2444 C   0  0  0  0  0  0  0  0  0  0  0  0
   33.1299   10.8923    5.6273 C   0  0  0  0  0  0  0  0  0  0  0  0
   33.0610    9.4174    6.0279 C   0  0  0  0  0  0  0  0  0  0  0  0
   34.0517    8.6271    5.4030 N   0  0  0  0  0  0  0  0  0  0  0  0
   35.0996    9.3174    4.7362 N   0  0  0  0  0  0  0  0  0  0  0  0
   32.1388    8.8693    6.9015 N   0  0  0  0  0  0  0  0  0  0  0  0
  1  2  1  0
  2  3  1  0
  2  4  1  0
  2  5  1  0
  5  6  2  0
  6  7  1  0
  7  8  2  0
  8  9  1  0
  9 10  1  0
 10 11  1  0
  9 12  2  0
 12  5  1  0
A    1
 C1 
A    2
 C2 
A    3
 C3 
A    4
 C4 
A    5
 C5 
A    6
 C6 
A    7
 C7 
A    8
 C8 
A    9
 C9 
A   10
 N1 
A   11
 N2 
A   12
 N3 
M  END
>  <ref_pdb>  (1093) 
Ax0310a

>  <ref_mols>  (1093) 
Ax0446a,Ax1080a,Ax0812a,Ax0719a,Ax1140a,Ax0528a,Ax0310a

>  <original SMILES>  (1093) 
CC(C)(C)c1cccc(NN)n1

>  <rationale>  (1093) 
info info set:bb_densepocket2;hbond:S105+G127; hydroph_interaction:P107+D109; 

>  <experiment>  (1093) 
bb_densepocket2

>  <cluster_label>  (1093) 
3

>  <cluster_rank>  (1093) 
750

>  <N_interactions>  (1093) 
4

>  <∆∆G>  (1093) 
-4.426657

>  <comRMSD>  (1093) 
0.4528

>  <ROCS_TanimotoCombo>  (1093) 
0.606

>  <ROCS_ShapeTanimoto>  (1093) 
0.209

>  <ROCS_ColorTanimoto>  (1093) 
0.397

$$$$
EN300_220323
     RDKit          3D

 11 11  0  0  0  0  0  0  0  0999 V2000
   30.2193   11.6451    8.2237 C   0  0  0  0  0  0  0  0  0  0  0  0
   31.1074   10.7631    7.7050 C   0  0  0  0  0  0  0  0  0  0  0  0
   32.2799   11.1405    7.1501 C   0  0  0  0  0  0  0  0  0  0  0  0
   32.8243   12.7254    7.0905 S   0  0  0  0  0  6  0  0  0  0  0  0
   31.4121   13.5488    7.4633 N   0  0  0  0  0  0  0  0  0  0  0  0
   33.6464   12.8417    8.2836 O   0  0  0  0  0  0  0  0  0  0  0  0
   33.2962   12.9915    5.7578 O   0  0  0  0  0  0  0  0  0  0  0  0
   32.8515    9.8946    6.7035 C   0  0  0  0  0  0  0  0  0  0  0  0
   32.0888    8.7646    7.0130 N   0  0  0  0  0  0  0  0  0  0  0  0
   31.0290    9.3861    7.6481 N   0  0  0  0  0  0  0  0  0  0  0  0
   29.9336    8.6505    8.2210 C   0  0  0  0  0  0  0  0  0  0  0  0
  1  2  1  0
  2  3  2  0
  3  4  1  0
  4  5  1  0
  4  6  2  0
  4  7  2  0
  3  8  1  0
  8  9  2  0
  9 10  1  0
 10 11  1  0
 10  2  1  0
A    1
 C1 
A    2
 C2 
A    3
 C3 
A    4
 S1 
A    5
 N1 
A    6
 O1 
A    7
 O2 
A    8
 C4 
A    9
 N2 
A   10
 N3 
A   11
 C5 
M  END
>  <ref_pdb>  (1094) 
Ax0310a

>  <ref_mols>  (1094) 
Ax0446a,Ax1080a,Ax0812a,Ax0719a,Ax1140a,Ax0528a,Ax0310a

>  <original SMILES>  (1094) 
Cc1c(S(N)(=O)=O)cnn1C

>  <rationale>  (1094) 
info info set:sulfonimide_joint;hbond:S87+G127; 

>  <experiment>  (1094) 
sulfonimide_joint

>  <cluster_label>  (1094) 
3

>  <cluster_rank>  (1094) 
751

>  <N_interactions>  (1094) 
2

>  <∆∆G>  (1094) 
-5.024576

>  <comRMSD>  (1094) 
0.715343

>  <ROCS_TanimotoCombo>  (1094) 
0.313

>  <ROCS_ShapeTanimoto>  (1094) 
0.143

>  <ROCS_ColorTanimoto>  (1094) 
0.17

$$$$
Z4430134940
     RDKit          3D

 13 14  0  0  0  0  0  0  0  0999 V2000
   34.6553    8.6866    4.9155 N   0  0  0  0  0  0  0  0  0  0  0  0
   33.6204    9.4729    5.5791 C   0  0  0  0  0  0  0  0  0  0  0  0
   33.5781   10.9456    5.2090 C   0  0  0  0  0  0  0  0  0  0  0  0
   32.4666   11.6945    5.9375 C   0  0  0  0  0  0  0  0  0  0  0  0
   31.6535   11.0088    6.8060 C   0  0  0  0  0  0  0  0  0  0  0  0
   31.8504    9.6486    7.0146 C   0  0  0  0  0  0  0  0  0  0  0  0
   31.0579    8.9515    7.8649 N   0  0  0  0  0  0  0  0  0  0  0  0
   30.3332    9.5868    8.7667 C   0  0  0  0  0  0  0  0  0  0  0  0
   30.1438   10.7787    8.8287 O   0  0  0  0  0  0  0  0  0  0  0  0
   29.7588    8.6413    9.7168 C   0  0  0  0  0  0  0  0  0  0  0  0
   30.5533    7.6668   10.1921 C   0  0  0  0  0  0  0  0  0  0  0  0
   29.6867    7.1933    9.2794 C   0  0  0  0  0  0  0  0  0  0  0  0
   32.7909    8.8881    6.4442 N   0  0  0  0  0  0  0  0  0  0  0  0
  1  2  1  0
  2  3  2  0
  3  4  1  0
  4  5  2  0
  5  6  1  0
  6  7  1  0
  7  8  1  0
  8  9  2  0
  8 10  1  0
 10 11  1  0
 11 12  1  0
  6 13  2  0
 13  2  1  0
 12 10  1  0
A    1
 N1 
A    2
 C1 
A    3
 C2 
A    4
 C3 
A    5
 C4 
A    6
 C5 
A    7
 N2 
A    8
 C6 
A    9
 O1 
A   10
 C7 
A   11
 C8 
A   12
 C9 
A   13
 N3 
M  END
>  <ref_pdb>  (1095) 
Ax0310a

>  <ref_mols>  (1095) 
Ax0446a,Ax1080a,Ax0812a,Ax0719a,Ax1140a,Ax0528a,Ax0310a

>  <original SMILES>  (1095) 
Nc1cccc(NC(=O)C2CC2)n1

>  <rationale>  (1095) 
info info set:screening_pocket;hbond:S105; hydroph_interaction:P107+V124+D109; 

>  <experiment>  (1095) 
screening_pocket

>  <cluster_label>  (1095) 
3

>  <cluster_rank>  (1095) 
752

>  <N_interactions>  (1095) 
5

>  <∆∆G>  (1095) 
-1.359576

>  <comRMSD>  (1095) 
0.713677

>  <ROCS_TanimotoCombo>  (1095) 
0.628

>  <ROCS_ShapeTanimoto>  (1095) 
0.198

>  <ROCS_ColorTanimoto>  (1095) 
0.43

$$$$
Z6143109172
     RDKit          3D

 18 19  0  0  0  0  0  0  0  0999 V2000
   31.7759   12.8735    6.2246 C   0  0  0  0  0  0  0  0  0  0  0  0
   32.0849   11.4021    6.3760 C   0  0  0  0  0  0  0  0  0  0  0  0
   33.2213   10.9231    5.5413 C   0  0  0  0  0  0  0  0  0  0  0  0
   33.5036    9.4337    5.7107 C   0  0  0  0  0  0  0  0  0  0  0  0
   34.5225    8.8127    5.0034 N   0  0  0  0  0  0  0  0  0  0  0  0
   32.8014    8.6555    6.5337 N   0  0  0  0  0  0  0  0  0  0  0  0
   31.8037    9.1992    7.2306 C   0  0  0  0  0  0  0  0  0  0  0  0
   31.4183   10.5015    7.1903 C   0  0  0  0  0  0  0  0  0  0  0  0
   30.2400   10.7387    8.0992 C   0  0  0  0  0  0  0  0  0  0  0  0
   30.0459    9.9171    9.2412 O   0  0  0  0  0  0  0  0  0  0  0  0
   29.3964   11.7651    7.6507 N   0  0  0  0  0  0  0  0  0  0  0  0
   28.1231   12.0945    8.2127 C   0  0  0  0  0  0  0  0  0  0  0  0
   28.2911   13.5863    8.1029 C   0  0  0  0  0  0  0  0  0  0  0  0
   28.3121   14.4414    9.3054 C   0  0  0  0  0  0  0  0  0  0  0  0
   28.4965   15.7010    8.8478 O   0  0  0  0  0  0  0  0  0  0  0  0
   28.5861   15.6864    7.4641 N   0  0  0  0  0  0  0  0  0  0  0  0
   28.4641   14.4357    7.0259 C   0  0  0  0  0  0  0  0  0  0  0  0
   28.5216   14.1145    5.6691 C   0  0  0  0  0  0  0  0  0  0  0  0
  1  2  1  0
  2  3  2  0
  3  4  1  0
  4  5  1  0
  4  6  2  0
  6  7  1  0
  7  8  2  0
  8  9  1  0
  9 10  2  0
  9 11  1  0
 11 12  1  0
 12 13  1  0
 13 14  2  0
 14 15  1  0
 15 16  1  0
 16 17  2  0
 17 18  1  0
  8  2  1  0
 17 13  1  0
A    1
 C1 
A    2
 C2 
A    3
 C3 
A    4
 C4 
A    5
 N1 
A    6
 N2 
A    7
 C5 
A    8
 C6 
A    9
 C7 
A   10
 O1 
A   11
 N3 
A   12
 C8 
A   13
 C9 
A   14
 C10
A   15
 O2 
A   16
 N4 
A   17
 C11
A   18
 C12
M  END
>  <ref_pdb>  (1096) 
Ax0310a

>  <ref_mols>  (1096) 
Ax0446a,Ax1080a,Ax0812a,Ax0719a,Ax1140a,Ax0528a,Ax0310a

>  <original SMILES>  (1096) 
Cc1cc(N)ncc1C(=O)NCc1conc1C

>  <rationale>  (1096) 
info info set:screening_pocket;hbond:S87+S105; hydroph_interaction:P107; 

>  <experiment>  (1096) 
screening_pocket

>  <cluster_label>  (1096) 
3

>  <cluster_rank>  (1096) 
753

>  <N_interactions>  (1096) 
3

>  <∆∆G>  (1096) 
-5.843028

>  <comRMSD>  (1096) 
0.468105

>  <ROCS_TanimotoCombo>  (1096) 
0.636

>  <ROCS_ShapeTanimoto>  (1096) 
0.238

>  <ROCS_ColorTanimoto>  (1096) 
0.398

$$$$
Z1267462752
     RDKit          3D

 19 20  0  0  0  0  0  0  0  0999 V2000
   34.8079    8.9394    4.7152 C   0  0  0  0  0  0  0  0  0  0  0  0
   34.0166   10.2366    4.8898 C   0  0  0  0  0  0  0  0  0  0  0  0
   33.0365   10.1715    5.8440 N   0  0  0  0  0  0  0  0  0  0  0  0
   32.7828    8.9986    6.4704 N   0  0  0  0  0  0  0  0  0  0  0  0
   31.7943    9.3327    7.3318 C   0  0  0  0  0  0  0  0  0  0  0  0
   31.1331    8.5621    8.2683 C   0  0  0  0  0  0  0  0  0  0  0  0
   31.4571   10.6369    7.2165 C   0  0  0  0  0  0  0  0  0  0  0  0
   30.4883   11.0414    8.0201 N   0  0  0  0  0  0  0  0  0  0  0  0
   30.2488   12.2327    8.4993 C   0  0  0  0  0  0  0  0  0  0  0  0
   31.1065   13.1586    8.9837 O   0  0  0  0  0  0  0  0  0  0  0  0
   28.7932   12.4591    8.4119 C   0  0  0  0  0  0  0  0  0  0  0  0
   28.7926   13.8274    8.2854 C   0  0  0  0  0  0  0  0  0  0  0  0
   28.3988   14.2819    6.9056 C   0  0  0  0  0  0  0  0  0  0  0  0
   28.4681   15.5467    6.9663 N   0  0  0  0  0  0  0  0  0  0  0  0
   28.8520   15.8108    8.2282 N   0  0  0  0  0  0  0  0  0  0  0  0
   29.0065   17.0650    8.5301 C   0  0  0  0  0  0  0  0  0  0  0  0
   29.0511   14.8285    9.0463 C   0  0  0  0  0  0  0  0  0  0  0  0
   32.2460   11.2002    6.2661 C   0  0  0  0  0  0  0  0  0  0  0  0
   32.3497   12.6306    5.6978 C   0  0  0  0  0  0  0  0  0  0  0  0
  1  2  1  0
  2  3  1  0
  3  4  1  0
  4  5  2  0
  5  6  1  0
  5  7  1  0
  7  8  1  0
  8  9  1  0
  9 10  2  0
  9 11  1  0
 11 12  1  0
 12 13  1  0
 13 14  2  0
 14 15  1  0
 15 16  1  0
 15 17  1  0
  7 18  2  0
 18 19  1  0
 18  3  1  0
 17 12  2  0
A    1
 C1 
A    2
 C2 
A    3
 N1 
A    4
 N2 
A    5
 C3 
A    6
 C4 
A    7
 C5 
A    8
 N3 
A    9
 C6 
A   10
 O1 
A   11
 C7 
A   12
 C8 
A   13
 C9 
A   14
 N4 
A   15
 N5 
A   16
 C10
A   17
 C11
A   18
 C12
A   19
 C13
M  END
>  <ref_pdb>  (1097) 
Ax0310a

>  <ref_mols>  (1097) 
Ax0446a,Ax1080a,Ax0812a,Ax0719a,Ax1140a,Ax0528a,Ax0310a

>  <original SMILES>  (1097) 
CCn1nc(C)c(NC(=O)Cc2cnn(C)c2)c1C

>  <rationale>  (1097) 
info info set:screening_pocket;hbond:S87; hydroph_interaction:P107; pistack:H21; 

>  <experiment>  (1097) 
screening_pocket

>  <cluster_label>  (1097) 
3

>  <cluster_rank>  (1097) 
754

>  <N_interactions>  (1097) 
3

>  <∆∆G>  (1097) 
-4.736264

>  <comRMSD>  (1097) 
0.810552

>  <ROCS_TanimotoCombo>  (1097) 
0.65

>  <ROCS_ShapeTanimoto>  (1097) 
0.249

>  <ROCS_ColorTanimoto>  (1097) 
0.401

$$$$
EN300_230238
     RDKit          3D

 11 11  0  0  0  0  0  0  0  0999 V2000
   33.8484    9.8083    4.7761 C   0  0  0  0  0  0  0  0  0  0  0  0
   32.8453   10.0878    5.8808 C   0  0  0  0  0  0  0  0  0  0  0  0
   32.3254   11.5283    6.0361 C   0  0  0  0  0  0  0  0  0  0  0  0
   31.4643   11.1688    7.2158 C   0  0  0  0  0  0  0  0  0  0  0  0
   30.6726   12.0171    7.9231 N   0  0  0  0  0  0  0  0  0  0  0  0
   31.5457    9.8641    7.5505 N   0  0  0  0  0  0  0  0  0  0  0  0
   30.8903    9.2369    8.6310 C   0  0  0  0  0  0  0  0  0  0  0  0
   29.5188    8.6045    8.6255 C   0  0  0  0  0  0  0  0  0  0  0  0
   29.3247    7.6725    9.7250 C   0  0  0  0  0  0  0  0  0  0  0  0
   28.9765   10.0591    8.6773 C   0  0  0  0  0  0  0  0  0  0  0  0
   32.3802    9.1718    6.7420 N   0  0  0  0  0  0  0  0  0  0  0  0
  1  2  1  0
  2  3  1  0
  3  4  2  0
  4  5  1  0
  4  6  1  0
  6  7  1  0
  7  8  1  0
  8  9  1  0
  8 10  1  0
  6 11  1  0
 11  2  2  0
A    1
 C1 
A    2
 C2 
A    3
 C3 
A    4
 C4 
A    5
 N1 
A    6
 N2 
A    7
 C5 
A    8
 C6 
A    9
 C7 
A   10
 C8 
A   11
 N3 
M  END
>  <ref_pdb>  (1098) 
Ax0310a

>  <ref_mols>  (1098) 
Ax0446a,Ax1080a,Ax0812a,Ax0719a,Ax1140a,Ax0528a,Ax0310a

>  <original SMILES>  (1098) 
Cc1cc(N)n(CC(C)C)n1

>  <rationale>  (1098) 
info info set:bb_densepocket2;hbond:S125+G127; hydroph_interaction:P107+V124; 

>  <experiment>  (1098) 
bb_densepocket2

>  <cluster_label>  (1098) 
3

>  <cluster_rank>  (1098) 
755

>  <N_interactions>  (1098) 
4

>  <∆∆G>  (1098) 
-5.48565

>  <comRMSD>  (1098) 
0.54027

>  <ROCS_TanimotoCombo>  (1098) 
0.614

>  <ROCS_ShapeTanimoto>  (1098) 
0.201

>  <ROCS_ColorTanimoto>  (1098) 
0.413

$$$$
EN300_126148
     RDKit          3D

 14 15  0  0  0  0  0  0  0  0999 V2000
   34.7724    8.7910    5.2500 C   0  0  0  0  0  0  0  0  0  0  0  0
   33.4945    9.3931    5.5699 C   0  0  2  0  0  0  0  0  0  0  0  0
   33.4474   10.8496    5.7433 C   0  0  0  0  0  0  0  0  0  0  0  0
   32.4213   11.1126    6.5893 C   0  0  0  0  0  0  0  0  0  0  0  0
   31.7975   12.3506    6.9501 C   0  0  0  0  0  0  0  0  0  0  0  0
   30.7392   12.3616    7.8357 C   0  0  0  0  0  0  0  0  0  0  0  0
   29.9745   13.9139    8.2749 S   0  0  0  0  0  6  0  0  0  0  0  0
   28.7197   13.5900    9.3353 N   0  0  0  0  0  0  0  0  0  0  0  0
   29.3094   14.4051    7.0991 O   0  0  0  0  0  0  0  0  0  0  0  0
   30.9431   14.7110    9.0062 O   0  0  0  0  0  0  0  0  0  0  0  0
   30.2657   11.0265    8.4002 C   0  0  0  0  0  0  0  0  0  0  0  0
   30.8580    9.8344    8.0754 C   0  0  0  0  0  0  0  0  0  0  0  0
   32.0111    9.8937    7.1083 C   0  0  0  0  0  0  0  0  0  0  0  0
   32.7376    8.8111    6.6644 O   0  0  0  0  0  0  0  0  0  0  0  0
  2  1  1  1
  2  3  1  0
  3  4  1  0
  4  5  2  0
  5  6  1  0
  6  7  1  0
  7  8  1  0
  7  9  2  0
  7 10  2  0
  6 11  2  0
 11 12  1  0
 12 13  2  0
 13 14  1  0
 14  2  1  0
 13  4  1  0
A    1
 C1 
A    2
 C2 
A    3
 C3 
A    4
 C4 
A    5
 C5 
A    6
 C6 
A    7
 S1 
A    8
 N1 
A    9
 O1 
A   10
 O2 
A   11
 C7 
A   12
 C8 
A   13
 C9 
A   14
 O3 
M  END
>  <ref_pdb>  (1099) 
Ax0310a

>  <ref_mols>  (1099) 
Ax0446a,Ax1080a,Ax0812a,Ax0719a,Ax1140a,Ax0528a,Ax0310a

>  <original SMILES>  (1099) 
C[C@@H]1Cc2cc(S(N)(=O)=O)ccc2O1

>  <rationale>  (1099) 
info info set:sulfonimide_whole;hbond:S87+S125; 

>  <experiment>  (1099) 
sulfonimide_whole

>  <cluster_label>  (1099) 
3

>  <cluster_rank>  (1099) 
756

>  <N_interactions>  (1099) 
2

>  <∆∆G>  (1099) 
-4.302977

>  <comRMSD>  (1099) 
0.778357

>  <ROCS_TanimotoCombo>  (1099) 
0.337

>  <ROCS_ShapeTanimoto>  (1099) 
0.193

>  <ROCS_ColorTanimoto>  (1099) 
0.144

$$$$
EN300_45201952
     RDKit          3D

 17 17  0  0  0  0  0  0  0  0999 V2000
   30.0905    8.9757    9.0471 C   0  0  0  0  0  0  0  0  0  0  0  0
   30.2227   10.3197    8.6873 O   0  0  0  0  0  0  0  0  0  0  0  0
   31.2309   10.5057    7.8447 C   0  0  0  0  0  0  0  0  0  0  0  0
   31.7562    9.3657    6.9953 C   0  0  0  0  0  0  0  0  0  0  0  0
   32.9189    9.7254    6.0791 C   0  0  0  0  0  0  0  0  0  0  0  0
   33.4781    8.8358    5.2852 F   0  0  0  0  0  0  0  0  0  0  0  0
   33.3605   11.0185    6.1242 C   0  0  0  0  0  0  0  0  0  0  0  0
   34.5345   11.2440    5.1661 C   0  0  0  0  0  0  0  0  0  0  0  0
   35.2210   10.3276    4.7305 O   0  0  0  0  0  0  0  0  0  0  0  0
   32.8502   12.0150    6.9264 C   0  0  0  0  0  0  0  0  0  0  0  0
   33.3944   13.2342    6.8847 F   0  0  0  0  0  0  0  0  0  0  0  0
   31.7899   11.7731    7.7914 C   0  0  0  0  0  0  0  0  0  0  0  0
   31.3115   12.8275    8.6554 N   0  0  0  0  0  0  0  0  0  0  0  0
   30.1894   13.9961    8.3851 S   0  0  0  0  0  6  0  0  0  0  0  0
   28.7290   13.7079    9.3345 C   0  0  0  0  0  0  0  0  0  0  0  0
   29.8358   13.8726    6.9934 O   0  0  0  0  0  0  0  0  0  0  0  0
   30.8081   15.1299    9.0264 O   0  0  0  0  0  0  0  0  0  0  0  0
  1  2  1  0
  2  3  1  0
  3  4  2  0
  4  5  1  0
  5  6  1  0
  5  7  2  0
  7  8  1  0
  8  9  2  0
  7 10  1  0
 10 11  1  0
 10 12  2  0
 12 13  1  0
 13 14  1  0
 14 15  1  0
 14 16  2  0
 14 17  2  0
 12  3  1  0
A    1
 C1 
A    2
 O1 
A    3
 C2 
A    4
 C3 
A    5
 C4 
A    6
 F1 
A    7
 C5 
A    8
 C6 
A    9
 O2 
A   10
 C7 
A   11
 F2 
A   12
 C8 
A   13
 N1 
A   14
 S1 
A   15
 C9 
A   16
 O3 
A   17
 O4 
M  END
>  <ref_pdb>  (1100) 
Ax0310a

>  <ref_mols>  (1100) 
Ax0446a,Ax1080a,Ax0812a,Ax0719a,Ax1140a,Ax0528a,Ax0310a

>  <original SMILES>  (1100) 
COc1cc(F)c(C=O)c(F)c1NS(C)(=O)=O

>  <rationale>  (1100) 
info info set:sulfonimide_whole;hbond:S87+G127; 

>  <experiment>  (1100) 
sulfonimide_whole

>  <cluster_label>  (1100) 
3

>  <cluster_rank>  (1100) 
757

>  <N_interactions>  (1100) 
2

>  <∆∆G>  (1100) 
-4.107582

>  <comRMSD>  (1100) 
0.903814

>  <ROCS_TanimotoCombo>  (1100) 
0.351

>  <ROCS_ShapeTanimoto>  (1100) 
0.211

>  <ROCS_ColorTanimoto>  (1100) 
0.14

$$$$
EN300_274066
     RDKit          3D

 15 16  0  0  0  0  0  0  0  0999 V2000
   29.0309   14.2593   10.2744 N   0  0  0  0  0  0  0  0  0  0  0  0
   29.7836   14.3697    8.7834 S   0  0  0  0  0  6  0  0  0  0  0  0
   31.2091   14.4557    9.0123 O   0  0  0  0  0  0  0  0  0  0  0  0
   29.0311   15.3827    8.0812 O   0  0  0  0  0  0  0  0  0  0  0  0
   29.4733   12.8426    8.0040 C   0  0  0  0  0  0  0  0  0  0  0  0
   30.5196   12.0236    7.5546 C   0  0  0  0  0  0  0  0  0  0  0  0
   30.5093   10.6677    7.8041 C   0  0  0  0  0  0  0  0  0  0  0  0
   31.4525    9.7648    7.3707 C   0  0  0  0  0  0  0  0  0  0  0  0
   32.6347   10.2275    6.5565 C   0  0  0  0  0  0  0  0  0  0  0  0
   33.6360    9.3789    6.0419 C   0  0  0  0  0  0  0  0  0  0  0  0
   34.6636    9.9453    5.3272 C   0  0  0  0  0  0  0  0  0  0  0  0
   34.7632   11.2831    5.1013 C   0  0  0  0  0  0  0  0  0  0  0  0
   33.7939   12.1307    5.5854 C   0  0  0  0  0  0  0  0  0  0  0  0
   32.7193   11.6201    6.3056 C   0  0  0  0  0  0  0  0  0  0  0  0
   31.7271   12.4974    6.7656 C   0  0  0  0  0  0  0  0  0  0  0  0
  1  2  1  0
  2  3  2  0
  2  4  2  0
  2  5  1  0
  5  6  1  0
  6  7  2  0
  7  8  1  0
  8  9  2  0
  9 10  1  0
 10 11  2  0
 11 12  1  0
 12 13  2  0
 13 14  1  0
 14 15  2  0
 15  6  1  0
 14  9  1  0
A    1
 N1 
A    2
 S1 
A    3
 O1 
A    4
 O2 
A    5
 C1 
A    6
 C2 
A    7
 C3 
A    8
 C4 
A    9
 C5 
A   10
 C6 
A   11
 C7 
A   12
 C8 
A   13
 C9 
A   14
 C10
A   15
 C11
M  END
>  <ref_pdb>  (1101) 
Ax0310a

>  <ref_mols>  (1101) 
Ax0446a,Ax1080a,Ax0812a,Ax0719a,Ax1140a,Ax0528a,Ax0310a

>  <original SMILES>  (1101) 
NS(=O)(=O)Cc1ccc2ccccc2c1

>  <rationale>  (1101) 
info info set:sulfonimide_whole;hbond:S87+S125; 

>  <experiment>  (1101) 
sulfonimide_whole

>  <cluster_label>  (1101) 
3

>  <cluster_rank>  (1101) 
758

>  <N_interactions>  (1101) 
2

>  <∆∆G>  (1101) 
-7.320958

>  <comRMSD>  (1101) 
0.819089

>  <ROCS_TanimotoCombo>  (1101) 
0.331

>  <ROCS_ShapeTanimoto>  (1101) 
0.205

>  <ROCS_ColorTanimoto>  (1101) 
0.126

$$$$
EN300_319570
     RDKit          3D

 12 12  0  0  0  0  0  0  0  0999 V2000
   34.4647    9.1806    4.5664 C   0  0  0  0  0  0  0  0  0  0  0  0
   33.4511    9.8501    5.4639 C   0  0  0  0  0  0  0  0  0  0  0  0
   33.2272   11.3783    5.2958 C   0  0  0  0  0  0  0  0  0  0  0  0
   32.1692   11.7414    6.3333 C   0  0  0  0  0  0  0  0  0  0  0  0
   31.3873   10.8755    7.4002 C   0  0  0  0  0  0  0  0  0  0  0  0
   30.4605   11.3698    8.2686 O   0  0  0  0  0  0  0  0  0  0  0  0
   31.9172    9.3787    7.2253 C   0  0  0  0  0  0  0  0  0  0  0  0
   31.4316    8.3872    8.0047 O   0  0  0  0  0  0  0  0  0  0  0  0
   30.1122    8.6989    8.3238 C   0  0  0  0  0  0  0  0  0  0  0  0
   30.2332    9.0577    9.6662 C   0  0  0  0  0  0  0  0  0  0  0  0
   29.1855    7.6241    8.5366 C   0  0  0  0  0  0  0  0  0  0  0  0
   32.9057    8.9815    6.2764 N   0  0  0  0  0  0  0  0  0  0  0  0
  1  2  1  0
  2  3  2  0
  3  4  1  0
  4  5  2  0
  5  6  1  0
  5  7  1  0
  7  8  1  0
  8  9  1  0
  9 10  1  0
  9 11  1  0
  7 12  2  0
 12  2  1  0
A    1
 C1 
A    2
 C2 
A    3
 C3 
A    4
 C4 
A    5
 C5 
A    6
 O1 
A    7
 C6 
A    8
 O2 
A    9
 C7 
A   10
 C8 
A   11
 C9 
A   12
 N1 
M  END
>  <ref_pdb>  (1102) 
Ax0310a

>  <ref_mols>  (1102) 
Ax0446a,Ax1080a,Ax0812a,Ax0719a,Ax1140a,Ax0528a,Ax0310a

>  <original SMILES>  (1102) 
Cc1ccc(O)c(OC(C)C)n1

>  <rationale>  (1102) 
info info set:bb_densepocket2;hbond:S125; hydroph_interaction:P107+D109; 

>  <experiment>  (1102) 
bb_densepocket2

>  <cluster_label>  (1102) 
3

>  <cluster_rank>  (1102) 
759

>  <N_interactions>  (1102) 
3

>  <∆∆G>  (1102) 
-2.018499

>  <comRMSD>  (1102) 
0.69968

>  <ROCS_TanimotoCombo>  (1102) 
0.627

>  <ROCS_ShapeTanimoto>  (1102) 
0.216

>  <ROCS_ColorTanimoto>  (1102) 
0.411

$$$$
Z2242852374
     RDKit          3D

 17 18  0  0  0  0  0  0  0  0999 V2000
   34.6096   14.6036    8.1229 N   0  0  0  0  0  0  0  0  0  0  0  0
   33.4838   13.7970    8.6458 C   0  0  1  0  0  0  0  0  0  0  0  0
   32.5110   14.4652    9.6014 C   0  0  0  0  0  0  0  0  0  0  0  0
   31.1686   14.1135    9.1003 C   0  0  0  0  0  0  0  0  0  0  0  0
   31.1782   13.6625    7.8630 N   0  0  0  0  0  0  0  0  0  0  0  0
   29.9873   12.7592    7.2871 S   0  0  0  0  0  6  0  0  0  0  0  0
   29.0384   12.5969    8.3541 O   0  0  0  0  0  0  0  0  0  0  0  0
   29.7129   13.2869    5.9800 O   0  0  0  0  0  0  0  0  0  0  0  0
   30.9559   11.3039    7.1397 C   0  0  0  0  0  0  0  0  0  0  0  0
   30.6609   10.1113    8.0361 C   0  0  0  0  0  0  0  0  0  0  0  0
   31.4887    8.8828    7.8804 C   0  0  0  0  0  0  0  0  0  0  0  0
   31.1575    7.9044    8.7135 F   0  0  0  0  0  0  0  0  0  0  0  0
   32.5668    8.9677    6.8016 C   0  0  0  0  0  0  0  0  0  0  0  0
   32.8215   10.0481    6.0324 C   0  0  0  0  0  0  0  0  0  0  0  0
   32.1121   11.1976    6.1348 C   0  0  0  0  0  0  0  0  0  0  0  0
   32.6304   12.4667    5.0673 Cl  0  0  0  0  0  0  0  0  0  0  0  0
   32.5621   13.3065    7.5227 C   0  0  0  0  0  0  0  0  0  0  0  0
  2  1  1  6
  2  3  1  0
  3  4  1  0
  4  5  1  0
  5  6  1  0
  6  7  2  0
  6  8  2  0
  6  9  1  0
  9 10  2  0
 10 11  1  0
 11 12  1  0
 11 13  2  0
 13 14  1  0
 14 15  2  0
 15 16  1  0
  5 17  1  0
 17  2  1  0
 15  9  1  0
A    1
 N1 
A    2
 C1 
A    3
 C2 
A    4
 C3 
A    5
 N2 
A    6
 S1 
A    7
 O1 
A    8
 O2 
A    9
 C4 
A   10
 C5 
A   11
 C6 
A   12
 F1 
A   13
 C7 
A   14
 C8 
A   15
 C9 
A   16
CL1 
A   17
 C10
M  END
>  <ref_pdb>  (1103) 
Ax0310a

>  <ref_mols>  (1103) 
Ax0446a,Ax1080a,Ax0812a,Ax0719a,Ax1140a,Ax0528a,Ax0310a

>  <original SMILES>  (1103) 
N[C@H]1CCN(S(=O)(=O)c2cc(F)ccc2Cl)C1

>  <rationale>  (1103) 
info info set:3d;hbond:S87+E85; hydroph_interaction:P107+T126+V84; 

>  <experiment>  (1103) 
3d

>  <cluster_label>  (1103) 
3

>  <cluster_rank>  (1103) 
760

>  <N_interactions>  (1103) 
5

>  <∆∆G>  (1103) 
-0.52417

>  <comRMSD>  (1103) 
0.820127

>  <ROCS_TanimotoCombo>  (1103) 
0.297

>  <ROCS_ShapeTanimoto>  (1103) 
0.204

>  <ROCS_ColorTanimoto>  (1103) 
0.094

$$$$
EN300_79584
     RDKit          3D

 13 13  0  0  0  0  0  0  0  0999 V2000
   34.1502   15.1912    9.1215 N   0  0  0  0  0  0  0  0  0  0  0  0
   34.6095   13.7815    8.3866 S   0  0  0  0  0  6  0  0  0  0  0  0
   33.6752   12.8515    8.9654 O   0  0  0  0  0  0  0  0  0  0  0  0
   34.6538   14.0063    6.9571 O   0  0  0  0  0  0  0  0  0  0  0  0
   36.2664   13.6223    9.0703 C   0  0  0  0  0  0  0  0  0  0  0  0
   36.2269   12.8283   10.3651 C   0  0  0  0  0  0  0  0  0  0  0  0
   37.4457   12.1367   10.9060 C   0  0  1  0  0  0  0  0  0  0  0  0
   38.6931   12.7453   10.5652 N   0  0  0  0  0  0  0  0  0  0  0  0
   39.4400   12.9934   11.6940 C   0  0  0  0  0  0  0  0  0  0  0  0
   40.5585   13.4613   11.6872 O   0  0  0  0  0  0  0  0  0  0  0  0
   38.7311   12.6318   12.7877 N   0  0  0  0  0  0  0  0  0  0  0  0
   37.4745   12.2807   12.4246 C   0  0  0  0  0  0  0  0  0  0  0  0
   36.5373   12.1170   13.1860 O   0  0  0  0  0  0  0  0  0  0  0  0
  1  2  1  0
  2  3  2  0
  2  4  2  0
  2  5  1  0
  5  6  1  0
  7  6  1  6
  7  8  1  0
  8  9  1  0
  9 10  2  0
  9 11  1  0
 11 12  1  0
 12 13  2  0
 12  7  1  0
A    1
 N1 
A    2
 S1 
A    3
 O1 
A    4
 O2 
A    5
 C1 
A    6
 C2 
A    7
 C3 
A    8
 N2 
A    9
 C4 
A   10
 O3 
A   11
 N3 
A   12
 C5 
A   13
 O4 
M  END
>  <ref_pdb>  (1104) 
Ax0310a

>  <ref_mols>  (1104) 
Ax0446a,Ax1080a,Ax0812a,Ax0719a,Ax1140a,Ax0528a,Ax0310a

>  <original SMILES>  (1104) 
NS(=O)(=O)CC[C@H]1NC(=O)NC1=O

>  <rationale>  (1104) 
info info set:sulfonimide_whole;hbond:S87+G127+T126; 

>  <experiment>  (1104) 
sulfonimide_whole

>  <cluster_label>  (1104) 
3

>  <cluster_rank>  (1104) 
761

>  <N_interactions>  (1104) 
3

>  <∆∆G>  (1104) 
-4.613278

>  <comRMSD>  (1104) 
0.633159

>  <ROCS_TanimotoCombo>  (1104) 
0.306

>  <ROCS_ShapeTanimoto>  (1104) 
0.155

>  <ROCS_ColorTanimoto>  (1104) 
0.151

$$$$
EN300_1719151
     RDKit          3D

 16 17  0  0  0  0  0  0  0  0999 V2000
   34.3753   12.5202    4.2320 C   0  0  0  0  0  0  0  0  0  0  0  0
   33.1703   12.2497    4.9402 O   0  0  0  0  0  0  0  0  0  0  0  0
   33.4487   12.0361    6.3313 C   0  0  2  0  0  0  0  0  0  0  0  0
   32.5920   11.0337    6.8313 C   0  0  0  0  0  0  0  0  0  0  0  0
   32.8599    9.7276    6.5508 C   0  0  0  0  0  0  0  0  0  0  0  0
   32.0369    8.7465    7.0719 C   0  0  0  0  0  0  0  0  0  0  0  0
   30.9403    8.9930    7.8573 C   0  0  0  0  0  0  0  0  0  0  0  0
   30.6545   10.2733    8.1327 C   0  0  0  0  0  0  0  0  0  0  0  0
   31.4538   11.2668    7.6338 C   0  0  0  0  0  0  0  0  0  0  0  0
   31.0095   12.5697    8.0156 C   0  0  0  0  0  0  0  0  0  0  0  0
   31.8817   13.5858    7.4843 C   0  0  0  0  0  0  0  0  0  0  0  0
   33.3310   13.3739    7.0593 C   0  0  1  0  0  0  0  0  0  0  0  0
   34.5579   13.7062    8.3415 S   0  0  0  0  0  6  0  0  0  0  0  0
   34.1268   15.1228    9.1167 N   0  0  0  0  0  0  0  0  0  0  0  0
   35.8591   13.9593    7.7697 O   0  0  0  0  0  0  0  0  0  0  0  0
   34.4181   12.7762    9.3833 O   0  0  0  0  0  0  0  0  0  0  0  0
  1  2  1  0
  3  2  1  6
  3  4  1  0
  4  5  2  0
  5  6  1  0
  6  7  2  0
  7  8  1  0
  8  9  2  0
  9 10  1  0
 10 11  1  0
 11 12  1  0
 12 13  1  1
 13 14  1  0
 13 15  2  0
 13 16  2  0
 12  3  1  0
  9  4  1  0
A    1
 C1 
A    2
 O1 
A    3
 C2 
A    4
 C3 
A    5
 C4 
A    6
 C5 
A    7
 C6 
A    8
 C7 
A    9
 C8 
A   10
 C9 
A   11
 C10
A   12
 C11
A   13
 S1 
A   14
 N1 
A   15
 O2 
A   16
 O3 
M  END
>  <ref_pdb>  (1105) 
Ax0310a

>  <ref_mols>  (1105) 
Ax0446a,Ax1080a,Ax0812a,Ax0719a,Ax1140a,Ax0528a,Ax0310a

>  <original SMILES>  (1105) 
CO[C@@H]1c2ccccc2CC[C@H]1S(N)(=O)=O

>  <rationale>  (1105) 
info info set:sulfonimide_whole;hbond:G127+E85; 

>  <experiment>  (1105) 
sulfonimide_whole

>  <cluster_label>  (1105) 
3

>  <cluster_rank>  (1105) 
762

>  <N_interactions>  (1105) 
2

>  <∆∆G>  (1105) 
-4.125294

>  <comRMSD>  (1105) 
0.555077

>  <ROCS_TanimotoCombo>  (1105) 
0.315

>  <ROCS_ShapeTanimoto>  (1105) 
0.189

>  <ROCS_ColorTanimoto>  (1105) 
0.126

$$$$
EN300_1629199
     RDKit          3D

 13 13  0  0  0  0  0  0  0  0999 V2000
   30.2583   12.0091    8.2926 C   0  0  0  0  0  0  0  0  0  0  0  0
   31.1719   11.0257    7.6571 C   0  0  0  0  0  0  0  0  0  0  0  0
   32.1463   11.3844    6.8103 C   0  0  0  0  0  0  0  0  0  0  0  0
   32.4958   12.9796    6.3939 S   0  0  0  0  0  6  0  0  0  0  0  0
   31.4497   13.4772    5.1902 N   0  0  0  0  0  0  0  0  0  0  0  0
   33.8266   12.9994    5.8393 O   0  0  0  0  0  0  0  0  0  0  0  0
   32.1571   13.6823    7.6057 O   0  0  0  0  0  0  0  0  0  0  0  0
   32.7935   10.2921    6.3545 C   0  0  0  0  0  0  0  0  0  0  0  0
   33.8411   10.4274    5.4330 C   0  0  0  0  0  0  0  0  0  0  0  0
   34.2887    8.9109    4.6509 Cl  0  0  0  0  0  0  0  0  0  0  0  0
   32.2493    9.1887    6.9380 N   0  0  0  0  0  0  0  0  0  0  0  0
   31.2577    9.7153    7.7463 N   0  0  0  0  0  0  0  0  0  0  0  0
   30.4351    8.8731    8.5845 C   0  0  0  0  0  0  0  0  0  0  0  0
  1  2  1  0
  2  3  2  0
  3  4  1  0
  4  5  1  0
  4  6  2  0
  4  7  2  0
  3  8  1  0
  8  9  1  0
  9 10  1  0
  8 11  2  0
 11 12  1  0
 12 13  1  0
 12  2  1  0
A    1
 C1 
A    2
 C2 
A    3
 C3 
A    4
 S1 
A    5
 N1 
A    6
 O1 
A    7
 O2 
A    8
 C4 
A    9
 C5 
A   10
CL1 
A   11
 N2 
A   12
 N3 
A   13
 C6 
M  END
>  <ref_pdb>  (1106) 
Ax0310a

>  <ref_mols>  (1106) 
Ax0446a,Ax1080a,Ax0812a,Ax0719a,Ax1140a,Ax0528a,Ax0310a

>  <original SMILES>  (1106) 
Cc1c(S(N)(=O)=O)c(CCl)nn1C

>  <rationale>  (1106) 
info info set:sulfonimide_joint;hbond:S87; 

>  <experiment>  (1106) 
sulfonimide_joint

>  <cluster_label>  (1106) 
3

>  <cluster_rank>  (1106) 
763

>  <N_interactions>  (1106) 
1

>  <∆∆G>  (1106) 
-6.592154

>  <comRMSD>  (1106) 
0.513447

>  <ROCS_TanimotoCombo>  (1106) 
0.319

>  <ROCS_ShapeTanimoto>  (1106) 
0.176

>  <ROCS_ColorTanimoto>  (1106) 
0.143

$$$$
EN300_194851
     RDKit          3D

 13 14  0  0  0  0  0  0  0  0999 V2000
   28.8222   13.5712    9.2998 N   0  0  0  0  0  0  0  0  0  0  0  0
   30.0719   13.8645    8.2444 S   0  0  0  0  0  6  0  0  0  0  0  0
   29.3669   14.3913    7.1016 O   0  0  0  0  0  0  0  0  0  0  0  0
   31.0441   14.6234    9.0046 O   0  0  0  0  0  0  0  0  0  0  0  0
   30.8207   12.3120    7.7645 C   0  0  0  0  0  0  0  0  0  0  0  0
   30.2047   11.1086    8.3660 C   0  0  0  0  0  0  0  0  0  0  0  0
   30.7894    9.7857    8.0119 C   0  0  0  0  0  0  0  0  0  0  0  0
   31.8568    9.7781    7.1297 C   0  0  0  0  0  0  0  0  0  0  0  0
   32.3813   10.9465    6.5926 C   0  0  0  0  0  0  0  0  0  0  0  0
   31.8942   12.2253    6.8907 C   0  0  0  0  0  0  0  0  0  0  0  0
   33.4905   10.5988    5.6946 C   0  0  0  0  0  0  0  0  0  0  0  0
   33.4964    9.1543    5.7718 C   0  0  0  0  0  0  0  0  0  0  0  0
   32.4827    8.6543    6.7067 O   0  0  0  0  0  0  0  0  0  0  0  0
  1  2  1  0
  2  3  2  0
  2  4  2  0
  2  5  1  0
  5  6  2  0
  6  7  1  0
  7  8  2  0
  8  9  1  0
  9 10  2  0
  9 11  1  0
 11 12  1  0
 12 13  1  0
 10  5  1  0
 13  8  1  0
A    1
 N1 
A    2
 S1 
A    3
 O1 
A    4
 O2 
A    5
 C1 
A    6
 C2 
A    7
 C3 
A    8
 C4 
A    9
 C5 
A   10
 C6 
A   11
 C7 
A   12
 C8 
A   13
 O3 
M  END
>  <ref_pdb>  (1107) 
Ax0310a

>  <ref_mols>  (1107) 
Ax0446a,Ax1080a,Ax0812a,Ax0719a,Ax1140a,Ax0528a,Ax0310a

>  <original SMILES>  (1107) 
NS(=O)(=O)c1ccc2c(c1)CCO2

>  <rationale>  (1107) 
info info set:sulfonimide_whole;hbond:S87+S125; 

>  <experiment>  (1107) 
sulfonimide_whole

>  <cluster_label>  (1107) 
3

>  <cluster_rank>  (1107) 
764

>  <N_interactions>  (1107) 
2

>  <∆∆G>  (1107) 
-4.937441

>  <comRMSD>  (1107) 
0.608078

>  <ROCS_TanimotoCombo>  (1107) 
0.332

>  <ROCS_ShapeTanimoto>  (1107) 
0.187

>  <ROCS_ColorTanimoto>  (1107) 
0.145

$$$$
EN300_283785
     RDKit          3D

 13 13  0  0  0  0  0  0  0  0999 V2000
   33.1568    9.0165    5.9830 C   0  0  0  0  0  0  0  0  0  0  0  0
   32.4859   10.0796    6.7208 C   0  0  0  0  0  0  0  0  0  0  0  0
   31.2066    9.9300    7.2059 C   0  0  0  0  0  0  0  0  0  0  0  0
   30.5852   10.9731    7.8772 C   0  0  0  0  0  0  0  0  0  0  0  0
   31.2716   12.1560    8.0865 C   0  0  0  0  0  0  0  0  0  0  0  0
   30.4263   13.6081    8.9760 Br  0  0  0  0  0  0  0  0  0  0  0  0
   32.5696   12.2713    7.6479 C   0  0  0  0  0  0  0  0  0  0  0  0
   33.4101   13.4560    7.8999 C   0  0  0  0  0  0  0  0  0  0  0  0
   34.1550   13.8995    6.3588 S   0  0  0  0  0  6  0  0  0  0  0  0
   35.2097   15.1015    6.8724 N   0  0  0  0  0  0  0  0  0  0  0  0
   34.9837   12.8434    5.8613 O   0  0  0  0  0  0  0  0  0  0  0  0
   33.1776   14.4956    5.5124 O   0  0  0  0  0  0  0  0  0  0  0  0
   33.1494   11.2363    6.9426 C   0  0  0  0  0  0  0  0  0  0  0  0
  1  2  1  0
  2  3  2  0
  3  4  1  0
  4  5  2  0
  5  6  1  0
  5  7  1  0
  7  8  1  0
  8  9  1  0
  9 10  1  0
  9 11  2  0
  9 12  2  0
  7 13  2  0
 13  2  1  0
A    1
 C1 
A    2
 C2 
A    3
 C3 
A    4
 C4 
A    5
 C5 
A    6
BR1 
A    7
 C6 
A    8
 C7 
A    9
 S1 
A   10
 N1 
A   11
 O1 
A   12
 O2 
A   13
 C8 
M  END
>  <ref_pdb>  (1108) 
Ax0310a

>  <ref_mols>  (1108) 
Ax0446a,Ax1080a,Ax0812a,Ax0719a,Ax1140a,Ax0528a,Ax0310a

>  <original SMILES>  (1108) 
Cc1ccc(Br)c(CS(N)(=O)=O)c1

>  <rationale>  (1108) 
info info set:sulfonimide_joint;hbond:E85; 

>  <experiment>  (1108) 
sulfonimide_joint

>  <cluster_label>  (1108) 
3

>  <cluster_rank>  (1108) 
765

>  <N_interactions>  (1108) 
1

>  <∆∆G>  (1108) 
-4.471604

>  <comRMSD>  (1108) 
0.984086

>  <ROCS_TanimotoCombo>  (1108) 
0.322

>  <ROCS_ShapeTanimoto>  (1108) 
0.163

>  <ROCS_ColorTanimoto>  (1108) 
0.159

$$$$
Z1118696998
     RDKit          3D

 20 21  0  0  0  0  0  0  0  0999 V2000
   29.0515   16.9175    8.4111 C   0  0  0  0  0  0  0  0  0  0  0  0
   28.7040   15.5356    8.2433 C   0  0  0  0  0  0  0  0  0  0  0  0
   28.2318   15.2138    7.0706 N   0  0  0  0  0  0  0  0  0  0  0  0
   27.9493   13.9536    7.0926 C   0  0  0  0  0  0  0  0  0  0  0  0
   28.2606   13.2586    8.3958 C   0  0  0  0  0  0  0  0  0  0  0  0
   28.0365   11.8180    8.5070 C   0  0  0  0  0  0  0  0  0  0  0  0
   29.0817   11.4806    7.7479 N   0  0  0  0  0  0  0  0  0  0  0  0
   29.5420   12.2868    6.8411 C   0  0  0  0  0  0  0  0  0  0  0  0
   30.1271   10.6409    8.2811 C   0  0  0  0  0  0  0  0  0  0  0  0
   30.1875   10.0482    9.3167 O   0  0  0  0  0  0  0  0  0  0  0  0
   31.1609   10.4263    7.4285 C   0  0  0  0  0  0  0  0  0  0  0  0
   31.7229   11.5019    6.5314 C   0  0  0  0  0  0  0  0  0  0  0  0
   32.8484   11.0748    5.6111 C   0  0  0  0  0  0  0  0  0  0  0  0
   33.4095   11.9359    4.7582 F   0  0  0  0  0  0  0  0  0  0  0  0
   33.2445    9.6865    5.7244 C   0  0  0  0  0  0  0  0  0  0  0  0
   34.4927    9.0784    4.7209 Cl  0  0  0  0  0  0  0  0  0  0  0  0
   32.6797    8.7816    6.5971 N   0  0  0  0  0  0  0  0  0  0  0  0
   31.6633    9.2018    7.3989 C   0  0  0  0  0  0  0  0  0  0  0  0
   30.9285    8.1174    8.4791 Cl  0  0  0  0  0  0  0  0  0  0  0  0
   28.8929   14.3810    9.5050 S   0  0  0  0  0  0  0  0  0  0  0  0
  1  2  1  0
  2  3  2  0
  3  4  1  0
  4  5  2  0
  5  6  1  0
  6  7  1  0
  7  8  1  0
  7  9  1  0
  9 10  2  0
  9 11  1  0
 11 12  2  0
 12 13  1  0
 13 14  1  0
 13 15  2  0
 15 16  1  0
 15 17  1  0
 17 18  2  0
 18 19  1  0
  5 20  1  0
 20  2  1  0
 18 11  1  0
A    1
 C1 
A    2
 C2 
A    3
 N1 
A    4
 C3 
A    5
 C4 
A    6
 C5 
A    7
 N2 
A    8
 C6 
A    9
 C7 
A   10
 O1 
A   11
 C8 
A   12
 C9 
A   13
 C10
A   14
 F1 
A   15
 C11
A   16
CL1 
A   17
 N3 
A   18
 C12
A   19
CL2 
A   20
 S1 
M  END
>  <ref_pdb>  (1109) 
Ax0310a

>  <ref_mols>  (1109) 
Ax0446a,Ax1080a,Ax0812a,Ax0719a,Ax1140a,Ax0528a,Ax0310a

>  <original SMILES>  (1109) 
Cc1ncc(CN(C)C(=O)c2cc(F)c(Cl)nc2Cl)s1

>  <rationale>  (1109) 
info info set:screening_pocket;hydroph_interaction:P107+Y89+Y90; pistack:H21; 

>  <experiment>  (1109) 
screening_pocket

>  <cluster_label>  (1109) 
3

>  <cluster_rank>  (1109) 
766

>  <N_interactions>  (1109) 
4

>  <∆∆G>  (1109) 
-0.770018

>  <comRMSD>  (1109) 
0.870514

>  <ROCS_TanimotoCombo>  (1109) 
0.639

>  <ROCS_ShapeTanimoto>  (1109) 
0.251

>  <ROCS_ColorTanimoto>  (1109) 
0.388

$$$$
EN300_1670243
     RDKit          3D

 13 13  0  0  0  0  0  0  0  0999 V2000
   30.2284   13.6449    8.0902 C   0  0  0  0  0  0  0  0  0  0  0  0
   30.6545   12.7043    6.9451 C   0  0  0  0  0  0  0  0  0  0  0  0
   31.2192   13.3439    5.8952 F   0  0  0  0  0  0  0  0  0  0  0  0
   29.5233   12.1882    6.4559 F   0  0  0  0  0  0  0  0  0  0  0  0
   31.5381   11.5658    7.4278 C   0  0  0  0  0  0  0  0  0  0  0  0
   32.2383   12.8398    7.8739 C   0  0  0  0  0  0  0  0  0  0  0  0
   33.5955   13.2862    6.8389 S   0  0  0  0  0  6  0  0  0  0  0  0
   34.7212   13.8004    7.9746 N   0  0  0  0  0  0  0  0  0  0  0  0
   33.3317   14.4145    6.0148 O   0  0  0  0  0  0  0  0  0  0  0  0
   34.1734   12.1230    6.2434 O   0  0  0  0  0  0  0  0  0  0  0  0
   32.1703   10.4774    6.5952 C   0  0  0  0  0  0  0  0  0  0  0  0
   31.5697    9.3567    7.4586 C   0  0  0  0  0  0  0  0  0  0  0  0
   30.8043   10.4909    8.1830 C   0  0  0  0  0  0  0  0  0  0  0  0
  1  2  1  0
  2  3  1  0
  2  4  1  0
  2  5  1  0
  5  6  1  0
  6  7  1  0
  7  8  1  0
  7  9  2  0
  7 10  2  0
  5 11  1  0
 11 12  1  0
 12 13  1  0
 13  5  1  0
A    1
 C1 
A    2
 C2 
A    3
 F1 
A    4
 F2 
A    5
 C3 
A    6
 C4 
A    7
 S1 
A    8
 N1 
A    9
 O1 
A   10
 O2 
A   11
 C5 
A   12
 C6 
A   13
 C7 
M  END
>  <ref_pdb>  (1110) 
Ax0310a

>  <ref_mols>  (1110) 
Ax0446a,Ax1080a,Ax0812a,Ax0719a,Ax1140a,Ax0528a,Ax0310a

>  <original SMILES>  (1110) 
CC(F)(F)C1(CS(N)(=O)=O)CCC1

>  <rationale>  (1110) 
info info set:sulfonimide_joint;hbond:G127+E85; hydroph_interaction:P107; 

>  <experiment>  (1110) 
sulfonimide_joint

>  <cluster_label>  (1110) 
3

>  <cluster_rank>  (1110) 
767

>  <N_interactions>  (1110) 
3

>  <∆∆G>  (1110) 
-1.395859

>  <comRMSD>  (1110) 
0.735632

>  <ROCS_TanimotoCombo>  (1110) 
0.324

>  <ROCS_ShapeTanimoto>  (1110) 
0.163

>  <ROCS_ColorTanimoto>  (1110) 
0.161

$$$$
Z383556222
     RDKit          3D

 22 23  0  0  0  0  0  0  0  0999 V2000
   27.4946   13.9515    6.3298 C   0  0  0  0  0  0  0  0  0  0  0  0
   28.3942   14.6288    7.3511 C   0  0  0  0  0  0  0  0  0  0  0  0
   28.5576   15.9486    7.4076 N   0  0  0  0  0  0  0  0  0  0  0  0
   29.3999   16.2275    8.4412 O   0  0  0  0  0  0  0  0  0  0  0  0
   29.7763   15.0705    8.9952 C   0  0  0  0  0  0  0  0  0  0  0  0
   30.7499   15.1398   10.1591 C   0  0  0  0  0  0  0  0  0  0  0  0
   29.1577   14.1045    8.3311 C   0  0  0  0  0  0  0  0  0  0  0  0
   29.3535   12.7533    8.7040 C   0  0  0  0  0  0  0  0  0  0  0  0
   29.4269   11.8693    7.7656 N   0  0  0  0  0  0  0  0  0  0  0  0
   28.1615   11.9788    7.0989 C   0  0  0  0  0  0  0  0  0  0  0  0
   30.2339   10.7917    8.1082 C   0  0  0  0  0  0  0  0  0  0  0  0
   30.1376   10.0940    9.0949 O   0  0  0  0  0  0  0  0  0  0  0  0
   31.3671   10.4135    7.1844 C   0  0  0  0  0  0  0  0  0  0  0  0
   31.8084   11.4475    6.3745 C   0  0  0  0  0  0  0  0  0  0  0  0
   32.9263   11.0577    5.4042 C   0  0  0  0  0  0  0  0  0  0  0  0
   33.3415    9.5895    5.5239 C   0  0  0  0  0  0  0  0  0  0  0  0
   34.4278    9.2080    4.5072 C   0  0  0  0  0  0  0  0  0  0  0  0
   35.3709    8.3888    5.0113 F   0  0  0  0  0  0  0  0  0  0  0  0
   33.9818    8.5367    3.4133 F   0  0  0  0  0  0  0  0  0  0  0  0
   35.0761   10.2867    3.9933 F   0  0  0  0  0  0  0  0  0  0  0  0
   32.8160    8.7198    6.3966 N   0  0  0  0  0  0  0  0  0  0  0  0
   31.8468    9.1430    7.1966 C   0  0  0  0  0  0  0  0  0  0  0  0
  1  2  1  0
  2  3  2  0
  3  4  1  0
  4  5  1  0
  5  6  1  0
  5  7  2  0
  7  8  1  0
  8  9  1  0
  9 10  1  0
  9 11  1  0
 11 12  2  0
 11 13  1  0
 13 14  2  0
 14 15  1  0
 15 16  2  0
 16 17  1  0
 17 18  1  0
 17 19  1  0
 17 20  1  0
 16 21  1  0
 21 22  2  0
  7  2  1  0
 22 13  1  0
A    1
 C1 
A    2
 C2 
A    3
 N1 
A    4
 O1 
A    5
 C3 
A    6
 C4 
A    7
 C5 
A    8
 C6 
A    9
 N2 
A   10
 C7 
A   11
 C8 
A   12
 O2 
A   13
 C9 
A   14
 C10
A   15
 C11
A   16
 C12
A   17
 C13
A   18
 F1 
A   19
 F2 
A   20
 F3 
A   21
 N3 
A   22
 C14
M  END
>  <ref_pdb>  (1111) 
Ax0310a

>  <ref_mols>  (1111) 
Ax0446a,Ax1080a,Ax0812a,Ax0719a,Ax1140a,Ax0528a,Ax0310a

>  <original SMILES>  (1111) 
Cc1noc(C)c1CN(C)C(=O)c1ccc(C(F)(F)F)nc1

>  <rationale>  (1111) 
info info set:screening_pocket;hbond:Y90; hydroph_interaction:P107+Y89+Y90; 

>  <experiment>  (1111) 
screening_pocket

>  <cluster_label>  (1111) 
3

>  <cluster_rank>  (1111) 
768

>  <N_interactions>  (1111) 
4

>  <∆∆G>  (1111) 
-0.039869

>  <comRMSD>  (1111) 
0.736342

>  <ROCS_TanimotoCombo>  (1111) 
0.646

>  <ROCS_ShapeTanimoto>  (1111) 
0.251

>  <ROCS_ColorTanimoto>  (1111) 
0.395

$$$$
Z826825154
     RDKit          3D

 15 16  0  0  0  0  0  0  0  0999 V2000
   33.0437   11.9789    5.2662 C   0  0  0  0  0  0  0  0  0  0  0  0
   32.2760   11.1151    6.2695 C   0  0  0  0  0  0  0  0  0  0  0  0
   32.6684    9.7123    6.4844 C   0  0  0  0  0  0  0  0  0  0  0  0
   31.9460    8.9925    7.3878 C   0  0  0  0  0  0  0  0  0  0  0  0
   30.7117    9.9391    8.0881 S   0  0  0  0  0  0  0  0  0  0  0  0
   31.1905   11.3957    7.0797 C   0  0  0  0  0  0  0  0  0  0  0  0
   30.4796   12.5867    7.1750 C   0  0  0  0  0  0  0  0  0  0  0  0
   30.0618   13.1202    6.1507 O   0  0  0  0  0  0  0  0  0  0  0  0
   30.1912   13.1847    8.4082 N   0  0  0  0  0  0  0  0  0  0  0  0
   31.2571   13.8520    9.1665 C   0  0  0  0  0  0  0  0  0  0  0  0
   32.5807   13.4884    8.8281 C   0  0  0  0  0  0  0  0  0  0  0  0
   33.6853   13.2224    8.6080 N   0  0  0  0  0  0  0  0  0  0  0  0
   28.9608   13.8983    8.5214 C   0  0  0  0  0  0  0  0  0  0  0  0
   28.9796   15.1407    8.8884 C   0  0  0  0  0  0  0  0  0  0  0  0
   28.4105   14.4937    9.9724 C   0  0  0  0  0  0  0  0  0  0  0  0
  1  2  1  0
  2  3  1  0
  3  4  2  0
  4  5  1  0
  5  6  1  0
  6  7  1  0
  7  8  2  0
  7  9  1  0
  9 10  1  0
 10 11  1  0
 11 12  3  0
  9 13  1  0
 13 14  1  0
 14 15  1  0
  6  2  2  0
 15 13  1  0
A    1
 C1 
A    2
 C2 
A    3
 C3 
A    4
 C4 
A    5
 S1 
A    6
 C5 
A    7
 C6 
A    8
 O1 
A    9
 N1 
A   10
 C7 
A   11
 C8 
A   12
 N2 
A   13
 C9 
A   14
 C10
A   15
 C11
M  END
>  <ref_pdb>  (1112) 
Ax0310a

>  <ref_mols>  (1112) 
Ax0446a,Ax1080a,Ax0812a,Ax0719a,Ax1140a,Ax0528a,Ax0310a

>  <original SMILES>  (1112) 
Cc1ccsc1C(=O)N(CC#N)C1CC1

>  <rationale>  (1112) 
info info set:3d;hbond:G127; hydroph_interaction:P107+Y90; 

>  <experiment>  (1112) 
3d

>  <cluster_label>  (1112) 
3

>  <cluster_rank>  (1112) 
769

>  <N_interactions>  (1112) 
3

>  <∆∆G>  (1112) 
-6.492839

>  <comRMSD>  (1112) 
0.742747

>  <ROCS_TanimotoCombo>  (1112) 
0.297

>  <ROCS_ShapeTanimoto>  (1112) 
0.196

>  <ROCS_ColorTanimoto>  (1112) 
0.101

$$$$
EN300_31860392
     RDKit          3D

 17 17  0  0  0  0  0  0  0  0999 V2000
   31.6541    8.3675    7.9769 C   0  0  0  0  0  0  0  0  0  0  0  0
   32.6491    8.2877    6.9839 O   0  0  0  0  0  0  0  0  0  0  0  0
   32.7955    9.4850    6.3787 C   0  0  0  0  0  0  0  0  0  0  0  0
   31.9996   10.5674    6.9432 C   0  0  0  0  0  0  0  0  0  0  0  0
   31.0313   10.6480    8.1112 C   0  0  0  0  0  0  0  0  0  0  0  0
   30.5264   11.6851    8.4732 O   0  0  0  0  0  0  0  0  0  0  0  0
   30.8792    9.4282    8.6424 O   0  0  0  0  0  0  0  0  0  0  0  0
   29.5517    9.0927    8.8993 C   0  0  0  0  0  0  0  0  0  0  0  0
   29.3942    8.4943   10.2030 C   0  0  0  0  0  0  0  0  0  0  0  0
   28.6946   10.3117    8.5872 C   0  0  0  0  0  0  0  0  0  0  0  0
   29.1448    7.7681    8.4626 C   0  0  0  0  0  0  0  0  0  0  0  0
   31.9724   12.0066    6.4421 C   0  0  0  0  0  0  0  0  0  0  0  0
   32.8073   12.2265    5.3563 C   0  0  0  0  0  0  0  0  0  0  0  0
   33.6038   11.1630    4.8054 C   0  0  0  0  0  0  0  0  0  0  0  0
   34.4978   11.5171    3.6144 C   0  0  0  0  0  0  0  0  0  0  0  0
   33.6133    9.8139    5.2949 C   0  0  0  0  0  0  0  0  0  0  0  0
   34.4423    8.8431    4.6920 N   0  0  0  0  0  0  0  0  0  0  0  0
  1  2  1  0
  2  3  1  0
  3  4  2  0
  4  5  1  0
  5  6  2  0
  5  7  1  0
  7  8  1  0
  8  9  1  0
  8 10  1  0
  8 11  1  0
  4 12  1  0
 12 13  2  0
 13 14  1  0
 14 15  1  0
 14 16  2  0
 16 17  1  0
 16  3  1  0
A    1
 C1 
A    2
 O1 
A    3
 C2 
A    4
 C3 
A    5
 C4 
A    6
 O2 
A    7
 O3 
A    8
 C5 
A    9
 C6 
A   10
 C7 
A   11
 C8 
A   12
 C9 
A   13
 C10
A   14
 C11
A   15
 C12
A   16
 C13
A   17
 N1 
M  END
>  <ref_pdb>  (1113) 
Ax0310a

>  <ref_mols>  (1113) 
Ax0446a,Ax1080a,Ax0812a,Ax0719a,Ax1140a,Ax0528a,Ax0310a

>  <original SMILES>  (1113) 
COc1c(C(=O)OC(C)(C)C)ccc(C)c1N

>  <rationale>  (1113) 
info info set:bb_densepocket2;hbond:S105+G127; hydroph_interaction:P107+V124+D109; 

>  <experiment>  (1113) 
bb_densepocket2

>  <cluster_label>  (1113) 
3

>  <cluster_rank>  (1113) 
770

>  <N_interactions>  (1113) 
5

>  <∆∆G>  (1113) 
-1.879489

>  <comRMSD>  (1113) 
0.863958

>  <ROCS_TanimotoCombo>  (1113) 
0.614

>  <ROCS_ShapeTanimoto>  (1113) 
0.243

>  <ROCS_ColorTanimoto>  (1113) 
0.371

$$$$
Z425750180
     RDKit          3D

 15 15  0  0  0  0  0  0  0  0999 V2000
   36.3294   11.2658    4.3031 C   0  0  0  0  0  0  0  0  0  0  0  0
   35.0919   11.6056    5.1320 C   0  0  0  0  0  0  0  0  0  0  0  0
   33.8226   10.8256    4.9033 C   0  0  0  0  0  0  0  0  0  0  0  0
   32.6936   11.2628    5.7706 C   0  0  0  0  0  0  0  0  0  0  0  0
   32.8052   12.3699    6.7885 C   0  0  0  0  0  0  0  0  0  0  0  0
   31.3224   12.6789    7.6593 S   0  0  0  0  0  6  0  0  0  0  0  0
   30.2396   12.8110    6.7060 O   0  0  0  0  0  0  0  0  0  0  0  0
   31.5566   13.6376    8.7181 O   0  0  0  0  0  0  0  0  0  0  0  0
   31.2878   11.1415    8.2565 N   0  0  0  0  0  0  0  0  0  0  0  0
   30.0550   10.4456    8.3015 C   0  0  0  0  0  0  0  0  0  0  0  0
   30.3019    9.0814    8.3954 C   0  0  0  0  0  0  0  0  0  0  0  0
   31.5277    8.7634    7.7631 O   0  0  0  0  0  0  0  0  0  0  0  0
   34.0084   13.0629    6.9980 C   0  0  0  0  0  0  0  0  0  0  0  0
   34.1822   14.0598    7.9497 C   0  0  0  0  0  0  0  0  0  0  0  0
   35.1300   12.7317    6.2016 C   0  0  0  0  0  0  0  0  0  0  0  0
  1  2  1  0
  2  3  2  0
  3  4  1  0
  4  5  2  0
  5  6  1  0
  6  7  2  0
  6  8  2  0
  6  9  1  0
  9 10  1  0
 10 11  1  0
 11 12  1  0
  5 13  1  0
 13 14  1  0
 13 15  2  0
 15  2  1  0
A    1
 C1 
A    2
 C2 
A    3
 C3 
A    4
 C4 
A    5
 C5 
A    6
 S1 
A    7
 O1 
A    8
 O2 
A    9
 N1 
A   10
 C6 
A   11
 C7 
A   12
 O3 
A   13
 C8 
A   14
 C9 
A   15
 C10
M  END
>  <ref_pdb>  (1114) 
Ax0310a

>  <ref_mols>  (1114) 
Ax0446a,Ax1080a,Ax0812a,Ax0719a,Ax1140a,Ax0528a,Ax0310a

>  <original SMILES>  (1114) 
Cc1ccc(S(=O)(=O)NCCO)c(C)c1

>  <rationale>  (1114) 
info info set:3d;hbond:S87+S105; hydroph_interaction:P107+V84; 

>  <experiment>  (1114) 
3d

>  <cluster_label>  (1114) 
3

>  <cluster_rank>  (1114) 
771

>  <N_interactions>  (1114) 
4

>  <∆∆G>  (1114) 
-3.558674

>  <comRMSD>  (1114) 
0.877701

>  <ROCS_TanimotoCombo>  (1114) 
0.317

>  <ROCS_ShapeTanimoto>  (1114) 
0.181

>  <ROCS_ColorTanimoto>  (1114) 
0.136

$$$$
Z31209618
     RDKit          3D

 26 29  0  0  0  0  0  0  0  0999 V2000
   32.0227   14.4117    9.1720 O   0  0  0  0  0  0  0  0  0  0  0  0
   30.8816   14.7562    9.5093 N   0  0  0  0  0  4  0  0  0  0  0  0
   30.6630   15.7592   10.1966 O   0  0  0  0  0  1  0  0  0  0  0  0
   29.8094   14.3247    8.6219 C   0  0  0  0  0  0  0  0  0  0  0  0
   28.5093   14.7242    8.9033 C   0  0  0  0  0  0  0  0  0  0  0  0
   27.4925   14.3354    8.0613 C   0  0  0  0  0  0  0  0  0  0  0  0
   27.7339   13.5483    6.9420 C   0  0  0  0  0  0  0  0  0  0  0  0
   29.0360   13.1486    6.6648 C   0  0  0  0  0  0  0  0  0  0  0  0
   30.0737   13.5357    7.5019 C   0  0  0  0  0  0  0  0  0  0  0  0
   31.3191   13.1127    7.1531 O   0  0  0  0  0  0  0  0  0  0  0  0
   31.5213   11.7505    7.1765 C   0  0  0  0  0  0  0  0  0  0  0  0
   30.6892   10.9736    7.8990 N   0  0  0  0  0  0  0  0  0  0  0  0
   30.9020    9.6567    7.9165 C   0  0  0  0  0  0  0  0  0  0  0  0
   31.8622    8.9915    7.2844 N   0  0  0  0  0  0  0  0  0  0  0  0
   32.6587    9.8109    6.5690 C   0  0  0  0  0  0  0  0  0  0  0  0
   33.9425    9.1694    5.6668 S   0  0  0  0  0  0  0  0  0  0  0  0
   34.4209   10.6983    5.1344 C   0  0  0  0  0  0  0  0  0  0  0  0
   33.6212   11.6974    5.6113 C   0  0  0  0  0  0  0  0  0  0  0  0
   34.0032   12.9978    5.1335 C   0  0  0  0  0  0  0  0  0  0  0  0
   33.2254   13.4816    4.0902 C   0  0  0  0  0  0  0  0  0  0  0  0
   33.5329   14.6785    3.4975 C   0  0  0  0  0  0  0  0  0  0  0  0
   34.6121   15.3880    3.9439 C   0  0  0  0  0  0  0  0  0  0  0  0
   34.8536   16.5237    3.2770 F   0  0  0  0  0  0  0  0  0  0  0  0
   35.4053   14.9438    5.0201 C   0  0  0  0  0  0  0  0  0  0  0  0
   35.0939   13.7248    5.6293 C   0  0  0  0  0  0  0  0  0  0  0  0
   32.5705   11.1934    6.4626 C   0  0  0  0  0  0  0  0  0  0  0  0
  1  2  2  0
  2  3  1  0
  2  4  1  0
  4  5  2  0
  5  6  1  0
  6  7  2  0
  7  8  1  0
  8  9  2  0
  9 10  1  0
 10 11  1  0
 11 12  2  0
 12 13  1  0
 13 14  2  0
 14 15  1  0
 15 16  1  0
 16 17  1  0
 17 18  2  0
 18 19  1  0
 19 20  2  0
 20 21  1  0
 21 22  2  0
 22 23  1  0
 22 24  1  0
 24 25  2  0
 18 26  1  0
  9  4  1  0
 26 11  1  0
 26 15  2  0
 25 19  1  0
M  CHG  2   2   1   3  -1
A    1
 O1 
A    2
 N1 
A    3
 O2 
A    4
 C1 
A    5
 C2 
A    6
 C3 
A    7
 C4 
A    8
 C5 
A    9
 C6 
A   10
 O3 
A   11
 C7 
A   12
 N2 
A   13
 C8 
A   14
 N3 
A   15
 C9 
A   16
 S1 
A   17
 C10
A   18
 C11
A   19
 C12
A   20
 C13
A   21
 C14
A   22
 C15
A   23
 F1 
A   24
 C16
A   25
 C17
A   26
 C18
M  END
>  <ref_pdb>  (1115) 
Ax0310a

>  <ref_mols>  (1115) 
Ax0446a,Ax1080a,Ax0812a,Ax0719a,Ax1140a,Ax0528a,Ax0310a

>  <original SMILES>  (1115) 
O=[N+]([O-])c1ccccc1Oc1ncnc2scc(-c3ccc(F)cc3)c12

>  <rationale>  (1115) 
info info set:screening_whole;hydroph_interaction:P107+Y89+Y90; 

>  <experiment>  (1115) 
screening_whole

>  <cluster_label>  (1115) 
3

>  <cluster_rank>  (1115) 
772

>  <N_interactions>  (1115) 
3

>  <∆∆G>  (1115) 
-7.193896

>  <comRMSD>  (1115) 
0.778112

>  <ROCS_TanimotoCombo>  (1115) 
0.456

>  <ROCS_ShapeTanimoto>  (1115) 
0.256

>  <ROCS_ColorTanimoto>  (1115) 
0.2

$$$$
EN300_26664910
     RDKit          3D

 25 27  0  0  0  0  0  0  0  0999 V2000
   27.9005   13.0255    7.7412 C   0  0  0  0  0  0  0  0  0  0  0  0
   29.1770   12.8343    8.3994 N   0  0  0  0  0  0  0  0  0  0  0  0
   29.8918   13.9674    8.5573 C   0  0  0  0  0  0  0  0  0  0  0  0
   31.2770   14.0808    8.8972 O   0  0  0  0  0  0  0  0  0  0  0  0
   29.1556   14.8285    8.3609 O   0  0  0  0  0  0  0  0  0  0  0  0
   29.0587   15.8088    9.3130 C   0  0  0  0  0  0  0  0  0  0  0  0
   28.9206   17.0466    8.6330 C   0  0  0  0  0  0  0  0  0  0  0  0
   27.9727   15.5167   10.0943 C   0  0  0  0  0  0  0  0  0  0  0  0
   30.3782   15.7942   10.1300 C   0  0  0  0  0  0  0  0  0  0  0  0
   29.8163   11.7584    8.1239 C   0  0  0  0  0  0  0  0  0  0  0  0
   29.2355   10.4373    8.5792 C   0  0  0  0  0  0  0  0  0  0  0  0
   29.9862    9.1703    8.2551 C   0  0  0  0  0  0  0  0  0  0  0  0
   31.2432    9.5183    7.4783 C   0  0  0  0  0  0  0  0  0  0  0  0
   32.1453    8.4994    7.0079 N   0  0  0  0  0  0  0  0  0  0  0  0
   33.0795    9.2847    6.3933 C   0  0  0  0  0  0  0  0  0  0  0  0
   32.7688   10.7546    6.5133 C   0  0  0  0  0  0  0  0  0  0  0  0
   33.7186   11.8100    5.9525 C   0  0  0  0  0  0  0  0  0  0  0  0
   34.1241   11.7081    4.6396 C   0  0  0  0  0  0  0  0  0  0  0  0
   35.0936   12.7900    4.1601 C   0  0  0  0  0  0  0  0  0  0  0  0
   35.5223   13.8008    5.0222 C   0  0  0  0  0  0  0  0  0  0  0  0
   35.0516   13.8142    6.3294 C   0  0  0  0  0  0  0  0  0  0  0  0
   35.4793   14.7987    7.1610 O   0  0  0  0  0  0  0  0  0  0  0  0
   34.1683   12.8480    6.7857 C   0  0  0  0  0  0  0  0  0  0  0  0
   31.5890   10.8230    7.1813 N   0  0  0  0  0  0  0  0  0  0  0  0
   30.9209   11.9375    7.4871 N   0  0  0  0  0  0  0  0  0  0  0  0
  1  2  1  0
  2  3  1  0
  3  4  2  0
  3  5  1  0
  5  6  1  0
  6  7  1  0
  6  8  1  0
  6  9  1  0
  2 10  1  0
 10 11  1  0
 11 12  2  0
 12 13  1  0
 13 14  2  0
 14 15  1  0
 15 16  2  0
 16 17  1  0
 17 18  2  0
 18 19  1  0
 19 20  2  0
 20 21  1  0
 21 22  1  0
 21 23  2  0
 16 24  1  0
 24 25  1  0
 25 10  2  0
 24 13  1  0
 23 17  1  0
A    1
 C1 
A    2
 N1 
A    3
 C2 
A    4
 O1 
A    5
 O2 
A    6
 C3 
A    7
 C4 
A    8
 C5 
A    9
 C6 
A   10
 C7 
A   11
 C8 
A   12
 C9 
A   13
 C10
A   14
 N2 
A   15
 C11
A   16
 C12
A   17
 C13
A   18
 C14
A   19
 C15
A   20
 C16
A   21
 C17
A   22
 O3 
A   23
 C18
A   24
 N3 
A   25
 N4 
M  END
>  <ref_pdb>  (1116) 
Ax0310a

>  <ref_mols>  (1116) 
Ax0446a,Ax1080a,Ax0812a,Ax0719a,Ax1140a,Ax0528a,Ax0310a

>  <original SMILES>  (1116) 
CN(C(=O)OC(C)(C)C)c1ccc2ncc(-c3cccc(O)c3)n2n1

>  <rationale>  (1116) 
info info set:bb_whole;hbond:S87+G127; hydroph_interaction:Y89+Y90; 

>  <experiment>  (1116) 
bb_whole

>  <cluster_label>  (1116) 
3

>  <cluster_rank>  (1116) 
773

>  <N_interactions>  (1116) 
4

>  <∆∆G>  (1116) 
-3.706751

>  <comRMSD>  (1116) 
0.853862

>  <ROCS_TanimotoCombo>  (1116) 
0.411

>  <ROCS_ShapeTanimoto>  (1116) 
0.262

>  <ROCS_ColorTanimoto>  (1116) 
0.149

$$$$
Z324553128
     RDKit          3D

 15 16  0  0  0  0  0  0  0  0999 V2000
   29.8264   13.1355    8.7488 N   0  0  0  0  0  0  0  0  0  0  0  0
   30.1415   12.2052    8.1536 C   0  0  0  0  0  0  0  0  0  0  0  0
   30.9907   11.1042    7.6395 C   0  0  0  0  0  0  0  0  0  0  0  0
   30.8165    9.8053    7.8112 C   0  0  0  0  0  0  0  0  0  0  0  0
   31.7601    8.9322    7.2028 C   0  0  0  0  0  0  0  0  0  0  0  0
   32.7843    9.4036    6.4814 C   0  0  0  0  0  0  0  0  0  0  0  0
   32.9739   10.7683    6.3150 C   0  0  0  0  0  0  0  0  0  0  0  0
   32.0527   11.5701    6.9179 C   0  0  0  0  0  0  0  0  0  0  0  0
   32.1173   13.0304    6.8719 C   0  0  0  0  0  0  0  0  0  0  0  0
   32.8870   13.4872    7.8739 N   0  0  0  0  0  0  0  0  0  0  0  0
   34.1996   13.7753    7.6631 C   0  0  0  0  0  0  0  0  0  0  0  0
   34.8056   14.2869    8.9385 C   0  0  0  0  0  0  0  0  0  0  0  0
   33.6708   14.8014    9.6275 C   0  0  0  0  0  0  0  0  0  0  0  0
   32.5721   14.2315    8.9541 C   0  0  0  0  0  0  0  0  0  0  0  0
   31.4385   14.4544    9.3275 O   0  0  0  0  0  0  0  0  0  0  0  0
  1  2  1  0
  2  3  1  0
  3  4  2  0
  4  5  1  0
  5  6  2  0
  6  7  1  0
  7  8  2  0
  8  9  1  0
  9 10  1  0
 10 11  1  0
 11 12  1  0
 12 13  1  0
 13 14  1  0
 14 15  2  0
  8  3  1  0
 14 10  1  0
A    1
 N1 
A    2
 C1 
A    3
 C2 
A    4
 C3 
A    5
 C4 
A    6
 C5 
A    7
 C6 
A    8
 C7 
A    9
 C8 
A   10
 N2 
A   11
 C9 
A   12
 C10
A   13
 C11
A   14
 C12
A   15
 O1 
M  END
>  <ref_pdb>  (1117) 
Ax0310a

>  <ref_mols>  (1117) 
Ax0446a,Ax1080a,Ax0812a,Ax0719a,Ax1140a,Ax0528a,Ax0310a

>  <original SMILES>  (1117) 
NCc1ccccc1CN1CCCC1=O

>  <rationale>  (1117) 
info info set:3d;hbond:S87; hydroph_interaction:V84; 

>  <experiment>  (1117) 
3d

>  <cluster_label>  (1117) 
3

>  <cluster_rank>  (1117) 
774

>  <N_interactions>  (1117) 
2

>  <∆∆G>  (1117) 
-6.586751

>  <comRMSD>  (1117) 
0.457691

>  <ROCS_TanimotoCombo>  (1117) 
0.304

>  <ROCS_ShapeTanimoto>  (1117) 
0.203

>  <ROCS_ColorTanimoto>  (1117) 
0.101

$$$$
EN300_1618206
     RDKit          3D

 16 16  0  0  0  0  0  0  0  0999 V2000
   32.3676   14.2338    3.7537 C   0  0  0  0  0  0  0  0  0  0  0  0
   31.9060   13.7440    5.0030 O   0  0  0  0  0  0  0  0  0  0  0  0
   32.8881   13.1920    5.7581 C   0  0  0  0  0  0  0  0  0  0  0  0
   34.0297   13.6133    5.8715 O   0  0  0  0  0  0  0  0  0  0  0  0
   32.3834   11.9724    6.4427 C   0  0  0  0  0  0  0  0  0  0  0  0
   33.0567   10.6357    6.0767 C   0  0  0  0  0  0  0  0  0  0  0  0
   32.5855    9.3455    6.7506 C   0  0  0  0  0  0  0  0  0  0  0  0
   31.4761    9.4717    7.7616 C   0  0  0  0  0  0  0  0  0  0  0  0
   31.0606    8.3358    8.4059 O   0  0  0  0  0  0  0  0  0  0  0  0
   30.1301    8.6731    9.3255 C   0  0  0  0  0  0  0  0  0  0  0  0
   30.8115   10.7432    8.1139 C   0  0  0  0  0  0  0  0  0  0  0  0
   31.2533   11.9953    7.4588 C   0  0  0  0  0  0  0  0  0  0  0  0
   30.3758   13.4754    7.9404 S   0  0  0  0  0  6  0  0  0  0  0  0
   29.0516   13.0214    8.8290 N   0  0  0  0  0  0  0  0  0  0  0  0
   29.7188   13.9711    6.7626 O   0  0  0  0  0  0  0  0  0  0  0  0
   31.2141   14.2764    8.8122 O   0  0  0  0  0  0  0  0  0  0  0  0
  1  2  1  0
  2  3  1  0
  3  4  2  0
  3  5  1  0
  5  6  2  0
  6  7  1  0
  7  8  2  0
  8  9  1  0
  9 10  1  0
  8 11  1  0
 11 12  2  0
 12 13  1  0
 13 14  1  0
 13 15  2  0
 13 16  2  0
 12  5  1  0
A    1
 C1 
A    2
 O1 
A    3
 C2 
A    4
 O2 
A    5
 C3 
A    6
 C4 
A    7
 C5 
A    8
 C6 
A    9
 O3 
A   10
 C7 
A   11
 C8 
A   12
 C9 
A   13
 S1 
A   14
 N1 
A   15
 O4 
A   16
 O5 
M  END
>  <ref_pdb>  (1118) 
Ax0310a

>  <ref_mols>  (1118) 
Ax0446a,Ax1080a,Ax0812a,Ax0719a,Ax1140a,Ax0528a,Ax0310a

>  <original SMILES>  (1118) 
COC(=O)c1ccc(OC)cc1S(N)(=O)=O

>  <rationale>  (1118) 
info info set:sulfonimide_whole;hbond:S87+S125; 

>  <experiment>  (1118) 
sulfonimide_whole

>  <cluster_label>  (1118) 
3

>  <cluster_rank>  (1118) 
775

>  <N_interactions>  (1118) 
2

>  <∆∆G>  (1118) 
-8.242248

>  <comRMSD>  (1118) 
0.731641

>  <ROCS_TanimotoCombo>  (1118) 
0.337

>  <ROCS_ShapeTanimoto>  (1118) 
0.198

>  <ROCS_ColorTanimoto>  (1118) 
0.14

$$$$
Z1098923764
     RDKit          3D

 13 14  0  0  0  0  0  0  0  0999 V2000
   30.6185   12.9850    6.0747 O   0  0  0  0  0  0  0  0  0  0  0  0
   31.1700   12.8061    7.1479 C   0  0  0  0  0  0  0  0  0  0  0  0
   31.3936   11.3485    7.2348 C   0  0  0  0  0  0  0  0  0  0  0  0
   30.5872   10.4587    8.0935 C   0  0  0  0  0  0  0  0  0  0  0  0
   30.9518    9.1280    8.0529 C   0  0  0  0  0  0  0  0  0  0  0  0
   32.0120    8.7592    7.2356 C   0  0  0  0  0  0  0  0  0  0  0  0
   32.7641    9.6152    6.4287 C   0  0  0  0  0  0  0  0  0  0  0  0
   32.4514   10.9384    6.4247 C   0  0  0  0  0  0  0  0  0  0  0  0
   32.4472   13.3675    7.0445 C   0  0  0  0  0  0  0  0  0  0  0  0
   32.9170   13.7366    8.2915 C   0  0  0  0  0  0  0  0  0  0  0  0
   32.0364   14.5611    9.0426 O   0  0  0  0  0  0  0  0  0  0  0  0
   30.7288   14.0816    9.2972 C   0  0  0  0  0  0  0  0  0  0  0  0
   30.1721   13.3382    8.2262 C   0  0  0  0  0  0  0  0  0  0  0  0
  1  2  1  0
  2  3  1  0
  3  4  2  0
  4  5  1  0
  5  6  2  0
  6  7  1  0
  7  8  2  0
  2  9  1  0
  9 10  1  0
 10 11  1  0
 11 12  1  0
 12 13  1  0
 13  2  1  0
  8  3  1  0
A    1
 O1 
A    2
 C1 
A    3
 C2 
A    4
 C3 
A    5
 C4 
A    6
 C5 
A    7
 C6 
A    8
 C7 
A    9
 C8 
A   10
 C9 
A   11
 O2 
A   12
 C10
A   13
 C11
M  END
>  <ref_pdb>  (1119) 
Ax0310a

>  <ref_mols>  (1119) 
Ax0446a,Ax1080a,Ax0812a,Ax0719a,Ax1140a,Ax0528a,Ax0310a

>  <original SMILES>  (1119) 
OC1(c2ccccc2)CCOCC1

>  <rationale>  (1119) 
info info set:3d;hbond:S87; hydroph_interaction:P107; 

>  <experiment>  (1119) 
3d

>  <cluster_label>  (1119) 
3

>  <cluster_rank>  (1119) 
776

>  <N_interactions>  (1119) 
2

>  <∆∆G>  (1119) 
-4.804188

>  <comRMSD>  (1119) 
0.709619

>  <ROCS_TanimotoCombo>  (1119) 
0.299

>  <ROCS_ShapeTanimoto>  (1119) 
0.184

>  <ROCS_ColorTanimoto>  (1119) 
0.115

$$$$
EN300_219473
     RDKit          3D

 16 16  0  0  0  0  0  0  0  0999 V2000
   33.4504   11.7531    2.7964 C   0  0  0  0  0  0  0  0  0  0  0  0
   34.1638   10.4318    3.0702 C   0  0  0  0  0  0  0  0  0  0  0  0
   33.6381    9.8817    4.2348 O   0  0  0  0  0  0  0  0  0  0  0  0
   33.8866   10.5742    5.3530 C   0  0  0  0  0  0  0  0  0  0  0  0
   35.0440   11.2431    5.5297 O   0  0  0  0  0  0  0  0  0  0  0  0
   32.8200   10.5223    6.2958 C   0  0  0  0  0  0  0  0  0  0  0  0
   32.2663    9.3033    6.9643 C   0  0  0  0  0  0  0  0  0  0  0  0
   31.2186    9.4698    7.8804 C   0  0  0  0  0  0  0  0  0  0  0  0
   30.5195    8.1673    8.7189 Cl  0  0  0  0  0  0  0  0  0  0  0  0
   30.7063   10.7130    8.1428 C   0  0  0  0  0  0  0  0  0  0  0  0
   31.2070   11.8530    7.5197 C   0  0  0  0  0  0  0  0  0  0  0  0
   30.4990   13.3655    7.9023 S   0  0  0  0  0  6  0  0  0  0  0  0
   29.1656   13.2726    8.8932 N   0  0  0  0  0  0  0  0  0  0  0  0
   31.4440   14.1737    8.6437 O   0  0  0  0  0  0  0  0  0  0  0  0
   29.8548   13.8257    6.6968 O   0  0  0  0  0  0  0  0  0  0  0  0
   32.2648   11.7446    6.6002 C   0  0  0  0  0  0  0  0  0  0  0  0
  1  2  1  0
  2  3  1  0
  3  4  1  0
  4  5  2  0
  4  6  1  0
  6  7  2  0
  7  8  1  0
  8  9  1  0
  8 10  2  0
 10 11  1  0
 11 12  1  0
 12 13  1  0
 12 14  2  0
 12 15  2  0
 11 16  2  0
 16  6  1  0
A    1
 C1 
A    2
 C2 
A    3
 O1 
A    4
 C3 
A    5
 O2 
A    6
 C4 
A    7
 C5 
A    8
 C6 
A    9
CL1 
A   10
 C7 
A   11
 C8 
A   12
 S1 
A   13
 N1 
A   14
 O3 
A   15
 O4 
A   16
 C9 
M  END
>  <ref_pdb>  (1120) 
Ax0310a

>  <ref_mols>  (1120) 
Ax0446a,Ax1080a,Ax0812a,Ax0719a,Ax1140a,Ax0528a,Ax0310a

>  <original SMILES>  (1120) 
CCOC(=O)c1cc(Cl)cc(S(N)(=O)=O)c1

>  <rationale>  (1120) 
info info set:sulfonimide_whole;hbond:S87+S125; hydroph_interaction:P107; 

>  <experiment>  (1120) 
sulfonimide_whole

>  <cluster_label>  (1120) 
3

>  <cluster_rank>  (1120) 
777

>  <N_interactions>  (1120) 
3

>  <∆∆G>  (1120) 
-6.355947

>  <comRMSD>  (1120) 
0.472101

>  <ROCS_TanimotoCombo>  (1120) 
0.333

>  <ROCS_ShapeTanimoto>  (1120) 
0.191

>  <ROCS_ColorTanimoto>  (1120) 
0.143

$$$$
Z644637130
     RDKit          3D

 18 19  0  0  0  0  0  0  0  0999 V2000
   27.6798   13.1658    6.1961 C   0  0  0  0  0  0  0  0  0  0  0  0
   28.3957   13.7522    7.3747 C   0  0  0  0  0  0  0  0  0  0  0  0
   27.4712   14.3686    8.2883 C   0  0  0  0  0  0  0  0  0  0  0  0
   27.9193   14.9343    9.4315 C   0  0  0  0  0  0  0  0  0  0  0  0
   29.3705   14.9328    9.7438 C   0  0  0  0  0  0  0  0  0  0  0  0
   30.2572   14.3543    8.8494 C   0  0  0  0  0  0  0  0  0  0  0  0
   31.6077   14.3922    9.1880 C   0  0  0  0  0  0  0  0  0  0  0  0
   29.7575   13.7668    7.6639 C   0  0  0  0  0  0  0  0  0  0  0  0
   30.6561   13.2163    6.8261 O   0  0  0  0  0  0  0  0  0  0  0  0
   31.4474   12.3374    7.6005 C   0  0  0  0  0  0  0  0  0  0  0  0
   32.7510   12.5305    7.1954 C   0  0  0  0  0  0  0  0  0  0  0  0
   33.2938   11.5369    6.2376 C   0  0  0  0  0  0  0  0  0  0  0  0
   33.1221   10.1835    6.7187 N   0  0  0  0  0  0  0  0  0  0  0  0
   33.6063    9.2569    5.7276 C   0  0  0  0  0  0  0  0  0  0  0  0
   34.7243    9.7140    4.8995 C   0  0  0  0  0  0  0  0  0  0  0  0
   35.6330   10.0397    4.2664 N   0  0  0  0  0  0  0  0  0  0  0  0
   31.7981    9.8490    7.2251 C   0  0  0  0  0  0  0  0  0  0  0  0
   30.8831   11.0327    7.1628 C   0  0  0  0  0  0  0  0  0  0  0  0
  1  2  1  0
  2  3  2  0
  3  4  1  0
  4  5  2  0
  5  6  1  0
  6  7  1  0
  6  8  2  0
  8  9  1  0
  9 10  1  0
 10 11  1  0
 11 12  1  0
 12 13  1  0
 13 14  1  0
 14 15  1  0
 15 16  3  0
 13 17  1  0
 17 18  1  0
  8  2  1  0
 18 10  1  0
A    1
 C1 
A    2
 C2 
A    3
 C3 
A    4
 C4 
A    5
 C5 
A    6
 C6 
A    7
 C7 
A    8
 C8 
A    9
 O1 
A   10
 C9 
A   11
 C10
A   12
 C11
A   13
 N1 
A   14
 C12
A   15
 C13
A   16
 N2 
A   17
 C14
A   18
 C15
M  END
>  <ref_pdb>  (1121) 
Ax0310a

>  <ref_mols>  (1121) 
Ax0446a,Ax1080a,Ax0812a,Ax0719a,Ax1140a,Ax0528a,Ax0310a

>  <original SMILES>  (1121) 
Cc1cccc(C)c1OC1CCN(CC#N)CC1

>  <rationale>  (1121) 
info info set:3d;hydroph_interaction:P107+Y90; pistack:H21; 

>  <experiment>  (1121) 
3d

>  <cluster_label>  (1121) 
3

>  <cluster_rank>  (1121) 
778

>  <N_interactions>  (1121) 
4

>  <∆∆G>  (1121) 
-3.260368

>  <comRMSD>  (1121) 
0.941743

>  <ROCS_TanimotoCombo>  (1121) 
0.307

>  <ROCS_ShapeTanimoto>  (1121) 
0.198

>  <ROCS_ColorTanimoto>  (1121) 
0.108

$$$$
EN300_801773
     RDKit          3D

 17 18  0  0  0  0  0  0  0  0999 V2000
   28.7547    8.9557    8.2584 C   0  0  0  0  0  0  0  0  0  0  0  0
   30.2097    8.9016    8.2630 C   0  0  0  0  0  0  0  0  0  0  0  0
   30.6534    7.5870    8.4329 C   0  0  0  0  0  0  0  0  0  0  0  0
   30.2510    9.2958    9.5632 C   0  0  0  0  0  0  0  0  0  0  0  0
   31.2063    9.7408    7.4623 C   0  0  0  0  0  0  0  0  0  0  0  0
   32.1684    8.9886    6.7719 N   0  0  0  0  0  0  0  0  0  0  0  0
   33.1228    9.7411    5.9843 C   0  0  0  0  0  0  0  0  0  0  0  0
   34.3302    9.3396    5.0485 C   0  0  0  0  0  0  0  0  0  0  0  0
   34.7215    8.1269    4.7888 F   0  0  0  0  0  0  0  0  0  0  0  0
   35.2284   10.2832    4.3041 C   0  0  0  0  0  0  0  0  0  0  0  0
   35.0518   11.7501    4.3822 C   0  0  0  0  0  0  0  0  0  0  0  0
   33.8847   12.1574    5.2770 C   0  0  0  0  0  0  0  0  0  0  0  0
   33.1171   11.2779    5.9154 C   0  0  0  0  0  0  0  0  0  0  0  0
   32.0461   11.9317    6.7174 C   0  0  0  0  0  0  0  0  0  0  0  0
   31.1244   11.1657    7.4585 C   0  0  0  0  0  0  0  0  0  0  0  0
   30.1158   11.8546    8.1963 N   0  0  0  0  0  0  0  0  0  0  0  0
   29.9317   13.0677    7.9891 N   0  0  0  0  0  0  0  0  0  0  0  0
  1  2  1  0
  2  3  1  0
  2  4  1  0
  2  5  1  0
  5  6  2  0
  6  7  1  0
  7  8  2  0
  8  9  1  0
  8 10  1  0
 10 11  2  0
 11 12  1  0
 12 13  2  0
 13 14  1  0
 14 15  2  0
 15 16  1  0
 16 17  1  0
 15  5  1  0
 13  7  1  0
A    1
 C1 
A    2
 C2 
A    3
 C3 
A    4
 C4 
A    5
 C5 
A    6
 N1 
A    7
 C6 
A    8
 C7 
A    9
 F1 
A   10
 C8 
A   11
 C9 
A   12
 C10
A   13
 C11
A   14
 C12
A   15
 C13
A   16
 N2 
A   17
 N3 
M  END
>  <ref_pdb>  (1122) 
Ax0310a

>  <ref_mols>  (1122) 
Ax0446a,Ax1080a,Ax0812a,Ax0719a,Ax1140a,Ax0528a,Ax0310a

>  <original SMILES>  (1122) 
CC(C)(C)c1nc2c(F)cccc2cc1NN

>  <rationale>  (1122) 
info info set:bb_densepocket2;

>  <experiment>  (1122) 
bb_densepocket2

>  <cluster_label>  (1122) 
3

>  <cluster_rank>  (1122) 
779

>  <N_interactions>  (1122) 
0

>  <∆∆G>  (1122) 
-3.835672

>  <comRMSD>  (1122) 
0.744299

>  <ROCS_TanimotoCombo>  (1122) 
0.621

>  <ROCS_ShapeTanimoto>  (1122) 
0.285

>  <ROCS_ColorTanimoto>  (1122) 
0.336

$$$$
Z54342712
     RDKit          3D

 16 16  0  0  0  0  0  0  0  0999 V2000
   31.1848   14.6951    9.4362 C   0  0  0  0  0  0  0  0  0  0  0  0
   30.6856   14.2334    8.1903 O   0  0  0  0  0  0  0  0  0  0  0  0
   29.3403   14.3743    7.9999 C   0  0  0  0  0  0  0  0  0  0  0  0
   28.7781   15.4543    7.8075 O   0  0  0  0  0  0  0  0  0  0  0  0
   28.6934   13.0271    8.0255 C   0  0  0  0  0  0  0  0  0  0  0  0
   29.4890   12.1454    7.2422 O   0  0  0  0  0  0  0  0  0  0  0  0
   30.2403   11.2363    7.9076 C   0  0  0  0  0  0  0  0  0  0  0  0
   30.0693   10.7188    8.9509 O   0  0  0  0  0  0  0  0  0  0  0  0
   31.4145   10.8088    7.1187 C   0  0  0  0  0  0  0  0  0  0  0  0
   32.2083   11.7958    6.3163 C   0  0  0  0  0  0  0  0  0  0  0  0
   33.4724   11.4975    5.4129 C   0  0  0  0  0  0  0  0  0  0  0  0
   33.6330    9.9353    5.5991 C   0  0  0  0  0  0  0  0  0  0  0  0
   34.6662    9.3795    4.9095 O   0  0  0  0  0  0  0  0  0  0  0  0
   32.7575    9.0449    6.4573 C   0  0  0  0  0  0  0  0  0  0  0  0
   31.7172    9.4900    7.1636 C   0  0  0  0  0  0  0  0  0  0  0  0
   30.9736    8.6145    7.9143 O   0  0  0  0  0  0  0  0  0  0  0  0
  1  2  1  0
  2  3  1  0
  3  4  2  0
  3  5  1  0
  5  6  1  0
  6  7  1  0
  7  8  2  0
  7  9  1  0
  9 10  2  0
 10 11  1  0
 11 12  2  0
 12 13  1  0
 12 14  1  0
 14 15  2  0
 15 16  1  0
 15  9  1  0
A    1
 C1 
A    2
 O1 
A    3
 C2 
A    4
 O2 
A    5
 C3 
A    6
 O3 
A    7
 C4 
A    8
 O4 
A    9
 C5 
A   10
 C6 
A   11
 C7 
A   12
 C8 
A   13
 O5 
A   14
 C9 
A   15
 C10
A   16
 O6 
M  END
>  <ref_pdb>  (1123) 
Ax0310a

>  <ref_mols>  (1123) 
Ax0446a,Ax1080a,Ax0812a,Ax0719a,Ax1140a,Ax0528a,Ax0310a

>  <original SMILES>  (1123) 
COC(=O)COC(=O)c1ccc(O)cc1O

>  <rationale>  (1123) 
info info set:screening_pocket;hbond:S87+S105; hydroph_interaction:P107; 

>  <experiment>  (1123) 
screening_pocket

>  <cluster_label>  (1123) 
3

>  <cluster_rank>  (1123) 
780

>  <N_interactions>  (1123) 
3

>  <∆∆G>  (1123) 
-4.340045

>  <comRMSD>  (1123) 
0.891174

>  <ROCS_TanimotoCombo>  (1123) 
0.639

>  <ROCS_ShapeTanimoto>  (1123) 
0.248

>  <ROCS_ColorTanimoto>  (1123) 
0.391

$$$$
EN300_197540
     RDKit          3D

 13 13  0  0  0  0  0  0  0  0999 V2000
   30.5848   13.6979    9.7872 N   0  0  0  0  0  0  0  0  0  0  0  0
   32.0121   13.9070    8.9635 S   0  0  0  0  0  6  0  0  0  0  0  0
   33.1306   13.0587    9.2748 O   0  0  0  0  0  0  0  0  0  0  0  0
   32.0675   15.3025    9.2758 O   0  0  0  0  0  0  0  0  0  0  0  0
   31.4565   13.3289    7.3647 C   0  0  0  0  0  0  0  0  0  0  0  0
   31.6334   11.8391    7.2533 C   0  0  0  0  0  0  0  0  0  0  0  0
   30.8033   10.8361    7.9418 C   0  0  0  0  0  0  0  0  0  0  0  0
   31.0668    9.4173    7.7824 C   0  0  0  0  0  0  0  0  0  0  0  0
   32.1247    9.0092    6.9566 C   0  0  0  0  0  0  0  0  0  0  0  0
   32.9427    9.9259    6.2729 C   0  0  0  0  0  0  0  0  0  0  0  0
   34.0542    9.3374    5.4110 C   0  0  0  0  0  0  0  0  0  0  0  0
   35.0041   10.3580    5.1190 O   0  0  0  0  0  0  0  0  0  0  0  0
   32.7577   11.3010    6.3753 C   0  0  0  0  0  0  0  0  0  0  0  0
  1  2  1  0
  2  3  2  0
  2  4  2  0
  2  5  1  0
  5  6  1  0
  6  7  2  0
  7  8  1  0
  8  9  2  0
  9 10  1  0
 10 11  1  0
 11 12  1  0
 10 13  2  0
 13  6  1  0
A    1
 N1 
A    2
 S1 
A    3
 O1 
A    4
 O2 
A    5
 C1 
A    6
 C2 
A    7
 C3 
A    8
 C4 
A    9
 C5 
A   10
 C6 
A   11
 C7 
A   12
 O3 
A   13
 C8 
M  END
>  <ref_pdb>  (1124) 
Ax0310a

>  <ref_mols>  (1124) 
Ax0446a,Ax1080a,Ax0812a,Ax0719a,Ax1140a,Ax0528a,Ax0310a

>  <original SMILES>  (1124) 
NS(=O)(=O)Cc1cccc(CO)c1

>  <rationale>  (1124) 
info info set:sulfonimide_whole;hbond:S87+S125+G127; 

>  <experiment>  (1124) 
sulfonimide_whole

>  <cluster_label>  (1124) 
3

>  <cluster_rank>  (1124) 
781

>  <N_interactions>  (1124) 
3

>  <∆∆G>  (1124) 
-4.73547

>  <comRMSD>  (1124) 
0.410268

>  <ROCS_TanimotoCombo>  (1124) 
0.337

>  <ROCS_ShapeTanimoto>  (1124) 
0.185

>  <ROCS_ColorTanimoto>  (1124) 
0.152

$$$$
EN300_6510401
     RDKit          3D

 14 14  0  0  0  0  0  0  0  0999 V2000
   30.0695   14.2146    8.6546 C   0  0  0  0  0  0  0  0  0  0  0  0
   31.0151   13.6006    7.7618 O   0  0  0  0  0  0  0  0  0  0  0  0
   30.9130   12.2676    7.8411 C   0  0  0  0  0  0  0  0  0  0  0  0
   30.1121   11.7471    8.5874 O   0  0  0  0  0  0  0  0  0  0  0  0
   31.8080   11.4194    6.9722 C   0  0  0  0  0  0  0  0  0  0  0  0
   32.6274   11.8719    5.7958 C   0  0  0  0  0  0  0  0  0  0  0  0
   33.4266   10.7609    5.1075 C   0  0  0  0  0  0  0  0  0  0  0  0
   33.3571    9.4962    5.5605 N   0  0  0  0  0  0  0  0  0  0  0  0
   32.5674    9.1983    6.6574 N   0  0  0  0  0  0  0  0  0  0  0  0
   31.8462   10.1367    7.3171 C   0  0  0  0  0  0  0  0  0  0  0  0
   31.0784    9.9179    8.4105 N   0  0  0  0  0  0  0  0  0  0  0  0
   30.2159    8.8815    8.2863 C   0  0  0  0  0  0  0  0  0  0  0  0
   28.8331    9.2650    8.6110 C   0  0  0  0  0  0  0  0  0  0  0  0
   30.7174    7.9421    9.2382 C   0  0  0  0  0  0  0  0  0  0  0  0
  1  2  1  0
  2  3  1  0
  3  4  2  0
  3  5  1  0
  5  6  2  0
  6  7  1  0
  7  8  2  0
  8  9  1  0
  9 10  2  0
 10 11  1  0
 11 12  1  0
 12 13  1  0
 12 14  1  0
 10  5  1  0
A    1
 C1 
A    2
 O1 
A    3
 C2 
A    4
 O2 
A    5
 C3 
A    6
 C4 
A    7
 C5 
A    8
 N1 
A    9
 N2 
A   10
 C6 
A   11
 N3 
A   12
 C7 
A   13
 C8 
A   14
 C9 
M  END
>  <ref_pdb>  (1125) 
Ax0310a

>  <ref_mols>  (1125) 
Ax0446a,Ax1080a,Ax0812a,Ax0719a,Ax1140a,Ax0528a,Ax0310a

>  <original SMILES>  (1125) 
COC(=O)c1ccnnc1NC(C)C

>  <rationale>  (1125) 
info info set:bb_densepocket2;hbond:S125; hydroph_interaction:P107; 

>  <experiment>  (1125) 
bb_densepocket2

>  <cluster_label>  (1125) 
3

>  <cluster_rank>  (1125) 
782

>  <N_interactions>  (1125) 
2

>  <∆∆G>  (1125) 
-4.010498

>  <comRMSD>  (1125) 
0.923579

>  <ROCS_TanimotoCombo>  (1125) 
0.627

>  <ROCS_ShapeTanimoto>  (1125) 
0.229

>  <ROCS_ColorTanimoto>  (1125) 
0.398

$$$$
EN300_2171602
     RDKit          3D

 14 14  0  0  0  0  0  0  0  0999 V2000
   32.2201   15.0235    9.9435 C   0  0  0  0  0  0  0  0  0  0  0  0
   31.4392   14.5813    8.8224 O   0  0  0  0  0  0  0  0  0  0  0  0
   31.5529   13.1893    8.5535 C   0  0  0  0  0  0  0  0  0  0  0  0
   31.5202   12.8123    7.2754 C   0  0  0  0  0  0  0  0  0  0  0  0
   31.9078   11.4161    7.0671 N   0  0  0  0  0  0  0  0  0  0  0  0
   31.3235   10.2503    7.4970 C   0  0  0  0  0  0  0  0  0  0  0  0
   30.1251   10.1716    8.3214 C   0  0  0  0  0  0  0  0  0  0  0  0
   31.9947    9.2119    7.0662 N   0  0  0  0  0  0  0  0  0  0  0  0
   33.0648    9.6540    6.3442 N   0  0  0  0  0  0  0  0  0  0  0  0
   33.0332   10.9723    6.3469 C   0  0  0  0  0  0  0  0  0  0  0  0
   34.1925   12.0266    5.5917 S   0  0  0  0  0  6  0  0  0  0  0  0
   34.7214   13.0655    6.8014 N   0  0  0  0  0  0  0  0  0  0  0  0
   35.2687   11.1536    5.1793 O   0  0  0  0  0  0  0  0  0  0  0  0
   33.4301   12.8377    4.6908 O   0  0  0  0  0  0  0  0  0  0  0  0
  1  2  1  0
  2  3  1  0
  3  4  1  0
  4  5  1  0
  5  6  1  0
  6  7  1  0
  6  8  2  0
  8  9  1  0
  9 10  2  0
 10 11  1  0
 11 12  1  0
 11 13  2  0
 11 14  2  0
 10  5  1  0
A    1
 C1 
A    2
 O1 
A    3
 C2 
A    4
 C3 
A    5
 N1 
A    6
 C4 
A    7
 C5 
A    8
 N2 
A    9
 N3 
A   10
 C6 
A   11
 S1 
A   12
 N4 
A   13
 O2 
A   14
 O3 
M  END
>  <ref_pdb>  (1126) 
Ax0310a

>  <ref_mols>  (1126) 
Ax0446a,Ax1080a,Ax0812a,Ax0719a,Ax1140a,Ax0528a,Ax0310a

>  <original SMILES>  (1126) 
COCCn1c(C)nnc1S(N)(=O)=O

>  <rationale>  (1126) 
info info set:sulfonimide_whole;hbond:S87+G127; 

>  <experiment>  (1126) 
sulfonimide_whole

>  <cluster_label>  (1126) 
3

>  <cluster_rank>  (1126) 
783

>  <N_interactions>  (1126) 
2

>  <∆∆G>  (1126) 
-4.955469

>  <comRMSD>  (1126) 
0.858392

>  <ROCS_TanimotoCombo>  (1126) 
0.352

>  <ROCS_ShapeTanimoto>  (1126) 
0.192

>  <ROCS_ColorTanimoto>  (1126) 
0.16

$$$$
Z57901832
     RDKit          3D

 17 18  0  0  0  0  0  0  0  0999 V2000
   34.1673   10.9761    5.3378 C   0  0  0  0  0  0  0  0  0  0  0  0
   33.0170   10.7428    6.2922 C   0  0  0  0  0  0  0  0  0  0  0  0
   32.3820   11.9605    6.8844 C   0  0  0  0  0  0  0  0  0  0  0  0
   31.2302   11.8501    7.8462 C   0  0  0  0  0  0  0  0  0  0  0  0
   30.6550   13.3920    8.3865 S   0  0  0  0  0  6  0  0  0  0  0  0
   30.3980   13.5396    9.7723 O   0  0  0  0  0  0  0  0  0  0  0  0
   31.7538   14.0583    7.8557 O   0  0  0  0  0  0  0  0  0  0  0  0
   29.2083   13.4302    7.5207 N   0  0  0  0  0  0  0  0  0  0  0  0
   28.0875   13.2338    8.4555 C   0  0  0  0  0  0  0  0  0  0  0  0
   27.9391   14.4514    9.3755 C   0  0  0  0  0  0  0  0  0  0  0  0
   27.7194   15.5876    8.5997 O   0  0  0  0  0  0  0  0  0  0  0  0
   28.8504   15.6547    7.7718 C   0  0  0  0  0  0  0  0  0  0  0  0
   28.8458   14.4899    6.7759 C   0  0  0  0  0  0  0  0  0  0  0  0
   30.6956   10.4481    8.2306 C   0  0  0  0  0  0  0  0  0  0  0  0
   31.3899    9.2636    7.5899 C   0  0  0  0  0  0  0  0  0  0  0  0
   32.5515    9.5055    6.6245 C   0  0  0  0  0  0  0  0  0  0  0  0
   33.1701    8.5289    6.0625 F   0  0  0  0  0  0  0  0  0  0  0  0
  1  2  1  0
  2  3  2  0
  3  4  1  0
  4  5  1  0
  5  6  2  0
  5  7  2  0
  5  8  1  0
  8  9  1  0
  9 10  1  0
 10 11  1  0
 11 12  1  0
 12 13  1  0
  4 14  2  0
 14 15  1  0
 15 16  2  0
 16 17  1  0
 16  2  1  0
 13  8  1  0
A    1
 C1 
A    2
 C2 
A    3
 C3 
A    4
 C4 
A    5
 S1 
A    6
 O1 
A    7
 O2 
A    8
 N1 
A    9
 C5 
A   10
 C6 
A   11
 O3 
A   12
 C7 
A   13
 C8 
A   14
 C9 
A   15
 C10
A   16
 C11
A   17
 F1 
M  END
>  <ref_pdb>  (1127) 
Ax0310a

>  <ref_mols>  (1127) 
Ax0446a,Ax1080a,Ax0812a,Ax0719a,Ax1140a,Ax0528a,Ax0310a

>  <original SMILES>  (1127) 
Cc1cc(S(=O)(=O)N2CCOCC2)ccc1F

>  <rationale>  (1127) 
info info set:3d;halogenbond:S105; hbond:S87; 

>  <experiment>  (1127) 
3d

>  <cluster_label>  (1127) 
3

>  <cluster_rank>  (1127) 
784

>  <N_interactions>  (1127) 
2

>  <∆∆G>  (1127) 
-0.688286

>  <comRMSD>  (1127) 
0.703086

>  <ROCS_TanimotoCombo>  (1127) 
0.32

>  <ROCS_ShapeTanimoto>  (1127) 
0.211

>  <ROCS_ColorTanimoto>  (1127) 
0.109

$$$$
EN300_744821
     RDKit          3D

 16 17  0  0  0  0  0  0  0  0999 V2000
   29.4877    8.8757    9.8677 C   0  0  0  0  0  0  0  0  0  0  0  0
   30.0423    9.0520    8.5553 C   0  0  0  0  0  0  0  0  0  0  0  0
   30.7911    7.8302    8.4761 C   0  0  0  0  0  0  0  0  0  0  0  0
   28.6763    8.9170    8.2338 C   0  0  0  0  0  0  0  0  0  0  0  0
   30.7649   10.3135    8.1813 C   0  0  0  0  0  0  0  0  0  0  0  0
   30.4937   11.5728    8.7513 O   0  0  0  0  0  0  0  0  0  0  0  0
   31.7670   10.2314    7.1154 C   0  0  0  0  0  0  0  0  0  0  0  0
   31.8046   11.3293    6.1461 C   0  0  0  0  0  0  0  0  0  0  0  0
   32.8788   10.8970    5.2577 C   0  0  0  0  0  0  0  0  0  0  0  0
   33.3365   11.5639    4.1296 C   0  0  0  0  0  0  0  0  0  0  0  0
   34.3702   11.0168    3.3913 C   0  0  0  0  0  0  0  0  0  0  0  0
   34.9420    9.8274    3.7907 C   0  0  0  0  0  0  0  0  0  0  0  0
   34.5030    9.1550    4.9147 C   0  0  0  0  0  0  0  0  0  0  0  0
   35.1684    8.0549    5.1687 F   0  0  0  0  0  0  0  0  0  0  0  0
   33.4333    9.6742    5.6759 C   0  0  0  0  0  0  0  0  0  0  0  0
   32.7606    9.2094    6.8377 O   0  0  0  0  0  0  0  0  0  0  0  0
  1  2  1  0
  2  3  1  0
  2  4  1  0
  2  5  1  0
  5  6  2  0
  5  7  1  0
  7  8  2  0
  8  9  1  0
  9 10  2  0
 10 11  1  0
 11 12  2  0
 12 13  1  0
 13 14  1  0
 13 15  2  0
 15 16  1  0
 16  7  1  0
 15  9  1  0
A    1
 C1 
A    2
 C2 
A    3
 C3 
A    4
 C4 
A    5
 C5 
A    6
 O1 
A    7
 C6 
A    8
 C7 
A    9
 C8 
A   10
 C9 
A   11
 C10
A   12
 C11
A   13
 C12
A   14
 F1 
A   15
 C13
A   16
 O2 
M  END
>  <ref_pdb>  (1128) 
Ax0310a

>  <ref_mols>  (1128) 
Ax0446a,Ax1080a,Ax0812a,Ax0719a,Ax1140a,Ax0528a,Ax0310a

>  <original SMILES>  (1128) 
CC(C)(C)C(=O)c1cc2cccc(F)c2o1

>  <rationale>  (1128) 
info info set:bb_densepocket2;hbond:S125+G127; hydroph_interaction:P107; 

>  <experiment>  (1128) 
bb_densepocket2

>  <cluster_label>  (1128) 
3

>  <cluster_rank>  (1128) 
785

>  <N_interactions>  (1128) 
3

>  <∆∆G>  (1128) 
-2.903557

>  <comRMSD>  (1128) 
0.741787

>  <ROCS_TanimotoCombo>  (1128) 
0.609

>  <ROCS_ShapeTanimoto>  (1128) 
0.221

>  <ROCS_ColorTanimoto>  (1128) 
0.388

$$$$
EN300_201320
     RDKit          3D

 14 14  0  0  0  0  0  0  0  0999 V2000
   30.3713   13.2035    9.1537 N   0  0  0  0  0  0  0  0  0  0  0  0
   31.8664   13.7968    8.7709 S   0  0  0  0  0  6  0  0  0  0  0  0
   31.6418   15.1470    9.2106 O   0  0  0  0  0  0  0  0  0  0  0  0
   33.0242   13.0443    9.1874 O   0  0  0  0  0  0  0  0  0  0  0  0
   31.5680   13.3222    7.0872 C   0  0  0  0  0  0  0  0  0  0  0  0
   31.7906   11.8555    7.0190 C   0  0  0  0  0  0  0  0  0  0  0  0
   30.8041   10.9075    7.8279 C   0  0  0  0  0  0  0  0  0  0  0  0
   31.0868    9.4395    7.7280 C   0  0  0  0  0  0  0  0  0  0  0  0
   32.3386    9.0227    6.8214 C   0  0  0  0  0  0  0  0  0  0  0  0
   33.1774    9.9322    6.1258 C   0  0  0  0  0  0  0  0  0  0  0  0
   34.3316    9.5599    5.2976 N   0  0  0  0  0  4  0  0  0  0  0  0
   35.0158   10.5025    4.8765 O   0  0  0  0  0  0  0  0  0  0  0  0
   34.8166    8.4492    5.4750 O   0  0  0  0  0  1  0  0  0  0  0  0
   32.8319   11.3536    6.2780 C   0  0  0  0  0  0  0  0  0  0  0  0
  1  2  1  0
  2  3  2  0
  2  4  2  0
  2  5  1  0
  5  6  1  0
  6  7  2  0
  7  8  1  0
  8  9  2  0
  9 10  1  0
 10 11  1  0
 11 12  2  0
 11 13  1  0
 10 14  2  0
 14  6  1  0
M  CHG  2  11   1  13  -1
A    1
 N1 
A    2
 S1 
A    3
 O1 
A    4
 O2 
A    5
 C1 
A    6
 C2 
A    7
 C3 
A    8
 C4 
A    9
 C5 
A   10
 C6 
A   11
 N2 
A   12
 O3 
A   13
 O4 
A   14
 C7 
M  END
>  <ref_pdb>  (1129) 
Ax0310a

>  <ref_mols>  (1129) 
Ax0446a,Ax1080a,Ax0812a,Ax0719a,Ax1140a,Ax0528a,Ax0310a

>  <original SMILES>  (1129) 
NS(=O)(=O)Cc1cccc([N+](=O)[O-])c1

>  <rationale>  (1129) 
info info set:sulfonimide_whole;hbond:S87+S125+G127; 

>  <experiment>  (1129) 
sulfonimide_whole

>  <cluster_label>  (1129) 
3

>  <cluster_rank>  (1129) 
786

>  <N_interactions>  (1129) 
3

>  <∆∆G>  (1129) 
-2.298048

>  <comRMSD>  (1129) 
0.439229

>  <ROCS_TanimotoCombo>  (1129) 
0.339

>  <ROCS_ShapeTanimoto>  (1129) 
0.188

>  <ROCS_ColorTanimoto>  (1129) 
0.151

$$$$
EN300_1617535
     RDKit          3D

 18 18  0  0  0  0  0  0  0  0999 V2000
   29.3063    7.6038    9.2586 C   0  0  0  0  0  0  0  0  0  0  0  0
   29.4842    8.4523    8.2245 O   0  0  0  0  0  0  0  0  0  0  0  0
   30.8162    8.6132    8.4850 C   0  0  0  0  0  0  0  0  0  0  0  0
   31.5512    7.7924    9.3828 O   0  0  0  0  0  0  0  0  0  0  0  0
   31.2849    9.6166    7.8716 C   0  0  0  0  0  0  0  0  0  0  0  0
   32.3567    9.4753    6.9270 C   0  0  0  0  0  0  0  0  0  0  0  0
   32.8882   10.6652    6.2572 C   0  0  0  0  0  0  0  0  0  0  0  0
   32.2890   11.9980    6.5707 C   0  0  0  0  0  0  0  0  0  0  0  0
   32.8083   13.0981    5.9298 C   0  0  0  0  0  0  0  0  0  0  0  0
   33.9509   13.4935    6.0615 O   0  0  0  0  0  0  0  0  0  0  0  0
   31.8318   13.6112    5.1487 O   0  0  0  0  0  0  0  0  0  0  0  0
   32.3075   14.1581    3.9279 C   0  0  0  0  0  0  0  0  0  0  0  0
   31.2225   12.0619    7.5009 C   0  0  0  0  0  0  0  0  0  0  0  0
   30.4022   13.5433    7.9534 S   0  0  0  0  0  6  0  0  0  0  0  0
   29.0869   13.1130    8.8607 N   0  0  0  0  0  0  0  0  0  0  0  0
   29.7236   13.9949    6.7702 O   0  0  0  0  0  0  0  0  0  0  0  0
   31.2867   14.3430    8.7702 O   0  0  0  0  0  0  0  0  0  0  0  0
   30.7202   10.8225    8.1630 C   0  0  0  0  0  0  0  0  0  0  0  0
  1  2  1  0
  2  3  1  0
  3  4  2  0
  3  5  1  0
  5  6  2  0
  6  7  1  0
  7  8  2  0
  8  9  1  0
  9 10  2  0
  9 11  1  0
 11 12  1  0
  8 13  1  0
 13 14  1  0
 14 15  1  0
 14 16  2  0
 14 17  2  0
 13 18  2  0
 18  5  1  0
A    1
 C1 
A    2
 O1 
A    3
 C2 
A    4
 O2 
A    5
 C3 
A    6
 C4 
A    7
 C5 
A    8
 C6 
A    9
 C7 
A   10
 O3 
A   11
 O4 
A   12
 C8 
A   13
 C9 
A   14
 S1 
A   15
 N1 
A   16
 O5 
A   17
 O6 
A   18
 C10
M  END
>  <ref_pdb>  (1130) 
Ax0310a

>  <ref_mols>  (1130) 
Ax0446a,Ax1080a,Ax0812a,Ax0719a,Ax1140a,Ax0528a,Ax0310a

>  <original SMILES>  (1130) 
COC(=O)c1ccc(C(=O)OC)c(S(N)(=O)=O)c1

>  <rationale>  (1130) 
info info set:sulfonimide_whole;hbond:S87+S105+S125; 

>  <experiment>  (1130) 
sulfonimide_whole

>  <cluster_label>  (1130) 
3

>  <cluster_rank>  (1130) 
787

>  <N_interactions>  (1130) 
3

>  <∆∆G>  (1130) 
-4.540197

>  <comRMSD>  (1130) 
0.681284

>  <ROCS_TanimotoCombo>  (1130) 
0.341

>  <ROCS_ShapeTanimoto>  (1130) 
0.202

>  <ROCS_ColorTanimoto>  (1130) 
0.14

$$$$
Z1262554666
     RDKit          3D

 12 13  0  0  0  0  0  0  0  0999 V2000
   29.8475   12.8309    6.5012 O   0  0  0  0  0  0  0  0  0  0  0  0
   30.8174   12.5203    7.2058 C   0  0  0  0  0  0  0  0  0  0  0  0
   31.3404   13.3729    8.1057 O   0  0  0  0  0  0  0  0  0  0  0  0
   31.4667   11.1738    7.1118 C   0  0  0  0  0  0  0  0  0  0  0  0
   30.7251    9.7743    7.9268 S   0  0  0  0  0  0  0  0  0  0  0  0
   31.9114    8.7503    7.3530 N   0  0  0  0  0  0  0  0  0  0  0  0
   32.8584    9.4381    6.5925 N   0  0  0  0  0  0  0  0  0  0  0  0
   32.6267   10.7251    6.4821 C   0  0  0  0  0  0  0  0  0  0  0  0
   33.5768   11.5015    5.7581 C   0  0  0  0  0  0  0  0  0  0  0  0
   34.8148   10.9279    5.3941 C   0  0  0  0  0  0  0  0  0  0  0  0
   34.6836   11.0363    4.0505 C   0  0  0  0  0  0  0  0  0  0  0  0
   33.4229   11.7136    4.1598 C   0  0  0  0  0  0  0  0  0  0  0  0
  1  2  2  0
  2  3  1  0
  2  4  1  0
  4  5  1  0
  5  6  1  0
  6  7  2  0
  7  8  1  0
  8  9  1  0
  9 10  1  0
 10 11  1  0
 11 12  1  0
  8  4  2  0
 12  9  1  0
A    1
 O1 
A    2
 C1 
A    3
 O2 
A    4
 C2 
A    5
 S1 
A    6
 N1 
A    7
 N2 
A    8
 C3 
A    9
 C4 
A   10
 C5 
A   11
 C6 
A   12
 C7 
M  END
>  <ref_pdb>  (1131) 
Ax0310a

>  <ref_mols>  (1131) 
Ax0446a,Ax1080a,Ax0812a,Ax0719a,Ax1140a,Ax0528a,Ax0310a

>  <original SMILES>  (1131) 
O=C(O)c1snnc1C1CCC1

>  <rationale>  (1131) 
info info set:3d;hbond:S87; hydroph_interaction:P107; 

>  <experiment>  (1131) 
3d

>  <cluster_label>  (1131) 
3

>  <cluster_rank>  (1131) 
788

>  <N_interactions>  (1131) 
2

>  <∆∆G>  (1131) 
-2.472337

>  <comRMSD>  (1131) 
0.702035

>  <ROCS_TanimotoCombo>  (1131) 
0.308

>  <ROCS_ShapeTanimoto>  (1131) 
0.173

>  <ROCS_ColorTanimoto>  (1131) 
0.135

$$$$
Z434462422
     RDKit          3D

 14 14  0  0  0  0  0  0  0  0999 V2000
   28.9159   14.0792    9.1312 C   0  0  0  0  0  0  0  0  0  0  0  0
   29.4438   12.7430    8.8707 N   0  0  0  0  0  0  0  0  0  0  0  0
   30.1936   12.6475    7.6434 C   0  0  0  0  0  0  0  0  0  0  0  0
   30.0930   13.5695    6.5636 O   0  0  0  0  0  0  0  0  0  0  0  0
   31.1083   11.4624    7.3513 C   0  0  0  0  0  0  0  0  0  0  0  0
   30.7152   10.0723    7.7602 C   0  0  0  0  0  0  0  0  0  0  0  0
   31.6776    9.0091    7.3399 C   0  0  0  0  0  0  0  0  0  0  0  0
   32.8900    9.5096    6.5834 C   0  0  0  0  0  0  0  0  0  0  0  0
   33.0917   10.8191    6.3411 N   0  0  0  0  0  0  0  0  0  0  0  0
   32.3274   11.6523    6.6762 C   0  0  0  0  0  0  0  0  0  0  0  0
   32.9008   13.2672    6.2253 S   0  0  0  0  0  0  0  0  0  0  0  0
   33.2248   13.0684    4.4467 C   0  0  0  0  0  0  0  0  0  0  0  0
   32.0334   13.6438    3.6737 C   0  0  0  0  0  0  0  0  0  0  0  0
   34.4794   13.8799    4.1434 C   0  0  0  0  0  0  0  0  0  0  0  0
  1  2  1  0
  2  3  1  0
  3  4  2  0
  3  5  1  0
  5  6  2  0
  6  7  1  0
  7  8  2  0
  8  9  1  0
  9 10  2  0
 10 11  1  0
 11 12  1  0
 12 13  1  0
 12 14  1  0
 10  5  1  0
A    1
 C1 
A    2
 N1 
A    3
 C2 
A    4
 O1 
A    5
 C3 
A    6
 C4 
A    7
 C5 
A    8
 C6 
A    9
 N2 
A   10
 C7 
A   11
 S1 
A   12
 C8 
A   13
 C9 
A   14
 C10
M  END
>  <ref_pdb>  (1132) 
Ax0310a

>  <ref_mols>  (1132) 
Ax0446a,Ax1080a,Ax0812a,Ax0719a,Ax1140a,Ax0528a,Ax0310a

>  <original SMILES>  (1132) 
CNC(=O)c1cccnc1SC(C)C

>  <rationale>  (1132) 
info info set:3d;hbond:S87+S125+G127; hydroph_interaction:P107; 

>  <experiment>  (1132) 
3d

>  <cluster_label>  (1132) 
3

>  <cluster_rank>  (1132) 
789

>  <N_interactions>  (1132) 
4

>  <∆∆G>  (1132) 
-5.865278

>  <comRMSD>  (1132) 
0.435951

>  <ROCS_TanimotoCombo>  (1132) 
0.301

>  <ROCS_ShapeTanimoto>  (1132) 
0.192

>  <ROCS_ColorTanimoto>  (1132) 
0.109

$$$$
EN300_51303
     RDKit          3D

 16 17  0  0  0  0  0  0  0  0999 V2000
   33.9223   13.4980    8.6587 C   0  0  0  0  0  0  0  0  0  0  0  0
   32.6051   13.8040    8.7883 N   0  0  0  0  0  0  0  0  0  0  0  0
   32.0094   14.8923    9.4352 N   0  0  0  0  0  0  0  0  0  0  0  0
   30.6902   14.7889    9.2775 N   0  0  0  0  0  0  0  0  0  0  0  0
   30.3519   13.6574    8.5600 N   0  0  0  0  0  0  0  0  0  0  0  0
   31.5330   13.0348    8.2681 C   0  0  0  0  0  0  0  0  0  0  0  0
   31.8891   11.7357    7.5629 C   0  0  0  0  0  0  0  0  0  0  0  0
   30.9095   10.7120    8.1237 C   0  0  0  0  0  0  0  0  0  0  0  0
   31.2101    9.3511    7.5450 C   0  0  0  0  0  0  0  0  0  0  0  0
   32.3381    9.1027    6.5438 C   0  0  0  0  0  0  0  0  0  0  0  0
   33.0908   10.1994    6.1613 C   0  0  0  0  0  0  0  0  0  0  0  0
   34.4125    9.9255    4.9990 S   0  0  0  0  0  6  0  0  0  0  0  0
   33.8011   10.3348    3.4997 N   0  0  0  0  0  0  0  0  0  0  0  0
   35.4506   10.8981    5.2256 O   0  0  0  0  0  0  0  0  0  0  0  0
   34.7190    8.5164    5.0006 O   0  0  0  0  0  0  0  0  0  0  0  0
   32.8795   11.4769    6.6489 C   0  0  0  0  0  0  0  0  0  0  0  0
  1  2  1  0
  2  3  1  0
  3  4  2  0
  4  5  1  0
  5  6  2  0
  6  7  1  0
  7  8  2  0
  8  9  1  0
  9 10  2  0
 10 11  1  0
 11 12  1  0
 12 13  1  0
 12 14  2  0
 12 15  2  0
 11 16  2  0
  6  2  1  0
 16  7  1  0
A    1
 C1 
A    2
 N1 
A    3
 N2 
A    4
 N3 
A    5
 N4 
A    6
 C2 
A    7
 C3 
A    8
 C4 
A    9
 C5 
A   10
 C6 
A   11
 C7 
A   12
 S1 
A   13
 N5 
A   14
 O1 
A   15
 O2 
A   16
 C8 
M  END
>  <ref_pdb>  (1133) 
Ax0310a

>  <ref_mols>  (1133) 
Ax0446a,Ax1080a,Ax0812a,Ax0719a,Ax1140a,Ax0528a,Ax0310a

>  <original SMILES>  (1133) 
Cn1nnnc1-c1cccc(S(N)(=O)=O)c1

>  <rationale>  (1133) 
info info set:sulfonimide_whole;hbond:S87; 

>  <experiment>  (1133) 
sulfonimide_whole

>  <cluster_label>  (1133) 
3

>  <cluster_rank>  (1133) 
790

>  <N_interactions>  (1133) 
1

>  <∆∆G>  (1133) 
-5.069494

>  <comRMSD>  (1133) 
0.555109

>  <ROCS_TanimotoCombo>  (1133) 
0.343

>  <ROCS_ShapeTanimoto>  (1133) 
0.19

>  <ROCS_ColorTanimoto>  (1133) 
0.153

$$$$
Z1272163303
     RDKit          3D

 15 16  0  0  0  0  0  0  0  0999 V2000
   28.6396   14.3631    8.3418 C   0  0  0  0  0  0  0  0  0  0  0  0
   29.8331   14.1862    8.3372 C   0  0  0  0  0  0  0  0  0  0  0  0
   30.4778   14.6251    9.4371 N   0  0  0  0  0  0  0  0  0  0  0  0
   31.8098   14.4683    9.5288 C   0  0  0  0  0  0  0  0  0  0  0  0
   32.5130   13.8342    8.4118 C   0  0  0  0  0  0  0  0  0  0  0  0
   31.7796   13.4340    7.3108 C   0  0  0  0  0  0  0  0  0  0  0  0
   32.4124   12.7452    5.9237 S   0  0  0  0  0  0  0  0  0  0  0  0
   31.9367   11.2777    6.6753 C   0  0  0  0  0  0  0  0  0  0  0  0
   30.8200   11.2769    7.5268 N   0  0  0  0  0  0  0  0  0  0  0  0
   30.8580    9.9896    7.8950 C   0  0  0  0  0  0  0  0  0  0  0  0
   30.1097    9.2109    8.7276 C   0  0  0  0  0  0  0  0  0  0  0  0
   31.9587    9.4722    7.1955 C   0  0  0  0  0  0  0  0  0  0  0  0
   32.2257    8.1983    7.3837 C   0  0  0  0  0  0  0  0  0  0  0  0
   32.6180   10.3132    6.4347 O   0  0  0  0  0  0  0  0  0  0  0  0
   30.4285   13.5914    7.2701 N   0  0  0  0  0  0  0  0  0  0  0  0
  1  2  1  0
  2  3  2  0
  3  4  1  0
  4  5  2  0
  5  6  1  0
  6  7  1  0
  7  8  1  0
  8  9  2  0
  9 10  1  0
 10 11  1  0
 10 12  2  0
 12 13  1  0
 12 14  1  0
  6 15  2  0
 15  2  1  0
 14  8  1  0
A    1
 C1 
A    2
 C2 
A    3
 N1 
A    4
 C3 
A    5
 C4 
A    6
 C5 
A    7
 S1 
A    8
 C6 
A    9
 N2 
A   10
 C7 
A   11
 C8 
A   12
 C9 
A   13
 C10
A   14
 O1 
A   15
 N3 
M  END
>  <ref_pdb>  (1134) 
Ax0310a

>  <ref_mols>  (1134) 
Ax0446a,Ax1080a,Ax0812a,Ax0719a,Ax1140a,Ax0528a,Ax0310a

>  <original SMILES>  (1134) 
Cc1nccc(Sc2nc(C)c(C)o2)n1

>  <rationale>  (1134) 
info info set:3d;hbond:S87+G127; hydroph_interaction:V124; 

>  <experiment>  (1134) 
3d

>  <cluster_label>  (1134) 
3

>  <cluster_rank>  (1134) 
791

>  <N_interactions>  (1134) 
3

>  <∆∆G>  (1134) 
-2.815899

>  <comRMSD>  (1134) 
0.897099

>  <ROCS_TanimotoCombo>  (1134) 
0.315

>  <ROCS_ShapeTanimoto>  (1134) 
0.186

>  <ROCS_ColorTanimoto>  (1134) 
0.129

$$$$
EN300_1622070
     RDKit          3D

 10 10  0  0  0  0  0  0  0  0999 V2000
   29.6006    8.1150    8.4391 C   0  0  0  0  0  0  0  0  0  0  0  0
   30.7033    8.9491    8.8801 C   0  0  0  0  0  0  0  0  0  0  0  0
   31.4196    9.6257    7.7560 C   0  0  0  0  0  0  0  0  0  0  0  0
   32.2578    8.7925    7.0567 N   0  0  0  0  0  0  0  0  0  0  0  0
   32.9275    9.3501    6.0499 C   0  0  0  0  0  0  0  0  0  0  0  0
   32.7494   10.8058    5.7288 C   0  0  0  0  0  0  0  0  0  0  0  0
   33.7417   10.8901    4.5119 C   0  0  0  0  0  0  0  0  0  0  0  0
   31.9063   11.6159    6.4398 C   0  0  0  0  0  0  0  0  0  0  0  0
   31.2062   11.0212    7.4958 C   0  0  0  0  0  0  0  0  0  0  0  0
   30.3368   11.8503    8.2256 N   0  0  0  0  0  0  0  0  0  0  0  0
  1  2  1  0
  2  3  1  0
  3  4  2  0
  4  5  1  0
  5  6  2  0
  6  7  1  0
  6  8  1  0
  8  9  2  0
  9 10  1  0
  9  3  1  0
A    1
 C1 
A    2
 C2 
A    3
 C3 
A    4
 N1 
A    5
 C4 
A    6
 C5 
A    7
 C6 
A    8
 C7 
A    9
 C8 
A   10
 N2 
M  END
>  <ref_pdb>  (1135) 
Ax0310a

>  <ref_mols>  (1135) 
Ax0446a,Ax1080a,Ax0812a,Ax0719a,Ax1140a,Ax0528a,Ax0310a

>  <original SMILES>  (1135) 
CCc1ncc(C)cc1N

>  <rationale>  (1135) 
info info set:bb_densepocket2;hbond:S125; hydroph_interaction:P107+V124+D109; 

>  <experiment>  (1135) 
bb_densepocket2

>  <cluster_label>  (1135) 
3

>  <cluster_rank>  (1135) 
792

>  <N_interactions>  (1135) 
4

>  <∆∆G>  (1135) 
-5.357102

>  <comRMSD>  (1135) 
0.306151

>  <ROCS_TanimotoCombo>  (1135) 
0.608

>  <ROCS_ShapeTanimoto>  (1135) 
0.198

>  <ROCS_ColorTanimoto>  (1135) 
0.41

$$$$
Z785235072
     RDKit          3D

 25 28  0  0  0  0  0  0  0  0999 V2000
   36.8946   13.5118    8.7078 O   0  0  0  0  0  0  0  0  0  0  0  0
   36.1354   14.3295    9.2090 C   0  0  0  0  0  0  0  0  0  0  0  0
   34.6900   14.2585    9.1301 C   0  0  0  0  0  0  0  0  0  0  0  0
   34.0779   13.6234    8.2001 N   0  0  0  0  0  0  0  0  0  0  0  0
   32.7301   13.7756    8.3927 C   0  0  0  0  0  0  0  0  0  0  0  0
   32.0224   14.0599    9.4624 N   0  0  0  0  0  0  0  0  0  0  0  0
   30.7002   14.0781    9.0514 C   0  0  0  0  0  0  0  0  0  0  0  0
   29.5415   14.3497    9.8077 C   0  0  0  0  0  0  0  0  0  0  0  0
   28.2881   14.2868    9.0495 C   0  0  0  0  0  0  0  0  0  0  0  0
   28.2497   13.9666    7.6492 C   0  0  0  0  0  0  0  0  0  0  0  0
   29.4198   13.7120    6.9608 C   0  0  0  0  0  0  0  0  0  0  0  0
   30.6076   13.7850    7.6959 C   0  0  0  0  0  0  0  0  0  0  0  0
   31.9217   13.6289    7.3116 N   0  0  0  0  0  0  0  0  0  0  0  0
   32.3664   13.3885    5.9604 C   0  0  0  0  0  0  0  0  0  0  0  0
   32.9859   12.1054    5.8725 C   0  0  0  0  0  0  0  0  0  0  0  0
   34.2518   11.9226    5.1155 C   0  0  0  0  0  0  0  0  0  0  0  0
   34.7823   10.6970    5.0646 C   0  0  0  0  0  0  0  0  0  0  0  0
   34.0051    9.6376    5.7976 C   0  0  0  0  0  0  0  0  0  0  0  0
   34.5727    8.4706    5.7197 F   0  0  0  0  0  0  0  0  0  0  0  0
   32.7914    9.8526    6.5204 C   0  0  0  0  0  0  0  0  0  0  0  0
   32.1563    8.6505    7.2125 C   0  0  0  0  0  0  0  0  0  0  0  0
   30.9438    9.2856    7.8731 C   0  0  0  0  0  0  0  0  0  0  0  0
   30.5754   10.5864    7.8126 C   0  0  0  0  0  0  0  0  0  0  0  0
   31.2202   11.5016    7.1566 N   0  0  0  0  0  0  0  0  0  0  0  0
   32.3080   11.1316    6.5351 C   0  0  0  0  0  0  0  0  0  0  0  0
  1  2  1  0
  2  3  1  0
  3  4  1  0
  4  5  1  0
  5  6  2  0
  6  7  1  0
  7  8  2  0
  8  9  1  0
  9 10  2  0
 10 11  1  0
 11 12  2  0
 12 13  1  0
 13 14  1  0
 14 15  1  0
 15 16  2  0
 16 17  1  0
 17 18  2  0
 18 19  1  0
 18 20  1  0
 20 21  2  0
 21 22  1  0
 22 23  2  0
 23 24  1  0
 24 25  2  0
 13  5  1  0
 25 15  1  0
 12  7  1  0
 25 20  1  0
A    1
 O1 
A    2
 C1 
A    3
 C2 
A    4
 N1 
A    5
 C3 
A    6
 N2 
A    7
 C4 
A    8
 C5 
A    9
 C6 
A   10
 C7 
A   11
 C8 
A   12
 C9 
A   13
 N3 
A   14
 C10
A   15
 C11
A   16
 C12
A   17
 C13
A   18
 C14
A   19
 F1 
A   20
 C15
A   21
 C16
A   22
 C17
A   23
 C18
A   24
 N4 
A   25
 C19
M  END
>  <ref_pdb>  (1136) 
Ax0310a

>  <ref_mols>  (1136) 
Ax0446a,Ax1080a,Ax0812a,Ax0719a,Ax1140a,Ax0528a,Ax0310a

>  <original SMILES>  (1136) 
OCCNc1nc2ccccc2n1Cc1ccc(F)c2cccnc12

>  <rationale>  (1136) 
info info set:screening_whole;halogenbond:S105; hbond:S87+G127+E85; hydroph_interaction:Y90; pistack:H21; 

>  <experiment>  (1136) 
screening_whole

>  <cluster_label>  (1136) 
3

>  <cluster_rank>  (1136) 
793

>  <N_interactions>  (1136) 
7

>  <∆∆G>  (1136) 
-2.289695

>  <comRMSD>  (1136) 
0.842921

>  <ROCS_TanimotoCombo>  (1136) 
0.455

>  <ROCS_ShapeTanimoto>  (1136) 
0.258

>  <ROCS_ColorTanimoto>  (1136) 
0.197

$$$$
EN300_28292586
     RDKit          3D

 22 24  0  0  0  0  0  0  0  0999 V2000
   35.2823   10.7015    4.8228 O   0  0  0  0  0  0  0  0  0  0  0  0
   34.5972   11.6773    5.1458 C   0  0  0  0  0  0  0  0  0  0  0  0
   33.4126   11.5861    5.8360 N   0  0  0  0  0  0  0  0  0  0  0  0
   32.9222   10.3879    6.3055 C   0  0  0  0  0  0  0  0  0  0  0  0
   32.0080   10.3777    7.3229 C   0  0  2  0  0  0  0  0  0  0  0  0
   31.6138    9.1015    7.7817 C   0  0  0  0  0  0  0  0  0  0  0  0
   31.8637    8.0573    7.2277 O   0  0  0  0  0  0  0  0  0  0  0  0
   30.9301    8.9981    8.9326 O   0  0  0  0  0  0  0  0  0  0  0  0
   30.8497   11.1385    6.7875 C   0  0  0  0  0  0  0  0  0  0  0  0
   31.3713   12.3515    6.9173 C   0  0  2  0  0  0  0  0  0  0  0  0
   30.3345   13.2979    7.4302 C   0  0  0  0  0  0  0  0  0  0  0  0
   30.5774   13.8517    8.8631 C   0  0  0  0  0  0  0  0  0  0  0  0
   29.5344   14.8327    9.5609 C   0  0  0  0  0  0  0  0  0  0  0  0
   28.3615   15.0440    8.5109 C   0  0  0  0  0  0  0  0  0  0  0  0
   28.2750   14.4786    7.2395 C   0  0  0  0  0  0  0  0  0  0  0  0
   29.2057   13.6414    6.7026 C   0  0  0  0  0  0  0  0  0  0  0  0
   32.5280   12.7654    5.9956 C   0  0  0  0  0  0  0  0  0  0  0  0
   31.8480   11.6867    8.1404 C   0  0  0  0  0  0  0  0  0  0  0  0
   35.0392   13.0950    4.7618 C   0  0  0  0  0  0  0  0  0  0  0  0
   34.1018   13.7496    4.0230 F   0  0  0  0  0  0  0  0  0  0  0  0
   36.1803   13.0848    4.0143 F   0  0  0  0  0  0  0  0  0  0  0  0
   35.2897   13.8682    5.8550 F   0  0  0  0  0  0  0  0  0  0  0  0
  1  2  2  0
  2  3  1  0
  3  4  1  0
  4  5  1  0
  5  6  1  1
  6  7  2  0
  6  8  1  0
  5  9  1  0
  9 10  1  0
 10 11  1  1
 11 12  2  0
 12 13  1  0
 13 14  2  0
 14 15  1  0
 15 16  2  0
 10 17  1  0
 10 18  1  0
  2 19  1  0
 19 20  1  0
 19 21  1  0
 19 22  1  0
 17  3  1  0
 18  5  1  0
 16 11  1  0
A    1
 O1 
A    2
 C1 
A    3
 N1 
A    4
 C2 
A    5
 C3 
A    6
 C4 
A    7
 O2 
A    8
 O3 
A    9
 C5 
A   10
 C6 
A   11
 C7 
A   12
 C8 
A   13
 C9 
A   14
 C10
A   15
 C11
A   16
 C12
A   17
 C13
A   18
 C14
A   19
 C15
A   20
 F1 
A   21
 F2 
A   22
 F3 
M  END
>  <ref_pdb>  (1137) 
Ax0310a

>  <ref_mols>  (1137) 
Ax0446a,Ax1080a,Ax0812a,Ax0719a,Ax1140a,Ax0528a,Ax0310a

>  <original SMILES>  (1137) 
O=C(N1C[C@]2(C(=O)O)C[C@](c3ccccc3)(C1)C2)C(F)(F)F

>  <rationale>  (1137) 
info info set:bb_whole;hbond:S105; hydroph_interaction:P107+Y90; pistack:H21; 

>  <experiment>  (1137) 
bb_whole

>  <cluster_label>  (1137) 
3

>  <cluster_rank>  (1137) 
794

>  <N_interactions>  (1137) 
5

>  <∆∆G>  (1137) 
-0.306394

>  <comRMSD>  (1137) 
0.98038

>  <ROCS_TanimotoCombo>  (1137) 
0.411

>  <ROCS_ShapeTanimoto>  (1137) 
0.267

>  <ROCS_ColorTanimoto>  (1137) 
0.144

$$$$
EN300_371995
     RDKit          3D

 13 14  0  0  0  0  0  0  0  0999 V2000
   30.3669   13.1776    8.9020 N   0  0  0  0  0  0  0  0  0  0  0  0
   30.0589   12.3701    7.4734 S   0  0  0  0  0  6  0  0  0  0  0  0
   28.7458   11.8093    7.5320 O   0  0  0  0  0  0  0  0  0  0  0  0
   30.3775   13.3201    6.4421 O   0  0  0  0  0  0  0  0  0  0  0  0
   31.1302   11.0894    7.1912 C   0  0  0  0  0  0  0  0  0  0  0  0
   31.0218    9.6558    7.5818 C   0  0  0  0  0  0  0  0  0  0  0  0
   32.0627    8.9660    7.1244 N   0  0  0  0  0  0  0  0  0  0  0  0
   32.8348    9.8879    6.4695 N   0  0  0  0  0  0  0  0  0  0  0  0
   34.0245    9.6771    5.7948 C   0  0  0  0  0  0  0  0  0  0  0  0
   34.7308   10.7214    5.1997 C   0  0  0  0  0  0  0  0  0  0  0  0
   34.2194   12.0049    5.2738 C   0  0  0  0  0  0  0  0  0  0  0  0
   33.0053   12.2308    5.9221 C   0  0  0  0  0  0  0  0  0  0  0  0
   32.3046   11.1767    6.5202 C   0  0  0  0  0  0  0  0  0  0  0  0
  1  2  1  0
  2  3  2  0
  2  4  2  0
  2  5  1  0
  5  6  1  0
  6  7  2  0
  7  8  1  0
  8  9  1  0
  9 10  2  0
 10 11  1  0
 11 12  2  0
 12 13  1  0
 13  5  2  0
 13  8  1  0
A    1
 N1 
A    2
 S1 
A    3
 O1 
A    4
 O2 
A    5
 C1 
A    6
 C2 
A    7
 N2 
A    8
 N3 
A    9
 C3 
A   10
 C4 
A   11
 C5 
A   12
 C6 
A   13
 C7 
M  END
>  <ref_pdb>  (1138) 
Ax0310a

>  <ref_mols>  (1138) 
Ax0446a,Ax1080a,Ax0812a,Ax0719a,Ax1140a,Ax0528a,Ax0310a

>  <original SMILES>  (1138) 
NS(=O)(=O)c1cnn2ccccc12

>  <rationale>  (1138) 
info info set:sulfonimide_whole;hbond:S125; 

>  <experiment>  (1138) 
sulfonimide_whole

>  <cluster_label>  (1138) 
3

>  <cluster_rank>  (1138) 
795

>  <N_interactions>  (1138) 
1

>  <∆∆G>  (1138) 
-4.00611

>  <comRMSD>  (1138) 
0.663802

>  <ROCS_TanimotoCombo>  (1138) 
0.338

>  <ROCS_ShapeTanimoto>  (1138) 
0.197

>  <ROCS_ColorTanimoto>  (1138) 
0.141

$$$$
Z1550986036
     RDKit          3D

 18 19  0  0  0  0  0  0  0  0999 V2000
   30.7538    8.7745    8.0959 C   0  0  0  0  0  0  0  0  0  0  0  0
   31.7533    9.4662    7.2150 C   0  0  0  0  0  0  0  0  0  0  0  0
   32.6746    8.7480    6.5345 N   0  0  0  0  0  0  0  0  0  0  0  0
   33.5398    9.4424    5.7771 C   0  0  0  0  0  0  0  0  0  0  0  0
   34.4555    8.7075    5.0988 O   0  0  0  0  0  0  0  0  0  0  0  0
   33.5439   10.8285    5.6593 C   0  0  0  0  0  0  0  0  0  0  0  0
   32.5911   11.5372    6.3582 C   0  0  0  0  0  0  0  0  0  0  0  0
   31.6960   10.8187    7.1327 C   0  0  0  0  0  0  0  0  0  0  0  0
   30.6490   11.4142    7.9022 C   0  0  0  0  0  0  0  0  0  0  0  0
   30.2890   10.8410    8.8820 O   0  0  0  0  0  0  0  0  0  0  0  0
   30.0960   12.5368    7.4313 N   0  0  0  0  0  0  0  0  0  0  0  0
   28.8493   12.9357    7.9836 C   0  0  0  0  0  0  0  0  0  0  0  0
   29.0888   14.3274    8.2692 C   0  0  0  0  0  0  0  0  0  0  0  0
   28.3517   15.2733    7.6434 N   0  0  0  0  0  0  0  0  0  0  0  0
   28.8568   16.3567    8.1422 C   0  0  0  0  0  0  0  0  0  0  0  0
   29.8460   16.2034    9.0227 O   0  0  0  0  0  0  0  0  0  0  0  0
   30.0029   14.8954    9.1111 C   0  0  0  0  0  0  0  0  0  0  0  0
   31.0450   14.4607   10.0222 C   0  0  0  0  0  0  0  0  0  0  0  0
  1  2  1  0
  2  3  2  0
  3  4  1  0
  4  5  1  0
  4  6  2  0
  6  7  1  0
  7  8  2  0
  8  9  1  0
  9 10  2  0
  9 11  1  0
 11 12  1  0
 12 13  1  0
 13 14  1  0
 14 15  2  0
 15 16  1  0
 16 17  1  0
 17 18  1  0
  8  2  1  0
 17 13  2  0
A    1
 C1 
A    2
 C2 
A    3
 N1 
A    4
 C3 
A    5
 O1 
A    6
 C4 
A    7
 C5 
A    8
 C6 
A    9
 C7 
A   10
 O2 
A   11
 N2 
A   12
 C8 
A   13
 C9 
A   14
 N3 
A   15
 C10
A   16
 O3 
A   17
 C11
A   18
 C12
M  END
>  <ref_pdb>  (1139) 
Ax0310a

>  <ref_mols>  (1139) 
Ax0446a,Ax1080a,Ax0812a,Ax0719a,Ax1140a,Ax0528a,Ax0310a

>  <original SMILES>  (1139) 
Cc1nc(O)ccc1C(=O)NCc1ncoc1C

>  <rationale>  (1139) 
info info set:screening_pocket;hydroph_interaction:T126; 

>  <experiment>  (1139) 
screening_pocket

>  <cluster_label>  (1139) 
3

>  <cluster_rank>  (1139) 
796

>  <N_interactions>  (1139) 
1

>  <∆∆G>  (1139) 
-4.650065

>  <comRMSD>  (1139) 
0.570876

>  <ROCS_TanimotoCombo>  (1139) 
0.653

>  <ROCS_ShapeTanimoto>  (1139) 
0.241

>  <ROCS_ColorTanimoto>  (1139) 
0.412

$$$$
Z18532293
     RDKit          3D

 14 14  0  0  0  0  0  0  0  0999 V2000
   28.7138   15.8742    7.9861 N   0  0  0  0  0  0  0  0  0  0  0  0
   28.4312   14.4855    7.7388 C   0  0  0  0  0  0  0  0  0  0  0  0
   29.2867   13.5322    8.5765 C   0  0  0  0  0  0  0  0  0  0  0  0
   30.3131   13.0507    7.6675 O   0  0  0  0  0  0  0  0  0  0  0  0
   30.5326   11.7359    7.8517 C   0  0  0  0  0  0  0  0  0  0  0  0
   29.8732   10.9326    8.7885 O   0  0  0  0  0  0  0  0  0  0  0  0
   31.5253   10.9925    7.0463 C   0  0  0  0  0  0  0  0  0  0  0  0
   32.2128   11.8770    6.0251 C   0  0  0  0  0  0  0  0  0  0  0  0
   33.2409   11.0844    5.1885 C   0  0  0  0  0  0  0  0  0  0  0  0
   34.1103   11.9243    3.9744 Cl  0  0  0  0  0  0  0  0  0  0  0  0
   33.5485    9.6033    5.3581 C   0  0  0  0  0  0  0  0  0  0  0  0
   32.7212    8.9544    6.4569 C   0  0  0  0  0  0  0  0  0  0  0  0
   31.7198    9.6788    7.2732 C   0  0  0  0  0  0  0  0  0  0  0  0
   31.0036    8.9694    8.2673 O   0  0  0  0  0  0  0  0  0  0  0  0
  1  2  3  0
  2  3  1  0
  3  4  1  0
  4  5  1  0
  5  6  2  0
  5  7  1  0
  7  8  2  0
  8  9  1  0
  9 10  1  0
  9 11  2  0
 11 12  1  0
 12 13  2  0
 13 14  1  0
 13  7  1  0
A    1
 N1 
A    2
 C1 
A    3
 C2 
A    4
 O1 
A    5
 C3 
A    6
 O2 
A    7
 C4 
A    8
 C5 
A    9
 C6 
A   10
CL1 
A   11
 C7 
A   12
 C8 
A   13
 C9 
A   14
 O3 
M  END
>  <ref_pdb>  (1140) 
Ax0310a

>  <ref_mols>  (1140) 
Ax0446a,Ax1080a,Ax0812a,Ax0719a,Ax1140a,Ax0528a,Ax0310a

>  <original SMILES>  (1140) 
N#CCOC(=O)c1cc(Cl)ccc1O

>  <rationale>  (1140) 
info info set:screening_pocket;hbond:S87+Y90; hydroph_interaction:P107; 

>  <experiment>  (1140) 
screening_pocket

>  <cluster_label>  (1140) 
3

>  <cluster_rank>  (1140) 
797

>  <N_interactions>  (1140) 
4

>  <∆∆G>  (1140) 
-3.288867

>  <comRMSD>  (1140) 
0.507715

>  <ROCS_TanimotoCombo>  (1140) 
0.627

>  <ROCS_ShapeTanimoto>  (1140) 
0.229

>  <ROCS_ColorTanimoto>  (1140) 
0.398

$$$$
EN300_43913
     RDKit          3D

 14 14  0  0  0  0  0  0  0  0999 V2000
   30.4621    7.8668    8.5184 C   0  0  0  0  0  0  0  0  0  0  0  0
   31.5308    7.8643    7.5791 O   0  0  0  0  0  0  0  0  0  0  0  0
   31.8426    9.1135    7.2738 C   0  0  0  0  0  0  0  0  0  0  0  0
   32.9427    9.6282    6.3875 C   0  0  0  0  0  0  0  0  0  0  0  0
   33.0694   11.0022    6.2828 C   0  0  0  0  0  0  0  0  0  0  0  0
   32.1911   11.8038    6.9752 C   0  0  0  0  0  0  0  0  0  0  0  0
   32.2404   13.1210    6.9870 N   0  0  0  0  0  0  0  0  0  0  0  0
   33.1434   13.7423    8.2689 S   0  0  0  0  0  6  0  0  0  0  0  0
   34.4348   14.5630    7.3511 C   0  0  0  0  0  0  0  0  0  0  0  0
   33.7941   12.7065    8.9760 O   0  0  0  0  0  0  0  0  0  0  0  0
   32.2800   14.6280    9.0130 O   0  0  0  0  0  0  0  0  0  0  0  0
   31.1502   11.3183    7.7668 C   0  0  0  0  0  0  0  0  0  0  0  0
   30.2790   12.2330    8.4135 N   0  0  0  0  0  0  0  0  0  0  0  0
   30.9894    9.9705    7.9155 C   0  0  0  0  0  0  0  0  0  0  0  0
  1  2  1  0
  2  3  1  0
  3  4  2  0
  4  5  1  0
  5  6  2  0
  6  7  1  0
  7  8  1  0
  8  9  1  0
  8 10  2  0
  8 11  2  0
  6 12  1  0
 12 13  1  0
 12 14  2  0
 14  3  1  0
A    1
 C1 
A    2
 O1 
A    3
 C2 
A    4
 C3 
A    5
 C4 
A    6
 C5 
A    7
 N1 
A    8
 S1 
A    9
 C6 
A   10
 O2 
A   11
 O3 
A   12
 C7 
A   13
 N2 
A   14
 C8 
M  END
>  <ref_pdb>  (1141) 
Ax0310a

>  <ref_mols>  (1141) 
Ax0446a,Ax1080a,Ax0812a,Ax0719a,Ax1140a,Ax0528a,Ax0310a

>  <original SMILES>  (1141) 
COc1ccc(NS(C)(=O)=O)c(N)c1

>  <rationale>  (1141) 
info info set:sulfonimide_whole;hbond:S87+S125+G127; 

>  <experiment>  (1141) 
sulfonimide_whole

>  <cluster_label>  (1141) 
3

>  <cluster_rank>  (1141) 
798

>  <N_interactions>  (1141) 
3

>  <∆∆G>  (1141) 
-8.153457

>  <comRMSD>  (1141) 
0.58747

>  <ROCS_TanimotoCombo>  (1141) 
0.333

>  <ROCS_ShapeTanimoto>  (1141) 
0.188

>  <ROCS_ColorTanimoto>  (1141) 
0.145

$$$$
EN300_761136
     RDKit          3D

 12 12  0  0  0  0  0  0  0  0999 V2000
   29.7633   11.4337    7.8221 C   0  0  0  0  0  0  0  0  0  0  0  0
   31.1584   11.1434    7.5535 C   0  0  1  0  0  0  0  0  0  0  0  0
   31.9499   12.2223    7.9061 C   0  0  0  0  0  0  0  0  0  0  0  0
   30.8666   13.6141    8.1451 S   0  0  0  0  0  6  0  0  0  0  0  0
   29.5259   13.2551    9.0263 N   0  0  0  0  0  0  0  0  0  0  0  0
   30.1825   13.7971    6.8914 O   0  0  0  0  0  0  0  0  0  0  0  0
   31.4967   14.6291    8.9565 O   0  0  0  0  0  0  0  0  0  0  0  0
   31.2250    9.6536    7.9655 C   0  0  0  0  0  0  0  0  0  0  0  0
   32.2386    8.8624    7.3508 O   0  0  0  0  0  0  0  0  0  0  0  0
   32.8468    9.4805    6.2000 C   0  0  0  0  0  0  0  0  0  0  0  0
   32.5687   10.7679    5.7982 C   0  0  0  0  0  0  0  0  0  0  0  0
   31.2536   11.1430    6.1497 O   0  0  0  0  0  0  0  0  0  0  0  0
  2  1  1  6
  2  3  1  0
  3  4  1  0
  4  5  1  0
  4  6  2  0
  4  7  2  0
  2  8  1  0
  8  9  1  0
  9 10  1  0
 10 11  1  0
 11 12  1  0
 12  2  1  0
A    1
 C1 
A    2
 C2 
A    3
 C3 
A    4
 S1 
A    5
 N1 
A    6
 O1 
A    7
 O2 
A    8
 C4 
A    9
 O3 
A   10
 C5 
A   11
 C6 
A   12
 O4 
M  END
>  <ref_pdb>  (1142) 
Ax0310a

>  <ref_mols>  (1142) 
Ax0446a,Ax1080a,Ax0812a,Ax0719a,Ax1140a,Ax0528a,Ax0310a

>  <original SMILES>  (1142) 
C[C@@]1(CS(N)(=O)=O)COCCO1

>  <rationale>  (1142) 
info info set:sulfonimide_whole;hbond:S87+S125; 

>  <experiment>  (1142) 
sulfonimide_whole

>  <cluster_label>  (1142) 
3

>  <cluster_rank>  (1142) 
799

>  <N_interactions>  (1142) 
2

>  <∆∆G>  (1142) 
-1.014114

>  <comRMSD>  (1142) 
0.836162

>  <ROCS_TanimotoCombo>  (1142) 
0.349

>  <ROCS_ShapeTanimoto>  (1142) 
0.16

>  <ROCS_ColorTanimoto>  (1142) 
0.189

$$$$
Z291973442
     RDKit          3D

 16 17  0  0  0  0  0  0  0  0999 V2000
   34.2175    9.0196    5.1221 C   0  0  0  0  0  0  0  0  0  0  0  0
   33.1523    9.5625    6.0305 C   0  0  0  0  0  0  0  0  0  0  0  0
   32.9960   10.8484    6.6589 C   0  0  0  0  0  0  0  0  0  0  0  0
   31.8595   10.8185    7.3898 C   0  0  0  0  0  0  0  0  0  0  0  0
   31.4426   11.8482    8.1136 C   0  0  0  0  0  0  0  0  0  0  0  0
   31.3448   13.3717    7.4577 S   0  0  0  0  0  6  0  0  0  0  0  0
   31.2199   14.2836    8.5855 O   0  0  0  0  0  0  0  0  0  0  0  0
   30.4074   13.3387    6.3609 O   0  0  0  0  0  0  0  0  0  0  0  0
   33.0079   13.5286    6.8062 C   0  0  0  0  0  0  0  0  0  0  0  0
   33.2495   13.2342    5.4698 C   0  0  0  0  0  0  0  0  0  0  0  0
   34.5452   13.3663    4.9656 C   0  0  0  0  0  0  0  0  0  0  0  0
   35.5914   13.7932    5.7939 C   0  0  0  0  0  0  0  0  0  0  0  0
   35.3367   14.0848    7.1401 C   0  0  0  0  0  0  0  0  0  0  0  0
   34.0499   13.9525    7.6493 C   0  0  0  0  0  0  0  0  0  0  0  0
   31.2447    9.6308    7.3043 N   0  0  0  0  0  0  0  0  0  0  0  0
   32.0245    8.8089    6.4594 O   0  0  0  0  0  0  0  0  0  0  0  0
  1  2  1  0
  2  3  2  0
  3  4  1  0
  4  5  1  0
  5  6  1  0
  6  7  2  0
  6  8  2  0
  6  9  1  0
  9 10  2  0
 10 11  1  0
 11 12  2  0
 12 13  1  0
 13 14  2  0
  4 15  2  0
 15 16  1  0
 16  2  1  0
 14  9  1  0
A    1
 C1 
A    2
 C2 
A    3
 C3 
A    4
 C4 
A    5
 C5 
A    6
 S1 
A    7
 O1 
A    8
 O2 
A    9
 C6 
A   10
 C7 
A   11
 C8 
A   12
 C9 
A   13
 C10
A   14
 C11
A   15
 N1 
A   16
 O3 
M  END
>  <ref_pdb>  (1143) 
Ax0310a

>  <ref_mols>  (1143) 
Ax0446a,Ax1080a,Ax0812a,Ax0719a,Ax1140a,Ax0528a,Ax0310a

>  <original SMILES>  (1143) 
Cc1cc(CS(=O)(=O)c2ccccc2)no1

>  <rationale>  (1143) 
info info set:3d;hydroph_interaction:V84; 

>  <experiment>  (1143) 
3d

>  <cluster_label>  (1143) 
3

>  <cluster_rank>  (1143) 
800

>  <N_interactions>  (1143) 
1

>  <∆∆G>  (1143) 
-3.213474

>  <comRMSD>  (1143) 
0.878077

>  <ROCS_TanimotoCombo>  (1143) 
0.325

>  <ROCS_ShapeTanimoto>  (1143) 
0.179

>  <ROCS_ColorTanimoto>  (1143) 
0.146

$$$$
EN300_128419
     RDKit          3D

 13 13  0  0  0  0  0  0  0  0999 V2000
   34.2802   13.8842    7.3763 C   0  0  0  0  0  0  0  0  0  0  0  0
   34.0507   12.9967    6.2709 O   0  0  0  0  0  0  0  0  0  0  0  0
   32.7356   12.7759    5.9477 C   0  0  0  0  0  0  0  0  0  0  0  0
   32.1930   11.6689    6.6165 C   0  0  0  0  0  0  0  0  0  0  0  0
   32.7195   10.4032    6.3513 C   0  0  0  0  0  0  0  0  0  0  0  0
   32.1787    9.1522    7.0352 C   0  0  0  0  0  0  0  0  0  0  0  0
   31.0594    9.3916    8.0025 C   0  0  0  0  0  0  0  0  0  0  0  0
   30.6161   10.6823    8.1880 C   0  0  0  0  0  0  0  0  0  0  0  0
   31.1317   11.7928    7.5420 C   0  0  0  0  0  0  0  0  0  0  0  0
   30.4171   13.3704    7.9017 S   0  0  0  0  0  6  0  0  0  0  0  0
   29.0755   13.1292    8.8423 N   0  0  0  0  0  0  0  0  0  0  0  0
   29.8222   13.8358    6.6746 O   0  0  0  0  0  0  0  0  0  0  0  0
   31.3300   14.1521    8.7097 O   0  0  0  0  0  0  0  0  0  0  0  0
  1  2  1  0
  2  3  1  0
  3  4  1  0
  4  5  2  0
  5  6  1  0
  6  7  2  0
  7  8  1  0
  8  9  2  0
  9 10  1  0
 10 11  1  0
 10 12  2  0
 10 13  2  0
  9  4  1  0
A    1
 C1 
A    2
 O1 
A    3
 C2 
A    4
 C3 
A    5
 C4 
A    6
 C5 
A    7
 C6 
A    8
 C7 
A    9
 C8 
A   10
 S1 
A   11
 N1 
A   12
 O2 
A   13
 O3 
M  END
>  <ref_pdb>  (1144) 
Ax0310a

>  <ref_mols>  (1144) 
Ax0446a,Ax1080a,Ax0812a,Ax0719a,Ax1140a,Ax0528a,Ax0310a

>  <original SMILES>  (1144) 
COCc1ccccc1S(N)(=O)=O

>  <rationale>  (1144) 
info info set:sulfonimide_whole;hbond:S87+S125; 

>  <experiment>  (1144) 
sulfonimide_whole

>  <cluster_label>  (1144) 
3

>  <cluster_rank>  (1144) 
801

>  <N_interactions>  (1144) 
2

>  <∆∆G>  (1144) 
-7.013648

>  <comRMSD>  (1144) 
0.460976

>  <ROCS_TanimotoCombo>  (1144) 
0.336

>  <ROCS_ShapeTanimoto>  (1144) 
0.193

>  <ROCS_ColorTanimoto>  (1144) 
0.143

$$$$
Z275129290
     RDKit          3D

 13 14  0  0  0  0  0  0  0  0999 V2000
   34.0425   13.3768    5.7498 O   0  0  0  0  0  0  0  0  0  0  0  0
   34.0725   12.1926    5.9775 C   0  0  0  0  0  0  0  0  0  0  0  0
   35.1567   11.4682    5.7203 O   0  0  0  0  0  0  0  0  0  0  0  0
   32.9826   11.3580    6.5301 C   0  0  0  0  0  0  0  0  0  0  0  0
   31.9183   11.7671    7.5464 C   0  0  0  0  0  0  0  0  0  0  0  0
   31.6943   12.9569    8.2388 N   0  0  0  0  0  0  0  0  0  0  0  0
   32.6790   13.7185    8.8496 C   0  0  0  0  0  0  0  0  0  0  0  0
   32.1384   14.7521    9.4408 N   0  0  0  0  0  0  0  0  0  0  0  0
   30.7988   14.6616    9.2001 N   0  0  0  0  0  0  0  0  0  0  0  0
   30.5168   13.5917    8.4794 N   0  0  0  0  0  0  0  0  0  0  0  0
   31.1052   10.6765    7.7414 N   0  0  0  0  0  0  0  0  0  0  0  0
   31.5698    9.6467    7.1600 N   0  0  0  0  0  0  0  0  0  0  0  0
   32.6998    9.9586    6.2340 C   0  0  0  0  0  0  0  0  0  0  0  0
  1  2  2  0
  2  3  1  0
  2  4  1  0
  4  5  2  0
  5  6  1  0
  6  7  1  0
  7  8  2  0
  8  9  1  0
  9 10  2  0
  5 11  1  0
 11 12  2  0
 12 13  1  0
 13  4  1  0
 10  6  1  0
A    1
 O1 
A    2
 C1 
A    3
 O2 
A    4
 C2 
A    5
 C3 
A    6
 N1 
A    7
 C4 
A    8
 N2 
A    9
 N3 
A   10
 N4 
A   11
 N5 
A   12
 N6 
A   13
 C5 
M  END
>  <ref_pdb>  (1145) 
Ax0310a

>  <ref_mols>  (1145) 
Ax0446a,Ax1080a,Ax0812a,Ax0719a,Ax1140a,Ax0528a,Ax0310a

>  <original SMILES>  (1145) 
O=C(O)C1=C(n2cnnn2)N=NC1

>  <rationale>  (1145) 
info info set:3d;hbond:S87; 

>  <experiment>  (1145) 
3d

>  <cluster_label>  (1145) 
3

>  <cluster_rank>  (1145) 
802

>  <N_interactions>  (1145) 
1

>  <∆∆G>  (1145) 
-0.730629

>  <comRMSD>  (1145) 
0.580226

>  <ROCS_TanimotoCombo>  (1145) 
0.323

>  <ROCS_ShapeTanimoto>  (1145) 
0.184

>  <ROCS_ColorTanimoto>  (1145) 
0.139

$$$$
EN300_1617180
     RDKit          3D

 16 16  0  0  0  0  0  0  0  0999 V2000
   33.4617   11.7358    2.8140 C   0  0  0  0  0  0  0  0  0  0  0  0
   34.1547   10.4282    3.0241 C   0  0  0  0  0  0  0  0  0  0  0  0
   33.6589    9.8186    4.2237 O   0  0  0  0  0  0  0  0  0  0  0  0
   33.9613   10.5058    5.3304 C   0  0  0  0  0  0  0  0  0  0  0  0
   35.0421   11.0216    5.5081 O   0  0  0  0  0  0  0  0  0  0  0  0
   32.8568   10.5705    6.2678 C   0  0  0  0  0  0  0  0  0  0  0  0
   32.3964    9.4350    6.8644 C   0  0  0  0  0  0  0  0  0  0  0  0
   31.2193    9.4352    7.8964 C   0  0  0  0  0  0  0  0  0  0  0  0
   30.7348    8.3808    8.5169 F   0  0  0  0  0  0  0  0  0  0  0  0
   30.6572   10.7380    8.1524 C   0  0  0  0  0  0  0  0  0  0  0  0
   31.2012   11.9387    7.4620 C   0  0  0  0  0  0  0  0  0  0  0  0
   30.3770   13.4791    7.8917 S   0  0  0  0  0  6  0  0  0  0  0  0
   29.0653   13.0964    8.8397 N   0  0  0  0  0  0  0  0  0  0  0  0
   31.2681   14.2669    8.7170 O   0  0  0  0  0  0  0  0  0  0  0  0
   29.7383   13.9255    6.6849 O   0  0  0  0  0  0  0  0  0  0  0  0
   32.2654   11.8132    6.5602 C   0  0  0  0  0  0  0  0  0  0  0  0
  1  2  1  0
  2  3  1  0
  3  4  1  0
  4  5  2  0
  4  6  1  0
  6  7  2  0
  7  8  1  0
  8  9  1  0
  8 10  2  0
 10 11  1  0
 11 12  1  0
 12 13  1  0
 12 14  2  0
 12 15  2  0
 11 16  2  0
 16  6  1  0
A    1
 C1 
A    2
 C2 
A    3
 O1 
A    4
 C3 
A    5
 O2 
A    6
 C4 
A    7
 C5 
A    8
 C6 
A    9
 F1 
A   10
 C7 
A   11
 C8 
A   12
 S1 
A   13
 N1 
A   14
 O3 
A   15
 O4 
A   16
 C9 
M  END
>  <ref_pdb>  (1146) 
Ax0310a

>  <ref_mols>  (1146) 
Ax0446a,Ax1080a,Ax0812a,Ax0719a,Ax1140a,Ax0528a,Ax0310a

>  <original SMILES>  (1146) 
CCOC(=O)c1cc(F)cc(S(N)(=O)=O)c1

>  <rationale>  (1146) 
info info set:sulfonimide_whole;hbond:S87+S125; hydroph_interaction:P107; 

>  <experiment>  (1146) 
sulfonimide_whole

>  <cluster_label>  (1146) 
3

>  <cluster_rank>  (1146) 
803

>  <N_interactions>  (1146) 
3

>  <∆∆G>  (1146) 
-4.735735

>  <comRMSD>  (1146) 
0.479464

>  <ROCS_TanimotoCombo>  (1146) 
0.337

>  <ROCS_ShapeTanimoto>  (1146) 
0.194

>  <ROCS_ColorTanimoto>  (1146) 
0.143

$$$$
EN300_1269151
     RDKit          3D

 13 13  0  0  0  0  0  0  0  0999 V2000
   28.7069    8.8538    8.3123 C   0  0  0  0  0  0  0  0  0  0  0  0
   30.1435    9.0967    8.3249 C   0  0  0  0  0  0  0  0  0  0  0  0
   30.2240    8.9703    9.6916 C   0  0  0  0  0  0  0  0  0  0  0  0
   31.0813    8.0222    7.9977 C   0  0  0  0  0  0  0  0  0  0  0  0
   30.6587   10.4937    8.0200 C   0  0  0  0  0  0  0  0  0  0  0  0
   30.2258   11.4597    8.6301 O   0  0  0  0  0  0  0  0  0  0  0  0
   31.6619   10.6429    7.0156 C   0  0  0  0  0  0  0  0  0  0  0  0
   32.3035    9.6653    6.4322 N   0  0  0  0  0  0  0  0  0  0  0  0
   33.1833   10.1990    5.5087 C   0  0  0  0  0  0  0  0  0  0  0  0
   34.0260    9.2880    4.6942 C   0  0  0  0  0  0  0  0  0  0  0  0
   35.3904    9.4572    4.9458 O   0  0  0  0  0  0  0  0  0  0  0  0
   33.1846   11.5663    5.4293 C   0  0  0  0  0  0  0  0  0  0  0  0
   32.0611   12.2259    6.5259 S   0  0  0  0  0  0  0  0  0  0  0  0
  1  2  1  0
  2  3  1  0
  2  4  1  0
  2  5  1  0
  5  6  2  0
  5  7  1  0
  7  8  2  0
  8  9  1  0
  9 10  1  0
 10 11  1  0
  9 12  2  0
 12 13  1  0
 13  7  1  0
A    1
 C1 
A    2
 C2 
A    3
 C3 
A    4
 C4 
A    5
 C5 
A    6
 O1 
A    7
 C6 
A    8
 N1 
A    9
 C7 
A   10
 C8 
A   11
 O2 
A   12
 C9 
A   13
 S1 
M  END
>  <ref_pdb>  (1147) 
Ax0310a

>  <ref_mols>  (1147) 
Ax0446a,Ax1080a,Ax0812a,Ax0719a,Ax1140a,Ax0528a,Ax0310a

>  <original SMILES>  (1147) 
CC(C)(C)C(=O)c1nc(CO)cs1

>  <rationale>  (1147) 
info info set:bb_densepocket2;

>  <experiment>  (1147) 
bb_densepocket2

>  <cluster_label>  (1147) 
3

>  <cluster_rank>  (1147) 
804

>  <N_interactions>  (1147) 
0

>  <∆∆G>  (1147) 
-2.214062

>  <comRMSD>  (1147) 
0.871899

>  <ROCS_TanimotoCombo>  (1147) 
0.633

>  <ROCS_ShapeTanimoto>  (1147) 
0.197

>  <ROCS_ColorTanimoto>  (1147) 
0.436

$$$$
EN300_125768
     RDKit          3D

 13 13  0  0  0  0  0  0  0  0999 V2000
   34.4308   14.5363    7.3594 C   0  0  0  0  0  0  0  0  0  0  0  0
   33.1337   13.7242    8.2786 S   0  0  0  0  0  6  0  0  0  0  0  0
   33.8334   12.6530    8.8620 O   0  0  0  0  0  0  0  0  0  0  0  0
   32.3466   14.6199    9.1030 O   0  0  0  0  0  0  0  0  0  0  0  0
   32.2137   13.1307    7.0056 N   0  0  0  0  0  0  0  0  0  0  0  0
   32.0929   11.7212    7.0297 C   0  0  0  0  0  0  0  0  0  0  0  0
   33.0120   10.9674    6.3286 C   0  0  0  0  0  0  0  0  0  0  0  0
   33.0178    9.5948    6.2888 C   0  0  0  0  0  0  0  0  0  0  0  0
   33.9477    8.9474    5.5810 F   0  0  0  0  0  0  0  0  0  0  0  0
   31.9472    8.8670    7.0772 C   0  0  0  0  0  0  0  0  0  0  0  0
   30.9974    9.5748    7.7874 C   0  0  0  0  0  0  0  0  0  0  0  0
   31.0732   11.0964    7.7547 C   0  0  0  0  0  0  0  0  0  0  0  0
   30.0782   11.8831    8.4844 N   0  0  0  0  0  0  0  0  0  0  0  0
  1  2  1  0
  2  3  2  0
  2  4  2  0
  2  5  1  0
  5  6  1  0
  6  7  2  0
  7  8  1  0
  8  9  1  0
  8 10  2  0
 10 11  1  0
 11 12  2  0
 12 13  1  0
 12  6  1  0
A    1
 C1 
A    2
 S1 
A    3
 O1 
A    4
 O2 
A    5
 N1 
A    6
 C2 
A    7
 C3 
A    8
 C4 
A    9
 F1 
A   10
 C5 
A   11
 C6 
A   12
 C7 
A   13
 N2 
M  END
>  <ref_pdb>  (1148) 
Ax0310a

>  <ref_mols>  (1148) 
Ax0446a,Ax1080a,Ax0812a,Ax0719a,Ax1140a,Ax0528a,Ax0310a

>  <original SMILES>  (1148) 
CS(=O)(=O)Nc1cc(F)ccc1N

>  <rationale>  (1148) 
info info set:sulfonimide_whole;hbond:S87+S125+G127; 

>  <experiment>  (1148) 
sulfonimide_whole

>  <cluster_label>  (1148) 
3

>  <cluster_rank>  (1148) 
805

>  <N_interactions>  (1148) 
3

>  <∆∆G>  (1148) 
-5.481919

>  <comRMSD>  (1148) 
0.390015

>  <ROCS_TanimotoCombo>  (1148) 
0.332

>  <ROCS_ShapeTanimoto>  (1148) 
0.189

>  <ROCS_ColorTanimoto>  (1148) 
0.143

$$$$
Z1104870654
     RDKit          3D

 17 18  0  0  0  0  0  0  0  0999 V2000
   35.8523   11.5986    3.2636 C   0  0  0  0  0  0  0  0  0  0  0  0
   35.5395   11.4489    4.7194 C   0  0  1  0  0  0  0  0  0  0  0  0
   35.2512   12.6058    5.4706 C   0  0  0  0  0  0  0  0  0  0  0  0
   33.9115   12.9307    5.7026 C   0  0  0  0  0  0  0  0  0  0  0  0
   32.9341   11.9402    5.7748 C   0  0  2  0  0  0  0  0  0  0  0  0
   32.5988   11.3224    7.0812 C   0  0  0  0  0  0  0  0  0  0  0  0
   31.1977   10.9668    7.2802 N   0  0  0  0  0  0  0  0  0  0  0  0
   30.8364    9.7514    7.9033 C   0  0  0  0  0  0  0  0  0  0  0  0
   31.7080    8.7287    8.0085 N   0  0  0  0  0  0  0  0  0  0  0  0
   29.5265    9.6426    8.4039 C   0  0  0  0  0  0  0  0  0  0  0  0
   28.7261   10.7727    8.1997 C   0  0  0  0  0  0  0  0  0  0  0  0
   27.5747   10.7656    7.8938 O   0  0  0  0  0  0  0  0  0  0  0  0
   29.3898   11.9004    8.2845 N   0  0  0  0  0  0  0  0  0  0  0  0
   30.3554   12.0667    7.3706 C   0  0  0  0  0  0  0  0  0  0  0  0
   30.4168   13.0934    6.7016 O   0  0  0  0  0  0  0  0  0  0  0  0
   33.2289   10.7585    4.8572 C   0  0  0  0  0  0  0  0  0  0  0  0
   34.5266   10.3095    4.8883 C   0  0  0  0  0  0  0  0  0  0  0  0
  2  1  1  6
  2  3  1  0
  3  4  1  0
  4  5  1  0
  5  6  1  1
  6  7  1  0
  7  8  1  0
  8  9  1  0
  8 10  2  0
 10 11  1  0
 11 12  2  0
 11 13  1  0
 13 14  1  0
 14 15  2  0
  5 16  1  0
 16 17  1  0
 17  2  1  0
 14  7  1  0
A    1
 C1 
A    2
 C2 
A    3
 C3 
A    4
 C4 
A    5
 C5 
A    6
 C6 
A    7
 N1 
A    8
 C7 
A    9
 N2 
A   10
 C8 
A   11
 C9 
A   12
 O1 
A   13
 N3 
A   14
 C10
A   15
 O2 
A   16
 C11
A   17
 C12
M  END
>  <ref_pdb>  (1149) 
Ax0310a

>  <ref_mols>  (1149) 
Ax0446a,Ax1080a,Ax0812a,Ax0719a,Ax1140a,Ax0528a,Ax0310a

>  <original SMILES>  (1149) 
C[C@H]1CC[C@H](Cn2c(N)cc(=O)[nH]c2=O)CC1

>  <rationale>  (1149) 
info info set:3d;hbond:S105+S125; hydroph_interaction:P107; 

>  <experiment>  (1149) 
3d

>  <cluster_label>  (1149) 
3

>  <cluster_rank>  (1149) 
806

>  <N_interactions>  (1149) 
3

>  <∆∆G>  (1149) 
-2.020728

>  <comRMSD>  (1149) 
0.812373

>  <ROCS_TanimotoCombo>  (1149) 
0.312

>  <ROCS_ShapeTanimoto>  (1149) 
0.197

>  <ROCS_ColorTanimoto>  (1149) 
0.115

$$$$
Z45654206
     RDKit          3D

 17 18  0  0  0  0  0  0  0  0999 V2000
   35.9254   11.8607    4.7894 C   0  0  0  0  0  0  0  0  0  0  0  0
   34.6983   11.5357    5.5431 C   0  0  0  0  0  0  0  0  0  0  0  0
   34.1230   10.1638    5.3531 C   0  0  0  0  0  0  0  0  0  0  0  0
   32.9944    9.9056    6.0759 C   0  0  0  0  0  0  0  0  0  0  0  0
   32.3851   10.8520    6.9526 C   0  0  0  0  0  0  0  0  0  0  0  0
   30.9230   10.3988    7.7735 S   0  0  0  0  0  6  0  0  0  0  0  0
   30.6443    9.0759    7.3430 O   0  0  0  0  0  0  0  0  0  0  0  0
   30.7286   10.6659    9.0835 O   0  0  0  0  0  0  0  0  0  0  0  0
   30.0843   11.5992    6.9818 N   0  0  0  0  0  0  0  0  0  0  0  0
   29.7253   12.8667    7.5669 C   0  0  0  0  0  0  0  0  0  0  0  0
   28.3200   13.2769    7.1944 C   0  0  0  0  0  0  0  0  0  0  0  0
   27.7943   14.5802    7.6927 C   0  0  0  0  0  0  0  0  0  0  0  0
   28.7705   15.3712    8.5495 C   0  0  0  0  0  0  0  0  0  0  0  0
   30.1786   14.8125    8.8626 C   0  0  0  0  0  0  0  0  0  0  0  0
   30.5937   13.5216    8.3134 N   0  0  0  0  0  0  0  0  0  0  0  0
   32.9307   12.1237    7.1258 C   0  0  0  0  0  0  0  0  0  0  0  0
   34.0882   12.4629    6.4155 C   0  0  0  0  0  0  0  0  0  0  0  0
  1  2  1  0
  2  3  2  0
  3  4  1  0
  4  5  2  0
  5  6  1  0
  6  7  2  0
  6  8  2  0
  6  9  1  0
  9 10  1  0
 10 11  2  0
 11 12  1  0
 12 13  2  0
 13 14  1  0
 14 15  2  0
  5 16  1  0
 16 17  2  0
 17  2  1  0
 15 10  1  0
A    1
 C1 
A    2
 C2 
A    3
 C3 
A    4
 C4 
A    5
 C5 
A    6
 S1 
A    7
 O1 
A    8
 O2 
A    9
 N1 
A   10
 C6 
A   11
 C7 
A   12
 C8 
A   13
 C9 
A   14
 C10
A   15
 N2 
A   16
 C11
A   17
 C12
M  END
>  <ref_pdb>  (1150) 
Ax0310a

>  <ref_mols>  (1150) 
Ax0446a,Ax1080a,Ax0812a,Ax0719a,Ax1140a,Ax0528a,Ax0310a

>  <original SMILES>  (1150) 
Cc1ccc(S(=O)(=O)Nc2ccccn2)cc1

>  <rationale>  (1150) 
info info set:3d;hbond:S87; hydroph_interaction:Y89+Y90; 

>  <experiment>  (1150) 
3d

>  <cluster_label>  (1150) 
3

>  <cluster_rank>  (1150) 
807

>  <N_interactions>  (1150) 
3

>  <∆∆G>  (1150) 
-1.89366

>  <comRMSD>  (1150) 
0.654085

>  <ROCS_TanimotoCombo>  (1150) 
0.312

>  <ROCS_ShapeTanimoto>  (1150) 
0.217

>  <ROCS_ColorTanimoto>  (1150) 
0.095

$$$$
EN300_321464
     RDKit          3D

 11 11  0  0  0  0  0  0  0  0999 V2000
   35.6359   14.2534    8.4814 C   0  0  0  0  0  0  0  0  0  0  0  0
   34.6615   14.2796    7.4710 N   0  0  0  0  0  0  0  0  0  0  0  0
   33.3756   13.2400    7.7856 S   0  0  0  0  0  6  0  0  0  0  0  0
   32.1235   13.8919    7.6645 O   0  0  0  0  0  0  0  0  0  0  0  0
   33.7412   12.7144    9.0481 O   0  0  0  0  0  0  0  0  0  0  0  0
   33.3456   12.0168    6.4732 C   0  0  0  0  0  0  0  0  0  0  0  0
   32.5427   10.9463    6.8752 C   0  0  0  0  0  0  0  0  0  0  0  0
   31.3345   11.0969    7.7228 C   0  0  0  0  0  0  0  0  0  0  0  0
   30.9072    9.7711    7.8715 C   0  0  0  0  0  0  0  0  0  0  0  0
   31.7546    8.9450    7.1891 O   0  0  0  0  0  0  0  0  0  0  0  0
   32.7645    9.6913    6.5666 N   0  0  0  0  0  0  0  0  0  0  0  0
  1  2  1  0
  2  3  1  0
  3  4  2  0
  3  5  2  0
  3  6  1  0
  6  7  1  0
  7  8  1  0
  8  9  2  0
  9 10  1  0
 10 11  1  0
 11  7  2  0
A    1
 C1 
A    2
 N1 
A    3
 S1 
A    4
 O1 
A    5
 O2 
A    6
 C2 
A    7
 C3 
A    8
 C4 
A    9
 C5 
A   10
 O3 
A   11
 N2 
M  END
>  <ref_pdb>  (1151) 
Ax0310a

>  <ref_mols>  (1151) 
Ax0446a,Ax1080a,Ax0812a,Ax0719a,Ax1140a,Ax0528a,Ax0310a

>  <original SMILES>  (1151) 
CNS(=O)(=O)Cc1ccon1

>  <rationale>  (1151) 
info info set:sulfonimide_joint;hbond:S87+G127; 

>  <experiment>  (1151) 
sulfonimide_joint

>  <cluster_label>  (1151) 
3

>  <cluster_rank>  (1151) 
808

>  <N_interactions>  (1151) 
2

>  <∆∆G>  (1151) 
-5.080608

>  <comRMSD>  (1151) 
0.503898

>  <ROCS_TanimotoCombo>  (1151) 
0.31

>  <ROCS_ShapeTanimoto>  (1151) 
0.157

>  <ROCS_ColorTanimoto>  (1151) 
0.153

$$$$
EN300_803662
     RDKit          3D

 13 15  0  0  0  0  0  0  0  0999 V2000
   30.2354   11.7058    8.2555 N   0  0  0  0  0  0  0  0  0  0  0  0
   31.2493   11.0225    7.4688 C   0  0  0  0  0  0  0  0  0  0  0  0
   31.3316    9.5381    7.6524 C   0  0  0  0  0  0  0  0  0  0  0  0
   32.2052    8.7477    7.0107 N   0  0  0  0  0  0  0  0  0  0  0  0
   33.0178    9.4472    6.1608 C   0  0  0  0  0  0  0  0  0  0  0  0
   33.9838    8.8528    5.3976 N   0  0  0  0  0  0  0  0  0  0  0  0
   34.6826    9.8988    4.5923 C   0  0  0  0  0  0  0  0  0  0  0  0
   34.0715   11.0697    4.9356 C   0  0  0  0  0  0  0  0  0  0  0  0
   34.5002   12.4066    4.3098 C   0  0  0  0  0  0  0  0  0  0  0  0
   35.8500   12.7950    4.7293 C   0  0  0  0  0  0  0  0  0  0  0  0
   34.8451   13.4499    5.5236 C   0  0  0  0  0  0  0  0  0  0  0  0
   33.0431   10.8316    5.8986 C   0  0  0  0  0  0  0  0  0  0  0  0
   32.1210   11.6398    6.5849 C   0  0  0  0  0  0  0  0  0  0  0  0
  1  2  1  0
  2  3  2  0
  3  4  1  0
  4  5  2  0
  5  6  1  0
  6  7  1  0
  7  8  2  0
  8  9  1  0
  9 10  1  0
 10 11  1  0
  8 12  1  0
 12 13  2  0
 13  2  1  0
 12  5  1  0
 11  9  1  0
A    1
 N1 
A    2
 C1 
A    3
 C2 
A    4
 N2 
A    5
 C3 
A    6
 N3 
A    7
 C4 
A    8
 C5 
A    9
 C6 
A   10
 C7 
A   11
 C8 
A   12
 C9 
A   13
 C10
M  END
>  <ref_pdb>  (1152) 
Ax0310a

>  <ref_mols>  (1152) 
Ax0446a,Ax1080a,Ax0812a,Ax0719a,Ax1140a,Ax0528a,Ax0310a

>  <original SMILES>  (1152) 
Nc1cnc2[nH]cc(C3CC3)c2c1

>  <rationale>  (1152) 
info info set:bb_densepocket2;hbond:S105+S125; 

>  <experiment>  (1152) 
bb_densepocket2

>  <cluster_label>  (1152) 
3

>  <cluster_rank>  (1152) 
809

>  <N_interactions>  (1152) 
2

>  <∆∆G>  (1152) 
-4.700985

>  <comRMSD>  (1152) 
0.254026

>  <ROCS_TanimotoCombo>  (1152) 
0.611

>  <ROCS_ShapeTanimoto>  (1152) 
0.224

>  <ROCS_ColorTanimoto>  (1152) 
0.387

$$$$
EN300_1652942
     RDKit          3D

 11 12  0  0  0  0  0  0  0  0999 V2000
   35.1674    8.5953    4.4275 N   0  0  0  0  0  0  0  0  0  0  0  0
   34.2535    9.0351    4.9385 C   0  0  0  0  0  0  0  0  0  0  0  0
   33.2350    9.8360    5.6736 C   0  0  0  0  0  0  0  0  0  0  0  0
   33.0375   11.2771    5.2647 C   0  0  0  0  0  0  0  0  0  0  0  0
   32.0298   12.0759    6.0327 C   0  0  0  0  0  0  0  0  0  0  0  0
   31.3412   11.2484    7.1569 C   0  0  0  0  0  0  0  0  0  0  0  0
   30.3922   11.5469    8.0934 N   0  0  0  0  0  0  0  0  0  0  0  0
   30.0697   10.6112    8.8549 N   0  0  0  0  0  0  0  0  0  0  0  0
   30.7829    9.5796    8.4867 C   0  0  0  0  0  0  0  0  0  0  0  0
   31.6761    9.9168    7.3500 C   0  0  0  0  0  0  0  0  0  0  0  0
   32.5725    9.2005    6.6641 N   0  0  0  0  0  0  0  0  0  0  0  0
  1  2  1  0
  2  3  1  0
  3  4  2  0
  4  5  1  0
  5  6  2  0
  6  7  1  0
  7  8  1  0
  8  9  2  0
  9 10  1  0
 10 11  2  0
 11  3  1  0
 10  6  1  0
A    1
 N1 
A    2
 C1 
A    3
 C2 
A    4
 C3 
A    5
 C4 
A    6
 C5 
A    7
 N2 
A    8
 N3 
A    9
 C6 
A   10
 C7 
A   11
 N4 
M  END
>  <ref_pdb>  (1153) 
Ax0310a

>  <ref_mols>  (1153) 
Ax0446a,Ax1080a,Ax0812a,Ax0719a,Ax1140a,Ax0528a,Ax0310a

>  <original SMILES>  (1153) 
NCc1ccc2[nH]ncc2n1

>  <rationale>  (1153) 
info info set:bb_densepocket2;hbond:G127; hydroph_interaction:P107; 

>  <experiment>  (1153) 
bb_densepocket2

>  <cluster_label>  (1153) 
3

>  <cluster_rank>  (1153) 
810

>  <N_interactions>  (1153) 
2

>  <∆∆G>  (1153) 
-2.698247

>  <comRMSD>  (1153) 
0.838739

>  <ROCS_TanimotoCombo>  (1153) 
0.615

>  <ROCS_ShapeTanimoto>  (1153) 
0.192

>  <ROCS_ColorTanimoto>  (1153) 
0.423

$$$$
EN300_293018
     RDKit          3D

 15 16  0  0  0  0  0  0  0  0999 V2000
   29.9296   13.1708    8.8178 N   0  0  0  0  0  0  0  0  0  0  0  0
   31.3110   12.8519    7.9301 S   0  0  0  0  0  6  0  0  0  0  0  0
   31.0303   13.3967    6.6359 O   0  0  0  0  0  0  0  0  0  0  0  0
   32.4321   13.3019    8.7340 O   0  0  0  0  0  0  0  0  0  0  0  0
   31.3661   11.0879    7.7448 C   0  0  0  0  0  0  0  0  0  0  0  0
   30.5108   10.1629    8.4415 C   0  0  0  0  0  0  0  0  0  0  0  0
   30.8235    8.9006    8.0656 C   0  0  0  0  0  0  0  0  0  0  0  0
   31.8362    8.9314    7.1659 N   0  0  0  0  0  0  0  0  0  0  0  0
   32.1526   10.2874    6.9792 N   0  0  0  0  0  0  0  0  0  0  0  0
   33.1720   10.7006    6.1011 C   0  0  0  0  0  0  0  0  0  0  0  0
   34.1754    9.7669    5.5481 C   0  0  0  0  0  0  0  0  0  0  0  0
   35.1827   10.2055    4.6987 C   0  0  0  0  0  0  0  0  0  0  0  0
   35.2405   11.6247    4.3448 C   0  0  0  0  0  0  0  0  0  0  0  0
   34.2842   12.4738    4.8704 C   0  0  0  0  0  0  0  0  0  0  0  0
   33.2732   12.0442    5.7231 C   0  0  0  0  0  0  0  0  0  0  0  0
  1  2  1  0
  2  3  2  0
  2  4  2  0
  2  5  1  0
  5  6  2  0
  6  7  1  0
  7  8  2  0
  8  9  1  0
  9 10  1  0
 10 11  2  0
 11 12  1  0
 12 13  2  0
 13 14  1  0
 14 15  2  0
  9  5  1  0
 15 10  1  0
A    1
 N1 
A    2
 S1 
A    3
 O1 
A    4
 O2 
A    5
 C1 
A    6
 C2 
A    7
 C3 
A    8
 N2 
A    9
 N3 
A   10
 C4 
A   11
 C5 
A   12
 C6 
A   13
 C7 
A   14
 C8 
A   15
 C9 
M  END
>  <ref_pdb>  (1154) 
Ax0310a

>  <ref_mols>  (1154) 
Ax0446a,Ax1080a,Ax0812a,Ax0719a,Ax1140a,Ax0528a,Ax0310a

>  <original SMILES>  (1154) 
NS(=O)(=O)c1ccnn1-c1ccccc1

>  <rationale>  (1154) 
info info set:sulfonimide_whole;hbond:S125+G127; 

>  <experiment>  (1154) 
sulfonimide_whole

>  <cluster_label>  (1154) 
3

>  <cluster_rank>  (1154) 
811

>  <N_interactions>  (1154) 
2

>  <∆∆G>  (1154) 
-6.222333

>  <comRMSD>  (1154) 
0.709029

>  <ROCS_TanimotoCombo>  (1154) 
0.332

>  <ROCS_ShapeTanimoto>  (1154) 
0.204

>  <ROCS_ColorTanimoto>  (1154) 
0.128

$$$$
Z2732662714
     RDKit          3D

 14 15  0  0  0  0  0  0  0  0999 V2000
   28.7882   14.5758    7.9731 C   0  0  0  0  0  0  0  0  0  0  0  0
   29.5694   13.5035    7.4159 O   0  0  0  0  0  0  0  0  0  0  0  0
   30.7584   13.2410    8.0325 C   0  0  0  0  0  0  0  0  0  0  0  0
   31.3405   13.9791    8.8171 O   0  0  0  0  0  0  0  0  0  0  0  0
   31.2534   11.9832    7.6406 C   0  0  0  0  0  0  0  0  0  0  0  0
   30.6787   10.8064    8.1205 C   0  0  0  0  0  0  0  0  0  0  0  0
   31.2103    9.5900    7.7019 C   0  0  0  0  0  0  0  0  0  0  0  0
   32.2548    9.5049    6.8513 N   0  0  0  0  0  0  0  0  0  0  0  0
   32.8374   10.6504    6.3643 C   0  0  0  0  0  0  0  0  0  0  0  0
   33.9530   10.4229    5.4619 C   0  0  0  0  0  0  0  0  0  0  0  0
   34.9203   11.4419    5.4137 C   0  0  0  0  0  0  0  0  0  0  0  0
   35.0190   11.5077    3.9633 C   0  0  0  0  0  0  0  0  0  0  0  0
   33.8120   10.6060    3.8744 C   0  0  0  0  0  0  0  0  0  0  0  0
   32.3442   11.9036    6.7541 C   0  0  0  0  0  0  0  0  0  0  0  0
  1  2  1  0
  2  3  1  0
  3  4  2  0
  3  5  1  0
  5  6  2  0
  6  7  1  0
  7  8  2  0
  8  9  1  0
  9 10  1  0
 10 11  1  0
 11 12  1  0
 12 13  1  0
  9 14  2  0
 14  5  1  0
 13 10  1  0
A    1
 C1 
A    2
 O1 
A    3
 C2 
A    4
 O2 
A    5
 C3 
A    6
 C4 
A    7
 C5 
A    8
 N1 
A    9
 C6 
A   10
 C7 
A   11
 C8 
A   12
 C9 
A   13
 C10
A   14
 C11
M  END
>  <ref_pdb>  (1155) 
Ax0310a

>  <ref_mols>  (1155) 
Ax0446a,Ax1080a,Ax0812a,Ax0719a,Ax1140a,Ax0528a,Ax0310a

>  <original SMILES>  (1155) 
COC(=O)c1ccnc(C2CCC2)c1

>  <rationale>  (1155) 
info info set:3d;hbond:S87; hydroph_interaction:P107; 

>  <experiment>  (1155) 
3d

>  <cluster_label>  (1155) 
3

>  <cluster_rank>  (1155) 
812

>  <N_interactions>  (1155) 
2

>  <∆∆G>  (1155) 
-4.75708

>  <comRMSD>  (1155) 
0.629796

>  <ROCS_TanimotoCombo>  (1155) 
0.304

>  <ROCS_ShapeTanimoto>  (1155) 
0.199

>  <ROCS_ColorTanimoto>  (1155) 
0.105

$$$$
EN300_51207
     RDKit          3D

 14 14  0  0  0  0  0  0  0  0999 V2000
   33.9472   14.4042    9.3965 C   0  0  0  0  0  0  0  0  0  0  0  0
   33.5728   14.0371    8.0325 C   0  0  0  0  0  0  0  0  0  0  0  0
   33.9711   12.7361    7.7035 O   0  0  0  0  0  0  0  0  0  0  0  0
   33.5097   12.2972    6.4977 C   0  0  0  0  0  0  0  0  0  0  0  0
   33.9014   12.6296    5.3940 O   0  0  0  0  0  0  0  0  0  0  0  0
   32.3732   11.2938    6.8219 C   0  0  0  0  0  0  0  0  0  0  0  0
   33.0214   10.1100    6.6786 C   0  0  0  0  0  0  0  0  0  0  0  0
   32.1385    9.0623    7.0011 N   0  0  0  0  0  0  0  0  0  0  0  0
   30.9999    9.7805    7.2944 N   0  0  0  0  0  0  0  0  0  0  0  0
   31.1053   11.1458    7.1670 C   0  0  0  0  0  0  0  0  0  0  0  0
   29.8179   12.3159    7.4180 S   0  0  0  0  0  6  0  0  0  0  0  0
   30.0893   13.1320    8.8369 N   0  0  0  0  0  0  0  0  0  0  0  0
   28.5933   11.5996    7.4853 O   0  0  0  0  0  0  0  0  0  0  0  0
   30.0395   13.2658    6.3627 O   0  0  0  0  0  0  0  0  0  0  0  0
  1  2  1  0
  2  3  1  0
  3  4  1  0
  4  5  2  0
  4  6  1  0
  6  7  1  0
  7  8  2  0
  8  9  1  0
  9 10  1  0
 10 11  1  0
 11 12  1  0
 11 13  2  0
 11 14  2  0
 10  6  2  0
A    1
 C1 
A    2
 C2 
A    3
 O1 
A    4
 C3 
A    5
 O2 
A    6
 C4 
A    7
 C5 
A    8
 N1 
A    9
 N2 
A   10
 C6 
A   11
 S1 
A   12
 N3 
A   13
 O3 
A   14
 O4 
M  END
>  <ref_pdb>  (1156) 
Ax0310a

>  <ref_mols>  (1156) 
Ax0446a,Ax1080a,Ax0812a,Ax0719a,Ax1140a,Ax0528a,Ax0310a

>  <original SMILES>  (1156) 
CCOC(=O)c1cn[nH]c1S(N)(=O)=O

>  <rationale>  (1156) 
info info set:sulfonimide_whole;hbond:S125; hydroph_interaction:V84; 

>  <experiment>  (1156) 
sulfonimide_whole

>  <cluster_label>  (1156) 
3

>  <cluster_rank>  (1156) 
813

>  <N_interactions>  (1156) 
2

>  <∆∆G>  (1156) 
-4.345746

>  <comRMSD>  (1156) 
0.807958

>  <ROCS_TanimotoCombo>  (1156) 
0.343

>  <ROCS_ShapeTanimoto>  (1156) 
0.198

>  <ROCS_ColorTanimoto>  (1156) 
0.144

$$$$
Z5370419145
     RDKit          3D

 20 21  0  0  0  0  0  0  0  0999 V2000
   30.2670   10.8986    8.9217 O   0  0  0  0  0  0  0  0  0  0  0  0
   30.4499   11.2695    7.8195 C   0  0  0  0  0  0  0  0  0  0  0  0
   29.7663   12.1678    7.1121 O   0  0  0  0  0  0  0  0  0  0  0  0
   28.5707   12.4939    7.7651 C   0  0  0  0  0  0  0  0  0  0  0  0
   28.5073   13.9183    8.0213 C   0  0  0  0  0  0  0  0  0  0  0  0
   29.6707   14.5610    8.6566 C   0  0  0  0  0  0  0  0  0  0  0  0
   29.4379   15.8341    8.8119 N   0  0  0  0  0  0  0  0  0  0  0  0
   28.1809   16.0743    8.3183 O   0  0  0  0  0  0  0  0  0  0  0  0
   27.6102   14.8672    7.8216 C   0  0  0  0  0  0  0  0  0  0  0  0
   31.4315   10.7496    7.0538 C   0  0  0  0  0  0  0  0  0  0  0  0
   32.1317   11.5420    6.0384 C   0  0  0  0  0  0  0  0  0  0  0  0
   33.1647   10.7247    5.3004 C   0  0  0  0  0  0  0  0  0  0  0  0
   33.8257   11.5936    4.2416 C   0  0  0  0  0  0  0  0  0  0  0  0
   35.1686   11.6870    4.3839 F   0  0  0  0  0  0  0  0  0  0  0  0
   33.3309   12.8613    4.2484 F   0  0  0  0  0  0  0  0  0  0  0  0
   33.5995   11.1239    2.9847 F   0  0  0  0  0  0  0  0  0  0  0  0
   33.3756    9.4011    5.6199 C   0  0  0  0  0  0  0  0  0  0  0  0
   32.6722    8.7671    6.5898 N   0  0  0  0  0  0  0  0  0  0  0  0
   31.7259    9.4576    7.2647 C   0  0  0  0  0  0  0  0  0  0  0  0
   30.8512    8.6105    8.4619 Cl  0  0  0  0  0  0  0  0  0  0  0  0
  1  2  2  0
  2  3  1  0
  3  4  1  0
  4  5  1  0
  5  6  1  0
  6  7  2  0
  7  8  1  0
  8  9  1  0
  2 10  1  0
 10 11  2  0
 11 12  1  0
 12 13  1  0
 13 14  1  0
 13 15  1  0
 13 16  1  0
 12 17  2  0
 17 18  1  0
 18 19  2  0
 19 20  1  0
  9  5  2  0
 19 10  1  0
A    1
 O1 
A    2
 C1 
A    3
 O2 
A    4
 C2 
A    5
 C3 
A    6
 C4 
A    7
 N1 
A    8
 O3 
A    9
 C5 
A   10
 C6 
A   11
 C7 
A   12
 C8 
A   13
 C9 
A   14
 F1 
A   15
 F2 
A   16
 F3 
A   17
 C10
A   18
 N2 
A   19
 C11
A   20
CL1 
M  END
>  <ref_pdb>  (1157) 
Ax0310a

>  <ref_mols>  (1157) 
Ax0446a,Ax1080a,Ax0812a,Ax0719a,Ax1140a,Ax0528a,Ax0310a

>  <original SMILES>  (1157) 
O=C(OCc1cnoc1)c1cc(C(F)(F)F)cnc1Cl

>  <rationale>  (1157) 
info info set:screening_pocket;hbond:S87; hydroph_interaction:P107; 

>  <experiment>  (1157) 
screening_pocket

>  <cluster_label>  (1157) 
3

>  <cluster_rank>  (1157) 
814

>  <N_interactions>  (1157) 
2

>  <∆∆G>  (1157) 
-0.42511

>  <comRMSD>  (1157) 
0.802168

>  <ROCS_TanimotoCombo>  (1157) 
0.643

>  <ROCS_ShapeTanimoto>  (1157) 
0.252

>  <ROCS_ColorTanimoto>  (1157) 
0.391

$$$$
Z905143982
     RDKit          3D

 17 18  0  0  0  0  0  0  0  0999 V2000
   30.1436   13.3452    7.1997 C   0  0  0  0  0  0  0  0  0  0  0  0
   31.5388   12.8823    7.2249 N   0  0  0  0  0  0  0  0  0  0  0  0
   31.7379   11.5113    7.1410 C   0  0  0  0  0  0  0  0  0  0  0  0
   32.7891   10.9513    6.3971 C   0  0  0  0  0  0  0  0  0  0  0  0
   33.0086    9.5901    6.3203 C   0  0  0  0  0  0  0  0  0  0  0  0
   32.0573    8.7286    7.0886 C   0  0  0  0  0  0  0  0  0  0  0  0
   31.0094    9.0748    7.8348 C   0  0  0  0  0  0  0  0  0  0  0  0
   30.8115   10.5328    7.8791 C   0  0  0  0  0  0  0  0  0  0  0  0
   29.8255   11.0386    8.5620 F   0  0  0  0  0  0  0  0  0  0  0  0
   32.7220   13.5952    8.1898 S   0  0  0  0  0  6  0  0  0  0  0  0
   33.4930   12.6502    8.9040 O   0  0  0  0  0  0  0  0  0  0  0  0
   32.0651   14.6306    8.9504 O   0  0  0  0  0  0  0  0  0  0  0  0
   33.7789   14.0805    6.9650 C   0  0  0  0  0  0  0  0  0  0  0  0
   35.1166   14.7512    7.0702 C   0  0  0  0  0  0  0  0  0  0  0  0
   35.6033   14.9344    5.8068 N   0  0  0  0  0  0  0  0  0  0  0  0
   34.6612   14.7829    4.9616 N   0  0  0  0  0  0  0  0  0  0  0  0
   33.5828   13.9076    5.5222 C   0  0  0  0  0  0  0  0  0  0  0  0
  1  2  1  0
  2  3  1  0
  3  4  2  0
  4  5  1  0
  5  6  2  0
  6  7  1  0
  7  8  2  0
  8  9  1  0
  2 10  1  0
 10 11  2  0
 10 12  2  0
 10 13  1  0
 13 14  2  0
 14 15  1  0
 15 16  2  0
 16 17  1  0
  8  3  1  0
 17 13  1  0
A    1
 C1 
A    2
 N1 
A    3
 C2 
A    4
 C3 
A    5
 C4 
A    6
 C5 
A    7
 C6 
A    8
 C7 
A    9
 F1 
A   10
 S1 
A   11
 O1 
A   12
 O2 
A   13
 C8 
A   14
 C9 
A   15
 N2 
A   16
 N3 
A   17
 C10
M  END
>  <ref_pdb>  (1158) 
Ax0310a

>  <ref_mols>  (1158) 
Ax0446a,Ax1080a,Ax0812a,Ax0719a,Ax1140a,Ax0528a,Ax0310a

>  <original SMILES>  (1158) 
CN(c1ccccc1F)S(=O)(=O)C1=CN=NC1

>  <rationale>  (1158) 
info info set:3d;hbond:S87+G127; 

>  <experiment>  (1158) 
3d

>  <cluster_label>  (1158) 
3

>  <cluster_rank>  (1158) 
815

>  <N_interactions>  (1158) 
2

>  <∆∆G>  (1158) 
-3.499095

>  <comRMSD>  (1158) 
0.494983

>  <ROCS_TanimotoCombo>  (1158) 
0.314

>  <ROCS_ShapeTanimoto>  (1158) 
0.199

>  <ROCS_ColorTanimoto>  (1158) 
0.115

$$$$
Z229255230
     RDKit          3D

 27 31  0  0  0  0  0  0  0  0999 V2000
   35.6788   10.7535    4.2175 C   0  0  0  0  0  0  0  0  0  0  0  0
   34.3633   10.9492    4.9681 C   0  0  0  0  0  0  0  0  0  0  0  0
   33.9203    9.9205    5.7270 N   0  0  0  0  0  0  0  0  0  0  0  0
   32.7368   10.4602    6.2554 N   0  0  0  0  0  0  0  0  0  0  0  0
   32.4803   11.7615    5.8040 C   0  0  0  0  0  0  0  0  0  0  0  0
   31.3793   12.4959    6.1449 N   0  0  0  0  0  0  0  0  0  0  0  0
   30.6311   11.8870    6.9542 C   0  0  0  0  0  0  0  0  0  0  0  0
   28.9967   12.3764    7.3611 S   0  0  0  0  0  0  0  0  0  0  0  0
   29.1050   13.9713    7.8153 C   0  0  0  0  0  0  0  0  0  0  0  0
   28.3832   14.9584    7.3087 N   0  0  0  0  0  0  0  0  0  0  0  0
   28.8147   16.0397    8.0111 N   0  0  0  0  0  0  0  0  0  0  0  0
   29.7498   15.7182    8.8923 N   0  0  0  0  0  0  0  0  0  0  0  0
   29.9278   14.4258    8.7584 N   0  0  0  0  0  0  0  0  0  0  0  0
   30.8469   13.7088    9.5442 C   0  0  0  0  0  0  0  0  0  0  0  0
   32.3371   13.8590    9.1681 C   0  0  0  0  0  0  0  0  0  0  0  0
   33.2270   14.9551    9.6269 C   0  0  0  0  0  0  0  0  0  0  0  0
   34.6740   14.8698    9.1139 C   0  0  0  0  0  0  0  0  0  0  0  0
   34.3150   13.5738    8.3392 C   0  0  0  0  0  0  0  0  0  0  0  0
   33.0088   13.0980    8.4574 O   0  0  0  0  0  0  0  0  0  0  0  0
   30.9252   10.6397    7.5416 C   0  0  0  0  0  0  0  0  0  0  0  0
   30.1479   10.2078    8.5353 C   0  0  0  0  0  0  0  0  0  0  0  0
   30.1553    9.1165    9.1994 C   0  0  0  0  0  0  0  0  0  0  0  0
   31.0636    7.9839    9.0122 C   0  0  0  0  0  0  0  0  0  0  0  0
   31.9304    8.5852    7.8441 C   0  0  0  0  0  0  0  0  0  0  0  0
   31.8798    9.8652    7.1930 C   0  0  0  0  0  0  0  0  0  0  0  0
   33.5171   12.0746    4.9903 C   0  0  0  0  0  0  0  0  0  0  0  0
   33.7297   13.5397    4.1680 Cl  0  0  0  0  0  0  0  0  0  0  0  0
  1  2  1  0
  2  3  2  0
  3  4  1  0
  4  5  1  0
  5  6  1  0
  6  7  2  0
  7  8  1  0
  8  9  1  0
  9 10  2  0
 10 11  1  0
 11 12  2  0
 12 13  1  0
 13 14  1  0
 14 15  1  0
 15 16  2  0
 16 17  1  0
 17 18  2  0
 18 19  1  0
  7 20  1  0
 20 21  2  0
 21 22  1  0
 22 23  2  0
 23 24  1  0
 24 25  2  0
  5 26  2  0
 26 27  1  0
 26  2  1  0
 25  4  1  0
 13  9  1  0
 19 15  1  0
 25 20  1  0
A    1
 C1 
A    2
 C2 
A    3
 N1 
A    4
 N2 
A    5
 C3 
A    6
 N3 
A    7
 C4 
A    8
 S1 
A    9
 C5 
A   10
 N4 
A   11
 N5 
A   12
 N6 
A   13
 N7 
A   14
 C6 
A   15
 C7 
A   16
 C8 
A   17
 C9 
A   18
 C10
A   19
 O1 
A   20
 C11
A   21
 C12
A   22
 C13
A   23
 C14
A   24
 C15
A   25
 C16
A   26
 C17
A   27
CL1 
M  END
>  <ref_pdb>  (1159) 
Ax0310a

>  <ref_mols>  (1159) 
Ax0446a,Ax1080a,Ax0812a,Ax0719a,Ax1140a,Ax0528a,Ax0310a

>  <original SMILES>  (1159) 
Cc1nn2c(nc(Sc3nnnn3Cc3ccco3)c3ccccc32)c1Cl

>  <rationale>  (1159) 
info info set:screening_whole;hbond:S87+Y90; hydroph_interaction:V124+V84; pistack:H21; 

>  <experiment>  (1159) 
screening_whole

>  <cluster_label>  (1159) 
3

>  <cluster_rank>  (1159) 
816

>  <N_interactions>  (1159) 
5

>  <∆∆G>  (1159) 
-2.64533

>  <comRMSD>  (1159) 
0.883802

>  <ROCS_TanimotoCombo>  (1159) 
0.456

>  <ROCS_ShapeTanimoto>  (1159) 
0.299

>  <ROCS_ColorTanimoto>  (1159) 
0.157

$$$$
EN300_219561
     RDKit          3D

 15 16  0  0  0  0  0  0  0  0999 V2000
   34.8577   13.3134    4.8533 C   0  0  0  0  0  0  0  0  0  0  0  0
   34.3254   11.9454    5.2605 C   0  0  0  0  0  0  0  0  0  0  0  0
   35.1296   10.8279    4.8772 N   0  0  0  0  0  0  0  0  0  0  0  0
   34.3844    9.8086    5.3738 N   0  0  0  0  0  0  0  0  0  0  0  0
   34.8570    8.5768    5.1358 C   0  0  0  0  0  0  0  0  0  0  0  0
   33.2419   10.1637    6.0392 C   0  0  0  0  0  0  0  0  0  0  0  0
   32.3199    9.3543    6.6737 N   0  0  0  0  0  0  0  0  0  0  0  0
   31.2670   10.1057    7.1721 C   0  0  0  0  0  0  0  0  0  0  0  0
   31.1490   11.6009    7.0314 C   0  0  0  0  0  0  0  0  0  0  0  0
   29.7984   12.5597    7.5648 S   0  0  0  0  0  6  0  0  0  0  0  0
   30.2999   13.2659    8.9909 N   0  0  0  0  0  0  0  0  0  0  0  0
   29.6442   13.6408    6.6303 O   0  0  0  0  0  0  0  0  0  0  0  0
   28.7231   11.6650    7.7582 O   0  0  0  0  0  0  0  0  0  0  0  0
   32.1728   12.2348    6.4156 C   0  0  0  0  0  0  0  0  0  0  0  0
   33.2000   11.5249    5.9265 C   0  0  0  0  0  0  0  0  0  0  0  0
  1  2  1  0
  2  3  2  0
  3  4  1  0
  4  5  1  0
  4  6  1  0
  6  7  2  0
  7  8  1  0
  8  9  2  0
  9 10  1  0
 10 11  1  0
 10 12  2  0
 10 13  2  0
  9 14  1  0
 14 15  2  0
 15  2  1  0
 15  6  1  0
A    1
 C1 
A    2
 C2 
A    3
 N1 
A    4
 N2 
A    5
 C3 
A    6
 C4 
A    7
 N3 
A    8
 C5 
A    9
 C6 
A   10
 S1 
A   11
 N4 
A   12
 O1 
A   13
 O2 
A   14
 C7 
A   15
 C8 
M  END
>  <ref_pdb>  (1160) 
Ax0310a

>  <ref_mols>  (1160) 
Ax0446a,Ax1080a,Ax0812a,Ax0719a,Ax1140a,Ax0528a,Ax0310a

>  <original SMILES>  (1160) 
Cc1nn(C)c2ncc(S(N)(=O)=O)cc12

>  <rationale>  (1160) 
info info set:sulfonimide_whole;hbond:S87+S125; 

>  <experiment>  (1160) 
sulfonimide_whole

>  <cluster_label>  (1160) 
3

>  <cluster_rank>  (1160) 
817

>  <N_interactions>  (1160) 
2

>  <∆∆G>  (1160) 
-4.086067

>  <comRMSD>  (1160) 
0.787181

>  <ROCS_TanimotoCombo>  (1160) 
0.339

>  <ROCS_ShapeTanimoto>  (1160) 
0.198

>  <ROCS_ColorTanimoto>  (1160) 
0.141

$$$$
Z2650022241
     RDKit          3D

 18 19  0  0  0  0  0  0  0  0999 V2000
   26.8940   13.3517    5.7363 C   0  0  0  0  0  0  0  0  0  0  0  0
   28.2614   13.9866    5.8779 C   0  0  0  0  0  0  0  0  0  0  0  0
   28.5432   14.6329    7.0264 N   0  0  0  0  0  0  0  0  0  0  0  0
   28.6452   15.9760    7.1592 N   0  0  0  0  0  0  0  0  0  0  0  0
   28.9100   16.2673    8.4439 C   0  0  0  0  0  0  0  0  0  0  0  0
   28.9794   14.9528    9.0996 C   0  0  0  0  0  0  0  0  0  0  0  0
   28.7525   14.0409    8.1662 C   0  0  0  0  0  0  0  0  0  0  0  0
   28.7658   12.6467    8.4791 C   0  0  0  0  0  0  0  0  0  0  0  0
   30.1393   12.3194    8.3085 N   0  0  0  0  0  0  0  0  0  0  0  0
   30.5254   11.0364    8.3328 C   0  0  0  0  0  0  0  0  0  0  0  0
   30.1225   10.2033    9.0928 O   0  0  0  0  0  0  0  0  0  0  0  0
   31.5469   10.5533    7.3680 C   0  0  0  0  0  0  0  0  0  0  0  0
   32.1746   11.4583    6.5643 C   0  0  0  0  0  0  0  0  0  0  0  0
   33.2211   10.8931    5.6064 C   0  0  0  0  0  0  0  0  0  0  0  0
   33.4015    9.3497    5.7104 C   0  0  0  0  0  0  0  0  0  0  0  0
   32.6824    8.6061    6.5766 N   0  0  0  0  0  0  0  0  0  0  0  0
   31.7956    9.2321    7.3546 C   0  0  0  0  0  0  0  0  0  0  0  0
   30.9115    8.2255    8.4293 Cl  0  0  0  0  0  0  0  0  0  0  0  0
  1  2  1  0
  2  3  1  0
  3  4  1  0
  4  5  2  0
  5  6  1  0
  6  7  2  0
  7  8  1  0
  8  9  1  0
  9 10  1  0
 10 11  2  0
 10 12  1  0
 12 13  2  0
 13 14  1  0
 14 15  2  0
 15 16  1  0
 16 17  2  0
 17 18  1  0
  7  3  1  0
 17 12  1  0
A    1
 C1 
A    2
 C2 
A    3
 N1 
A    4
 N2 
A    5
 C3 
A    6
 C4 
A    7
 C5 
A    8
 C6 
A    9
 N3 
A   10
 C7 
A   11
 O1 
A   12
 C8 
A   13
 C9 
A   14
 C10
A   15
 C11
A   16
 N4 
A   17
 C12
A   18
CL1 
M  END
>  <ref_pdb>  (1161) 
Ax0310a

>  <ref_mols>  (1161) 
Ax0446a,Ax1080a,Ax0812a,Ax0719a,Ax1140a,Ax0528a,Ax0310a

>  <original SMILES>  (1161) 
CCn1nccc1CNC(=O)c1cccnc1Cl

>  <rationale>  (1161) 
info info set:screening_pocket;hbond:Y90; hydroph_interaction:P107+Y89+Y90; pistack:H21; 

>  <experiment>  (1161) 
screening_pocket

>  <cluster_label>  (1161) 
3

>  <cluster_rank>  (1161) 
818

>  <N_interactions>  (1161) 
6

>  <∆∆G>  (1161) 
-1.551207

>  <comRMSD>  (1161) 
0.485372

>  <ROCS_TanimotoCombo>  (1161) 
0.627

>  <ROCS_ShapeTanimoto>  (1161) 
0.226

>  <ROCS_ColorTanimoto>  (1161) 
0.401

$$$$
Z4107122106
     RDKit          3D

 23 25  0  0  0  0  0  0  0  0999 V2000
   35.6243   14.1541    8.9382 C   0  0  0  0  0  0  0  0  0  0  0  0
   34.1669   14.1773    9.0875 C   0  0  0  0  0  0  0  0  0  0  0  0
   33.2882   13.2628    8.7763 N   0  0  0  0  0  0  0  0  0  0  0  0
   32.1130   13.8883    9.1512 C   0  0  0  0  0  0  0  0  0  0  0  0
   30.7531   13.2937    9.0087 C   0  0  0  0  0  0  0  0  0  0  0  0
   30.1687   13.5221    7.7559 N   0  0  0  0  0  0  0  0  0  0  0  0
   28.9991   14.3951    7.8609 C   0  0  0  0  0  0  0  0  0  0  0  0
   30.0756   12.3620    7.0265 C   0  0  0  0  0  0  0  0  0  0  0  0
   29.0104   12.2011    6.4681 O   0  0  0  0  0  0  0  0  0  0  0  0
   31.1334   11.3499    6.8261 C   0  0  0  0  0  0  0  0  0  0  0  0
   32.2654   11.4189    6.0284 C   0  0  0  0  0  0  0  0  0  0  0  0
   32.8712   10.1826    6.1188 C   0  0  0  0  0  0  0  0  0  0  0  0
   32.2775    9.3356    6.9436 N   0  0  0  0  0  0  0  0  0  0  0  0
   31.2217   10.0543    7.3842 N   0  0  0  0  0  0  0  0  0  0  0  0
   30.3553    9.3925    8.3329 C   0  0  0  0  0  0  0  0  0  0  0  0
   34.0579   10.0175    5.2660 C   0  0  2  0  0  0  0  0  0  0  0  0
   34.7192    8.7031    5.2289 C   0  0  0  0  0  0  0  0  0  0  0  0
   34.9790   11.0727    5.4708 O   0  0  0  0  0  0  0  0  0  0  0  0
   34.4055   12.1975    4.7896 C   0  0  2  0  0  0  0  0  0  0  0  0
   35.2761   13.3874    5.1302 C   0  0  0  0  0  0  0  0  0  0  0  0
   32.8894   12.4679    5.1473 C   0  0  0  0  0  0  0  0  0  0  0  0
   32.2566   15.1033    9.6769 N   0  0  0  0  0  0  0  0  0  0  0  0
   33.6277   15.3018    9.6281 O   0  0  0  0  0  0  0  0  0  0  0  0
  1  2  1  0
  2  3  2  0
  3  4  1  0
  4  5  1  0
  5  6  1  0
  6  7  1  0
  6  8  1  0
  8  9  2  0
  8 10  1  0
 10 11  2  0
 11 12  1  0
 12 13  2  0
 13 14  1  0
 14 15  1  0
 12 16  1  0
 16 17  1  1
 16 18  1  0
 18 19  1  0
 19 20  1  1
 19 21  1  0
  4 22  2  0
 22 23  1  0
 23  2  1  0
 14 10  1  0
 21 11  1  0
A    1
 C1 
A    2
 C2 
A    3
 N1 
A    4
 C3 
A    5
 C4 
A    6
 N2 
A    7
 C5 
A    8
 C6 
A    9
 O1 
A   10
 C7 
A   11
 C8 
A   12
 C9 
A   13
 N3 
A   14
 N4 
A   15
 C10
A   16
 C11
A   17
 C12
A   18
 O2 
A   19
 C13
A   20
 C14
A   21
 C15
A   22
 N5 
A   23
 O3 
M  END
>  <ref_pdb>  (1162) 
Ax0310a

>  <ref_mols>  (1162) 
Ax0446a,Ax1080a,Ax0812a,Ax0719a,Ax1140a,Ax0528a,Ax0310a

>  <original SMILES>  (1162) 
Cc1nc(CN(C)C(=O)c2c3c(nn2C)[C@H](C)O[C@H](C)C3)no1

>  <rationale>  (1162) 
info info set:screening_whole;hbond:S87+G127; hydroph_interaction:P107+V84; 

>  <experiment>  (1162) 
screening_whole

>  <cluster_label>  (1162) 
3

>  <cluster_rank>  (1162) 
819

>  <N_interactions>  (1162) 
4

>  <∆∆G>  (1162) 
-7.411486

>  <comRMSD>  (1162) 
0.801377

>  <ROCS_TanimotoCombo>  (1162) 
0.459

>  <ROCS_ShapeTanimoto>  (1162) 
0.266

>  <ROCS_ColorTanimoto>  (1162) 
0.193

$$$$
EN300_1119633
     RDKit          3D

 13 15  0  0  0  0  0  0  0  0999 V2000
   30.1320   11.7530    8.2946 N   0  0  0  0  0  0  0  0  0  0  0  0
   31.1642   11.0796    7.5100 C   0  0  0  0  0  0  0  0  0  0  0  0
   31.3245    9.5884    7.6425 C   0  0  0  0  0  0  0  0  0  0  0  0
   32.2128    8.7887    6.9924 N   0  0  0  0  0  0  0  0  0  0  0  0
   33.0279    9.4750    6.1227 C   0  0  0  0  0  0  0  0  0  0  0  0
   34.0121    8.9137    5.3233 N   0  0  0  0  0  0  0  0  0  0  0  0
   34.6336    9.8988    4.5782 C   0  0  0  0  0  0  0  0  0  0  0  0
   35.7728    9.7653    3.5513 C   0  0  0  0  0  0  0  0  0  0  0  0
   35.6474    8.5865    2.6688 C   0  0  0  0  0  0  0  0  0  0  0  0
   35.4911    9.8452    1.9368 C   0  0  0  0  0  0  0  0  0  0  0  0
   34.0387   11.0754    4.9122 C   0  0  0  0  0  0  0  0  0  0  0  0
   33.0378   10.8476    5.8649 C   0  0  0  0  0  0  0  0  0  0  0  0
   32.0114   11.7120    6.6364 C   0  0  0  0  0  0  0  0  0  0  0  0
  1  2  1  0
  2  3  2  0
  3  4  1  0
  4  5  2  0
  5  6  1  0
  6  7  1  0
  7  8  1  0
  8  9  1  0
  9 10  1  0
  7 11  2  0
 11 12  1  0
 12 13  2  0
 13  2  1  0
 12  5  1  0
 10  8  1  0
A    1
 N1 
A    2
 C1 
A    3
 C2 
A    4
 N2 
A    5
 C3 
A    6
 N3 
A    7
 C4 
A    8
 C5 
A    9
 C6 
A   10
 C7 
A   11
 C8 
A   12
 C9 
A   13
 C10
M  END
>  <ref_pdb>  (1163) 
Ax0310a

>  <ref_mols>  (1163) 
Ax0446a,Ax1080a,Ax0812a,Ax0719a,Ax1140a,Ax0528a,Ax0310a

>  <original SMILES>  (1163) 
Nc1cnc2[nH]c(C3CC3)cc2c1

>  <rationale>  (1163) 
info info set:bb_densepocket2;hbond:S105+S125; hydroph_interaction:P107; 

>  <experiment>  (1163) 
bb_densepocket2

>  <cluster_label>  (1163) 
3

>  <cluster_rank>  (1163) 
820

>  <N_interactions>  (1163) 
3

>  <∆∆G>  (1163) 
-4.92056

>  <comRMSD>  (1163) 
0.34038

>  <ROCS_TanimotoCombo>  (1163) 
0.608

>  <ROCS_ShapeTanimoto>  (1163) 
0.221

>  <ROCS_ColorTanimoto>  (1163) 
0.387

$$$$
EN300_178377
     RDKit          3D

 13 13  0  0  0  0  0  0  0  0999 V2000
   33.2639    8.9847    5.8878 C   0  0  0  0  0  0  0  0  0  0  0  0
   32.6541   10.0774    6.6369 C   0  0  0  0  0  0  0  0  0  0  0  0
   31.2725    9.8100    7.1528 C   0  0  0  0  0  0  0  0  0  0  0  0
   30.4743   10.8125    7.9062 C   0  0  0  0  0  0  0  0  0  0  0  0
   31.1080   12.1476    8.1848 C   0  0  0  0  0  0  0  0  0  0  0  0
   30.3682   13.2705    8.9336 C   0  0  0  0  0  0  0  0  0  0  0  0
   32.4074   12.2729    7.7197 C   0  0  0  0  0  0  0  0  0  0  0  0
   33.1650   13.5215    8.0268 C   0  0  0  0  0  0  0  0  0  0  0  0
   34.3214   13.9036    6.7261 S   0  0  0  0  0  6  0  0  0  0  0  0
   35.5480   14.6202    7.6035 N   0  0  0  0  0  0  0  0  0  0  0  0
   34.8116   12.7201    6.0943 O   0  0  0  0  0  0  0  0  0  0  0  0
   33.7584   14.8902    5.8886 O   0  0  0  0  0  0  0  0  0  0  0  0
   33.1093   11.3204    6.9843 C   0  0  0  0  0  0  0  0  0  0  0  0
  1  2  1  0
  2  3  2  0
  3  4  1  0
  4  5  2  0
  5  6  1  0
  5  7  1  0
  7  8  1  0
  8  9  1  0
  9 10  1  0
  9 11  2  0
  9 12  2  0
  7 13  2  0
 13  2  1  0
A    1
 C1 
A    2
 C2 
A    3
 C3 
A    4
 C4 
A    5
 C5 
A    6
 C6 
A    7
 C7 
A    8
 C8 
A    9
 S1 
A   10
 N1 
A   11
 O1 
A   12
 O2 
A   13
 C9 
M  END
>  <ref_pdb>  (1164) 
Ax0310a

>  <ref_mols>  (1164) 
Ax0446a,Ax1080a,Ax0812a,Ax0719a,Ax1140a,Ax0528a,Ax0310a

>  <original SMILES>  (1164) 
Cc1ccc(C)c(CS(N)(=O)=O)c1

>  <rationale>  (1164) 
info info set:sulfonimide_joint;hbond:E85; 

>  <experiment>  (1164) 
sulfonimide_joint

>  <cluster_label>  (1164) 
3

>  <cluster_rank>  (1164) 
821

>  <N_interactions>  (1164) 
1

>  <∆∆G>  (1164) 
-4.069676

>  <comRMSD>  (1164) 
0.919158

>  <ROCS_TanimotoCombo>  (1164) 
0.328

>  <ROCS_ShapeTanimoto>  (1164) 
0.164

>  <ROCS_ColorTanimoto>  (1164) 
0.164

$$$$
Z1258763475
     RDKit          3D

 12 13  0  0  0  0  0  0  0  0999 V2000
   31.1594   12.7115    8.1521 C   0  0  0  0  0  0  0  0  0  0  0  0
   30.5345   11.6169    7.3411 C   0  0  0  0  0  0  0  0  0  0  0  0
   29.1106   12.1319    7.1090 C   0  0  0  0  0  0  0  0  0  0  0  0
   30.6177   10.2494    8.0978 C   0  0  0  0  0  0  0  0  0  0  0  0
   31.7477    9.4643    7.8983 N   0  0  0  0  0  0  0  0  0  0  0  0
   32.3547    9.6867    6.7366 C   0  0  0  0  0  0  0  0  0  0  0  0
   32.5335   10.9555    6.2110 C   0  0  1  0  0  0  0  0  0  0  0  0
   33.3880   12.1006    6.7459 C   0  0  0  0  0  0  0  0  0  0  0  0
   34.4924   12.4039    5.9471 C   0  0  0  0  0  0  0  0  0  0  0  0
   34.6713   11.2354    5.1580 O   0  0  0  0  0  0  0  0  0  0  0  0
   33.3325   10.8033    4.9019 C   0  0  0  0  0  0  0  0  0  0  0  0
   31.2631   11.5999    6.0995 O   0  0  0  0  0  0  0  0  0  0  0  0
  1  2  1  0
  2  3  1  0
  2  4  1  0
  4  5  1  0
  5  6  1  0
  7  6  1  1
  7  8  1  0
  8  9  1  0
  9 10  1  0
 10 11  1  0
  7 12  1  0
 12  2  1  0
 11  7  1  0
A    1
 C1 
A    2
 C2 
A    3
 C3 
A    4
 C4 
A    5
 N1 
A    6
 C5 
A    7
 C6 
A    8
 C7 
A    9
 C8 
A   10
 O1 
A   11
 C9 
A   12
 O2 
M  END
>  <ref_pdb>  (1165) 
Ax0310a

>  <ref_mols>  (1165) 
Ax0446a,Ax1080a,Ax0812a,Ax0719a,Ax1140a,Ax0528a,Ax0310a

>  <original SMILES>  (1165) 
CC1(C)CNC[C@]2(CCOC2)O1

>  <rationale>  (1165) 
info info set:3d;hbond:S105; hydroph_interaction:P107; 

>  <experiment>  (1165) 
3d

>  <cluster_label>  (1165) 
3

>  <cluster_rank>  (1165) 
822

>  <N_interactions>  (1165) 
2

>  <∆∆G>  (1165) 
-1.809881

>  <comRMSD>  (1165) 
0.994285

>  <ROCS_TanimotoCombo>  (1165) 
0.309

>  <ROCS_ShapeTanimoto>  (1165) 
0.179

>  <ROCS_ColorTanimoto>  (1165) 
0.13

$$$$
Z3602533920
     RDKit          3D

 19 21  0  0  0  0  0  0  0  0999 V2000
   32.4934   13.0804    5.5017 C   0  0  0  0  0  0  0  0  0  0  0  0
   32.6176   11.6004    5.8136 C   0  0  0  0  0  0  0  0  0  0  0  0
   31.6587   11.0708    6.8213 C   0  0  0  0  0  0  0  0  0  0  0  0
   30.7428   11.9307    7.3884 N   0  0  0  0  0  0  0  0  0  0  0  0
   30.0042   11.4896    8.3991 C   0  0  0  0  0  0  0  0  0  0  0  0
   30.1086   10.3576    8.8638 O   0  0  0  0  0  0  0  0  0  0  0  0
   29.1585   12.4067    8.8760 N   0  0  0  0  0  0  0  0  0  0  0  0
   28.3082   13.3133    8.1178 C   0  0  1  0  0  0  0  0  0  0  0  0
   27.8748   14.5044    8.9904 C   0  0  0  0  0  0  0  0  0  0  0  0
   29.0216   15.2521    8.4627 C   0  0  2  0  0  0  0  0  0  0  0  0
   28.7687   16.6027    8.1116 O   0  0  0  0  0  0  0  0  0  0  0  0
   29.1978   14.3524    7.3750 C   0  0  0  0  0  0  0  0  0  0  0  0
   31.7355    9.7191    7.1389 C   0  0  0  0  0  0  0  0  0  0  0  0
   32.6039    8.8455    6.6074 N   0  0  0  0  0  0  0  0  0  0  0  0
   33.4367    9.3804    5.7021 C   0  0  0  0  0  0  0  0  0  0  0  0
   34.3868    8.6585    5.0395 N   0  0  0  0  0  0  0  0  0  0  0  0
   35.0870    9.4612    4.1851 C   0  0  0  0  0  0  0  0  0  0  0  0
   34.5311   10.7080    4.3441 C   0  0  0  0  0  0  0  0  0  0  0  0
   33.5138   10.6919    5.2654 C   0  0  0  0  0  0  0  0  0  0  0  0
  1  2  1  0
  2  3  2  0
  3  4  1  0
  4  5  1  0
  5  6  2  0
  5  7  1  0
  8  7  1  1
  8  9  1  0
  9 10  1  0
 10 11  1  6
 10 12  1  0
  3 13  1  0
 13 14  2  0
 14 15  1  0
 15 16  1  0
 16 17  1  0
 17 18  2  0
 18 19  1  0
 19  2  1  0
 12  8  1  0
 19 15  2  0
A    1
 C1 
A    2
 C2 
A    3
 C3 
A    4
 N1 
A    5
 C4 
A    6
 O1 
A    7
 N2 
A    8
 C5 
A    9
 C6 
A   10
 C7 
A   11
 O2 
A   12
 C8 
A   13
 C9 
A   14
 N3 
A   15
 C10
A   16
 N4 
A   17
 C11
A   18
 C12
A   19
 C13
M  END
>  <ref_pdb>  (1166) 
Ax0310a

>  <ref_mols>  (1166) 
Ax0446a,Ax1080a,Ax0812a,Ax0719a,Ax1140a,Ax0528a,Ax0310a

>  <original SMILES>  (1166) 
Cc1c(NC(=O)N[C@H]2C[C@H](O)C2)cnc2[nH]ccc12

>  <rationale>  (1166) 
info info set:screening_pocket;hbond:S125+Y90; hydroph_interaction:P107+Y90; 

>  <experiment>  (1166) 
screening_pocket

>  <cluster_label>  (1166) 
3

>  <cluster_rank>  (1166) 
823

>  <N_interactions>  (1166) 
4

>  <∆∆G>  (1166) 
-1.573941

>  <comRMSD>  (1166) 
0.657957

>  <ROCS_TanimotoCombo>  (1166) 
0.631

>  <ROCS_ShapeTanimoto>  (1166) 
0.26

>  <ROCS_ColorTanimoto>  (1166) 
0.371

$$$$
EN300_91765
     RDKit          3D

 14 14  0  0  0  0  0  0  0  0999 V2000
   34.6290   14.7966    7.5009 C   0  0  0  0  0  0  0  0  0  0  0  0
   33.6094   13.3650    7.7232 S   0  0  0  0  0  6  0  0  0  0  0  0
   33.6797   12.6280    6.4950 O   0  0  0  0  0  0  0  0  0  0  0  0
   34.0467   12.8084    9.0536 O   0  0  0  0  0  0  0  0  0  0  0  0
   32.0086   13.8362    8.0490 N   0  0  0  0  0  0  0  0  0  0  0  0
   30.8412   13.0918    7.5539 C   0  0  0  0  0  0  0  0  0  0  0  0
   31.3431   11.7234    7.2285 C   0  0  0  0  0  0  0  0  0  0  0  0
   32.1613   11.5094    6.1374 C   0  0  0  0  0  0  0  0  0  0  0  0
   32.6368   10.2431    5.8696 C   0  0  0  0  0  0  0  0  0  0  0  0
   32.2472    9.1206    6.7731 C   0  0  0  0  0  0  0  0  0  0  0  0
   31.4136    9.4614    7.8220 C   0  0  0  0  0  0  0  0  0  0  0  0
   31.0351    8.4765    8.6443 C   0  0  0  0  0  0  0  0  0  0  0  0
   30.2373    8.8980    9.7312 N   0  0  0  0  0  0  0  0  0  0  0  0
   30.9802   10.6971    8.0457 C   0  0  0  0  0  0  0  0  0  0  0  0
  1  2  1  0
  2  3  2  0
  2  4  2  0
  2  5  1  0
  5  6  1  0
  6  7  1  0
  7  8  2  0
  8  9  1  0
  9 10  2  0
 10 11  1  0
 11 12  1  0
 12 13  1  0
 11 14  2  0
 14  7  1  0
A    1
 C1 
A    2
 S1 
A    3
 O1 
A    4
 O2 
A    5
 N1 
A    6
 C2 
A    7
 C3 
A    8
 C4 
A    9
 C5 
A   10
 C6 
A   11
 C7 
A   12
 C8 
A   13
 N2 
A   14
 C9 
M  END
>  <ref_pdb>  (1167) 
Ax0310a

>  <ref_mols>  (1167) 
Ax0446a,Ax1080a,Ax0812a,Ax0719a,Ax1140a,Ax0528a,Ax0310a

>  <original SMILES>  (1167) 
CS(=O)(=O)NCc1cccc(CN)c1

>  <rationale>  (1167) 
info info set:sulfonimide_joint;hbond:S87+S105+G127; hydroph_interaction:P107; 

>  <experiment>  (1167) 
sulfonimide_joint

>  <cluster_label>  (1167) 
3

>  <cluster_rank>  (1167) 
824

>  <N_interactions>  (1167) 
6

>  <∆∆G>  (1167) 
-5.388054

>  <comRMSD>  (1167) 
0.936808

>  <ROCS_TanimotoCombo>  (1167) 
0.294

>  <ROCS_ShapeTanimoto>  (1167) 
0.162

>  <ROCS_ColorTanimoto>  (1167) 
0.133

$$$$
EN300_72612
     RDKit          3D

 11 11  0  0  0  0  0  0  0  0999 V2000
   34.8670   14.6981    7.7545 N   0  0  0  0  0  0  0  0  0  0  0  0
   33.9802   13.7342    6.7040 S   0  0  0  0  0  6  0  0  0  0  0  0
   33.3761   14.5740    5.7244 O   0  0  0  0  0  0  0  0  0  0  0  0
   34.8766   12.7265    6.2477 O   0  0  0  0  0  0  0  0  0  0  0  0
   32.7079   13.0650    7.7683 C   0  0  0  0  0  0  0  0  0  0  0  0
   31.7920   12.1437    6.9908 C   0  0  1  0  0  0  0  0  0  0  0  0
   32.6740   11.1386    6.3017 C   0  0  0  0  0  0  0  0  0  0  0  0
   32.4274    9.6660    6.5416 C   0  0  0  0  0  0  0  0  0  0  0  0
   31.4482    9.2490    7.6975 C   0  0  0  0  0  0  0  0  0  0  0  0
   30.9339   10.3564    8.4666 N   0  0  0  0  0  0  0  0  0  0  0  0
   30.7340   11.6265    7.7632 C   0  0  0  0  0  0  0  0  0  0  0  0
  1  2  1  0
  2  3  2  0
  2  4  2  0
  2  5  1  0
  6  5  1  1
  6  7  1  0
  7  8  1  0
  8  9  1  0
  9 10  1  0
 10 11  1  0
 11  6  1  0
A    1
 N1 
A    2
 S1 
A    3
 O1 
A    4
 O2 
A    5
 C1 
A    6
 C2 
A    7
 C3 
A    8
 C4 
A    9
 C5 
A   10
 N2 
A   11
 C6 
M  END
>  <ref_pdb>  (1168) 
Ax0310a

>  <ref_mols>  (1168) 
Ax0446a,Ax1080a,Ax0812a,Ax0719a,Ax1140a,Ax0528a,Ax0310a

>  <original SMILES>  (1168) 
NS(=O)(=O)C[C@H]1CCCNC1

>  <rationale>  (1168) 
info info set:sulfonimide_joint;hbond:S125+G127; 

>  <experiment>  (1168) 
sulfonimide_joint

>  <cluster_label>  (1168) 
3

>  <cluster_rank>  (1168) 
825

>  <N_interactions>  (1168) 
2

>  <∆∆G>  (1168) 
-1.119452

>  <comRMSD>  (1168) 
0.755228

>  <ROCS_TanimotoCombo>  (1168) 
0.317

>  <ROCS_ShapeTanimoto>  (1168) 
0.166

>  <ROCS_ColorTanimoto>  (1168) 
0.151

$$$$
EN300_744833
     RDKit          3D

 16 17  0  0  0  0  0  0  0  0999 V2000
   29.3835    8.1328    8.2715 C   0  0  0  0  0  0  0  0  0  0  0  0
   30.1204    9.1571    8.8757 C   0  0  0  0  0  0  0  0  0  0  0  0
   28.8524    9.6204    9.2748 C   0  0  0  0  0  0  0  0  0  0  0  0
   30.8965    8.1309    9.5671 C   0  0  0  0  0  0  0  0  0  0  0  0
   30.7969   10.1515    8.3017 C   0  0  0  0  0  0  0  0  0  0  0  0
   30.6366   11.3082    8.6355 O   0  0  0  0  0  0  0  0  0  0  0  0
   31.7949   10.0644    7.1532 C   0  0  0  0  0  0  0  0  0  0  0  0
   31.9202   11.0926    6.1411 C   0  0  0  0  0  0  0  0  0  0  0  0
   32.9543   10.6323    5.2533 C   0  0  0  0  0  0  0  0  0  0  0  0
   33.3342   11.4651    4.0522 C   0  0  0  0  0  0  0  0  0  0  0  0
   34.4447   10.7693    3.2562 C   0  0  0  0  0  0  0  0  0  0  0  0
   34.9396   11.3025    2.1400 F   0  0  0  0  0  0  0  0  0  0  0  0
   34.9730    9.4381    3.7877 C   0  0  0  0  0  0  0  0  0  0  0  0
   34.5289    8.7906    4.9282 C   0  0  0  0  0  0  0  0  0  0  0  0
   33.4159    9.4428    5.7093 C   0  0  0  0  0  0  0  0  0  0  0  0
   32.7238    9.0525    6.8728 O   0  0  0  0  0  0  0  0  0  0  0  0
  1  2  1  0
  2  3  1  0
  2  4  1  0
  2  5  1  0
  5  6  2  0
  5  7  1  0
  7  8  2  0
  8  9  1  0
  9 10  2  0
 10 11  1  0
 11 12  1  0
 11 13  2  0
 13 14  1  0
 14 15  2  0
 15 16  1  0
 16  7  1  0
 15  9  1  0
A    1
 C1 
A    2
 C2 
A    3
 C3 
A    4
 C4 
A    5
 C5 
A    6
 O1 
A    7
 C6 
A    8
 C7 
A    9
 C8 
A   10
 C9 
A   11
 C10
A   12
 F1 
A   13
 C11
A   14
 C12
A   15
 C13
A   16
 O2 
M  END
>  <ref_pdb>  (1169) 
Ax0310a

>  <ref_mols>  (1169) 
Ax0446a,Ax1080a,Ax0812a,Ax0719a,Ax1140a,Ax0528a,Ax0310a

>  <original SMILES>  (1169) 
CC(C)(C)C(=O)c1cc2cc(F)ccc2o1

>  <rationale>  (1169) 
info info set:bb_densepocket2;hydroph_interaction:P107+V124+D109; 

>  <experiment>  (1169) 
bb_densepocket2

>  <cluster_label>  (1169) 
3

>  <cluster_rank>  (1169) 
826

>  <N_interactions>  (1169) 
3

>  <∆∆G>  (1169) 
-3.534602

>  <comRMSD>  (1169) 
0.661669

>  <ROCS_TanimotoCombo>  (1169) 
0.607

>  <ROCS_ShapeTanimoto>  (1169) 
0.219

>  <ROCS_ColorTanimoto>  (1169) 
0.388

$$$$
Z89330695
     RDKit          3D

 16 17  0  0  0  0  0  0  0  0999 V2000
   30.0145   13.9336    7.2690 O   0  0  0  0  0  0  0  0  0  0  0  0
   31.1662   13.5060    8.0345 S   0  0  0  0  0  6  0  0  0  0  0  0
   31.5739   14.1791    9.2495 O   0  0  0  0  0  0  0  0  0  0  0  0
   30.7834   11.9550    8.3893 N   0  0  0  0  0  0  0  0  0  0  0  0
   31.2812   10.9207    7.6986 C   0  0  0  0  0  0  0  0  0  0  0  0
   31.3070    9.5258    8.1604 C   0  0  0  0  0  0  0  0  0  0  0  0
   31.9721    8.8084    7.0743 C   0  0  0  0  0  0  0  0  0  0  0  0
   32.2753    9.7456    6.0527 O   0  0  0  0  0  0  0  0  0  0  0  0
   31.8364   11.0100    6.4778 N   0  0  0  0  0  0  0  0  0  0  0  0
   32.5725   13.5016    6.8993 C   0  0  0  0  0  0  0  0  0  0  0  0
   32.4022   13.1820    5.4159 C   0  0  0  0  0  0  0  0  0  0  0  0
   33.6508   13.2351    4.5433 C   0  0  0  0  0  0  0  0  0  0  0  0
   35.0041   13.5857    5.0874 C   0  0  0  0  0  0  0  0  0  0  0  0
   36.0465   13.6099    4.2378 F   0  0  0  0  0  0  0  0  0  0  0  0
   35.1729   13.8844    6.4649 C   0  0  0  0  0  0  0  0  0  0  0  0
   34.0630   13.8487    7.3110 C   0  0  0  0  0  0  0  0  0  0  0  0
  1  2  2  0
  2  3  2  0
  2  4  1  0
  4  5  1  0
  5  6  1  0
  6  7  2  0
  7  8  1  0
  8  9  1  0
  2 10  1  0
 10 11  2  0
 11 12  1  0
 12 13  2  0
 13 14  1  0
 13 15  1  0
 15 16  2  0
  9  5  2  0
 16 10  1  0
A    1
 O1 
A    2
 S1 
A    3
 O2 
A    4
 N1 
A    5
 C1 
A    6
 C2 
A    7
 C3 
A    8
 O3 
A    9
 N2 
A   10
 C4 
A   11
 C5 
A   12
 C6 
A   13
 C7 
A   14
 F1 
A   15
 C8 
A   16
 C9 
M  END
>  <ref_pdb>  (1170) 
Ax0310a

>  <ref_mols>  (1170) 
Ax0446a,Ax1080a,Ax0812a,Ax0719a,Ax1140a,Ax0528a,Ax0310a

>  <original SMILES>  (1170) 
O=S(=O)(Nc1ccon1)c1ccc(F)cc1

>  <rationale>  (1170) 
info info set:3d;hbond:S87+S125+G127; 

>  <experiment>  (1170) 
3d

>  <cluster_label>  (1170) 
3

>  <cluster_rank>  (1170) 
827

>  <N_interactions>  (1170) 
3

>  <∆∆G>  (1170) 
-2.982982

>  <comRMSD>  (1170) 
0.675147

>  <ROCS_TanimotoCombo>  (1170) 
0.301

>  <ROCS_ShapeTanimoto>  (1170) 
0.17

>  <ROCS_ColorTanimoto>  (1170) 
0.131

$$$$
EN300_658706
     RDKit          3D

 13 13  0  0  0  0  0  0  0  0999 V2000
   35.0887   14.4242    8.0356 N   0  0  0  0  0  0  0  0  0  0  0  0
   34.0905   13.6711    6.9218 S   0  0  0  0  0  6  0  0  0  0  0  0
   34.8514   12.6417    6.2991 O   0  0  0  0  0  0  0  0  0  0  0  0
   33.6025   14.6554    6.0191 O   0  0  0  0  0  0  0  0  0  0  0  0
   32.7286   12.9770    7.8639 C   0  0  0  0  0  0  0  0  0  0  0  0
   31.8511   11.9867    7.1162 C   0  0  0  0  0  0  0  0  0  0  0  0
   30.9457   12.8601    6.2985 C   0  0  0  0  0  0  0  0  0  0  0  0
   29.7764   12.2974    6.0164 F   0  0  0  0  0  0  0  0  0  0  0  0
   31.5637   13.2224    5.1449 F   0  0  0  0  0  0  0  0  0  0  0  0
   30.8789   11.0414    7.8643 C   0  0  0  0  0  0  0  0  0  0  0  0
   31.3228    9.5982    7.6243 C   0  0  0  0  0  0  0  0  0  0  0  0
   32.3255    9.6164    6.5712 C   0  0  0  0  0  0  0  0  0  0  0  0
   32.6769   11.0477    6.2288 C   0  0  0  0  0  0  0  0  0  0  0  0
  1  2  1  0
  2  3  2  0
  2  4  2  0
  2  5  1  0
  5  6  1  0
  6  7  1  0
  7  8  1  0
  7  9  1  0
  6 10  1  0
 10 11  1  0
 11 12  1  0
 12 13  1  0
 13  6  1  0
A    1
 N1 
A    2
 S1 
A    3
 O1 
A    4
 O2 
A    5
 C1 
A    6
 C2 
A    7
 C3 
A    8
 F1 
A    9
 F2 
A   10
 C4 
A   11
 C5 
A   12
 C6 
A   13
 C7 
M  END
>  <ref_pdb>  (1171) 
Ax0310a

>  <ref_mols>  (1171) 
Ax0446a,Ax1080a,Ax0812a,Ax0719a,Ax1140a,Ax0528a,Ax0310a

>  <original SMILES>  (1171) 
NS(=O)(=O)CC1(C(F)F)CCCC1

>  <rationale>  (1171) 
info info set:sulfonimide_joint;hbond:E85; 

>  <experiment>  (1171) 
sulfonimide_joint

>  <cluster_label>  (1171) 
3

>  <cluster_rank>  (1171) 
828

>  <N_interactions>  (1171) 
1

>  <∆∆G>  (1171) 
-0.357885

>  <comRMSD>  (1171) 
0.70699

>  <ROCS_TanimotoCombo>  (1171) 
0.344

>  <ROCS_ShapeTanimoto>  (1171) 
0.177

>  <ROCS_ColorTanimoto>  (1171) 
0.167

$$$$
EN300_7489971
     RDKit          3D

 17 17  0  0  0  0  0  0  0  0999 V2000
   29.6298    8.9489    8.7896 C   0  0  0  0  0  0  0  0  0  0  0  0
   30.7629    8.4788    8.2223 O   0  0  0  0  0  0  0  0  0  0  0  0
   31.4790    9.3710    7.5459 C   0  0  0  0  0  0  0  0  0  0  0  0
   32.4192    8.9470    6.7055 C   0  0  0  0  0  0  0  0  0  0  0  0
   33.2032    9.7792    6.0009 C   0  0  0  0  0  0  0  0  0  0  0  0
   33.0545   11.2763    6.1392 C   0  0  0  0  0  0  0  0  0  0  0  0
   34.1944   12.1649    5.1701 S   0  0  0  0  0  6  0  0  0  0  0  0
   33.3204   12.3747    3.7693 N   0  0  0  0  0  0  0  0  0  0  0  0
   34.4138   13.4624    5.7454 O   0  0  0  0  0  0  0  0  0  0  0  0
   35.2729   11.2491    4.8619 O   0  0  0  0  0  0  0  0  0  0  0  0
   32.0804   11.8148    6.9899 C   0  0  0  0  0  0  0  0  0  0  0  0
   31.9121   13.1837    7.1464 O   0  0  0  0  0  0  0  0  0  0  0  0
   32.0212   13.6706    8.6971 S   0  0  0  0  0  6  0  0  0  0  0  0
   31.5912   14.9830    9.0780 O   0  0  0  0  0  0  0  0  0  0  0  0
   33.2279   13.0927    9.2636 O   0  0  0  0  0  0  0  0  0  0  0  0
   30.7106   12.9574    9.1729 F   0  0  0  0  0  0  0  0  0  0  0  0
   31.2610   10.9187    7.7154 C   0  0  0  0  0  0  0  0  0  0  0  0
  1  2  1  0
  2  3  1  0
  3  4  2  0
  4  5  1  0
  5  6  2  0
  6  7  1  0
  7  8  1  0
  7  9  2  0
  7 10  2  0
  6 11  1  0
 11 12  1  0
 12 13  1  0
 13 14  2  0
 13 15  2  0
 13 16  1  0
 11 17  2  0
 17  3  1  0
A    1
 C1 
A    2
 O1 
A    3
 C2 
A    4
 C3 
A    5
 C4 
A    6
 C5 
A    7
 S1 
A    8
 N1 
A    9
 O2 
A   10
 O3 
A   11
 C6 
A   12
 O4 
A   13
 S2 
A   14
 O5 
A   15
 O6 
A   16
 F1 
A   17
 C7 
M  END
>  <ref_pdb>  (1172) 
Ax0310a

>  <ref_mols>  (1172) 
Ax0446a,Ax1080a,Ax0812a,Ax0719a,Ax1140a,Ax0528a,Ax0310a

>  <original SMILES>  (1172) 
COc1ccc(S(N)(=O)=O)c(OS(=O)(=O)F)c1

>  <rationale>  (1172) 
info info set:sulfonimide_whole;

>  <experiment>  (1172) 
sulfonimide_whole

>  <cluster_label>  (1172) 
3

>  <cluster_rank>  (1172) 
829

>  <N_interactions>  (1172) 
0

>  <∆∆G>  (1172) 
-5.068479

>  <comRMSD>  (1172) 
0.765747

>  <ROCS_TanimotoCombo>  (1172) 
0.359

>  <ROCS_ShapeTanimoto>  (1172) 
0.213

>  <ROCS_ColorTanimoto>  (1172) 
0.146

$$$$
EN300_1294866
     RDKit          3D

 13 13  0  0  0  0  0  0  0  0999 V2000
   30.8005    7.6824    9.0738 C   0  0  0  0  0  0  0  0  0  0  0  0
   30.1792    8.9203    9.2379 C   0  0  0  0  0  0  0  0  0  0  0  0
   28.8525    8.9896    9.8055 C   0  0  0  0  0  0  0  0  0  0  0  0
   29.4842    8.8305    8.0217 C   0  0  0  0  0  0  0  0  0  0  0  0
   30.8507   10.0982    8.9010 O   0  0  0  0  0  0  0  0  0  0  0  0
   31.5413   10.2551    7.7274 C   0  0  0  0  0  0  0  0  0  0  0  0
   32.2799    9.2727    7.1323 N   0  0  0  0  0  0  0  0  0  0  0  0
   32.9206    9.6573    6.0028 C   0  0  0  0  0  0  0  0  0  0  0  0
   33.6986    8.7931    5.3262 F   0  0  0  0  0  0  0  0  0  0  0  0
   32.8311   11.0295    5.4296 C   0  0  0  0  0  0  0  0  0  0  0  0
   31.9866   11.9940    6.1632 C   0  0  0  0  0  0  0  0  0  0  0  0
   31.3602   11.5638    7.3067 C   0  0  0  0  0  0  0  0  0  0  0  0
   30.5512   12.4328    8.0488 N   0  0  0  0  0  0  0  0  0  0  0  0
  1  2  1  0
  2  3  1  0
  2  4  1  0
  2  5  1  0
  5  6  1  0
  6  7  2  0
  7  8  1  0
  8  9  1  0
  8 10  2  0
 10 11  1  0
 11 12  2  0
 12 13  1  0
 12  6  1  0
A    1
 C1 
A    2
 C2 
A    3
 C3 
A    4
 C4 
A    5
 O1 
A    6
 C5 
A    7
 N1 
A    8
 C6 
A    9
 F1 
A   10
 C7 
A   11
 C8 
A   12
 C9 
A   13
 N2 
M  END
>  <ref_pdb>  (1173) 
Ax0310a

>  <ref_mols>  (1173) 
Ax0446a,Ax1080a,Ax0812a,Ax0719a,Ax1140a,Ax0528a,Ax0310a

>  <original SMILES>  (1173) 
CC(C)(C)Oc1nc(F)ccc1N

>  <rationale>  (1173) 
info info set:bb_densepocket2;hbond:S125; hydroph_interaction:P107; 

>  <experiment>  (1173) 
bb_densepocket2

>  <cluster_label>  (1173) 
3

>  <cluster_rank>  (1173) 
830

>  <N_interactions>  (1173) 
2

>  <∆∆G>  (1173) 
-1.977996

>  <comRMSD>  (1173) 
0.709465

>  <ROCS_TanimotoCombo>  (1173) 
0.615

>  <ROCS_ShapeTanimoto>  (1173) 
0.216

>  <ROCS_ColorTanimoto>  (1173) 
0.399

$$$$
EN300_171744
     RDKit          3D

 16 17  0  0  0  0  0  0  0  0999 V2000
   35.5578   15.5562    6.6152 N   0  0  0  0  0  0  0  0  0  0  0  0
   35.7824   14.9986    5.0676 S   0  0  0  0  0  6  0  0  0  0  0  0
   35.0630   15.7159    4.0454 O   0  0  0  0  0  0  0  0  0  0  0  0
   37.1279   14.5081    4.9436 O   0  0  0  0  0  0  0  0  0  0  0  0
   34.6933   13.8549    5.6566 C   0  0  0  0  0  0  0  0  0  0  0  0
   33.8743   13.2027    4.7932 C   0  0  0  0  0  0  0  0  0  0  0  0
   33.0235   12.3045    5.2328 N   0  0  0  0  0  0  0  0  0  0  0  0
   33.0475   12.1091    6.5604 C   0  0  0  0  0  0  0  0  0  0  0  0
   32.2520   11.1667    7.0656 C   0  0  0  0  0  0  0  0  0  0  0  0
   32.5929    9.7450    6.7505 C   0  0  0  0  0  0  0  0  0  0  0  0
   31.8216    8.7536    7.2805 C   0  0  0  0  0  0  0  0  0  0  0  0
   30.6689    9.0869    8.1388 C   0  0  0  0  0  0  0  0  0  0  0  0
   30.4061   10.4210    8.3811 C   0  0  0  0  0  0  0  0  0  0  0  0
   31.1673   11.4391    7.8652 C   0  0  0  0  0  0  0  0  0  0  0  0
   33.7978   12.7182    7.4877 N   0  0  0  0  0  0  0  0  0  0  0  0
   34.6374   13.6078    6.9968 C   0  0  0  0  0  0  0  0  0  0  0  0
  1  2  1  0
  2  3  2  0
  2  4  2  0
  2  5  1  0
  5  6  2  0
  6  7  1  0
  7  8  2  0
  8  9  1  0
  9 10  2  0
 10 11  1  0
 11 12  2  0
 12 13  1  0
 13 14  2  0
  8 15  1  0
 15 16  2  0
 16  5  1  0
 14  9  1  0
A    1
 N1 
A    2
 S1 
A    3
 O1 
A    4
 O2 
A    5
 C1 
A    6
 C2 
A    7
 N2 
A    8
 C3 
A    9
 C4 
A   10
 C5 
A   11
 C6 
A   12
 C7 
A   13
 C8 
A   14
 C9 
A   15
 N3 
A   16
 C10
M  END
>  <ref_pdb>  (1174) 
Ax0310a

>  <ref_mols>  (1174) 
Ax0446a,Ax1080a,Ax0812a,Ax0719a,Ax1140a,Ax0528a,Ax0310a

>  <original SMILES>  (1174) 
NS(=O)(=O)c1cnc(-c2ccccc2)nc1

>  <rationale>  (1174) 
info info set:sulfonimide_joint;hbond:G127; 

>  <experiment>  (1174) 
sulfonimide_joint

>  <cluster_label>  (1174) 
3

>  <cluster_rank>  (1174) 
831

>  <N_interactions>  (1174) 
1

>  <∆∆G>  (1174) 
-3.207977

>  <comRMSD>  (1174) 
0.957222

>  <ROCS_TanimotoCombo>  (1174) 
0.316

>  <ROCS_ShapeTanimoto>  (1174) 
0.194

>  <ROCS_ColorTanimoto>  (1174) 
0.122

$$$$
Z1558683385
     RDKit          3D

 18 19  0  0  0  0  0  0  0  0999 V2000
   30.6459   15.8803    9.9069 C   0  0  0  0  0  0  0  0  0  0  0  0
   29.2660   16.0605    9.2258 C   0  0  0  0  0  0  0  0  0  0  0  0
   29.0675   14.9876    8.2515 C   0  0  0  0  0  0  0  0  0  0  0  0
   28.3564   15.1249    7.1650 N   0  0  0  0  0  0  0  0  0  0  0  0
   28.2762   14.0414    6.3970 C   0  0  0  0  0  0  0  0  0  0  0  0
   28.8402   12.7913    6.6168 N   0  0  0  0  0  0  0  0  0  0  0  0
   29.5972   12.6580    7.7941 C   0  0  0  0  0  0  0  0  0  0  0  0
   30.1919   11.5473    8.1881 N   0  0  0  0  0  0  0  0  0  0  0  0
   31.1406   10.9754    7.4480 C   0  0  0  0  0  0  0  0  0  0  0  0
   31.9693   11.8645    6.4344 C   0  0  0  0  0  0  0  0  0  0  0  0
   32.9809   10.8971    5.7015 C   0  0  0  0  0  0  0  0  0  0  0  0
   33.1099    9.4364    5.9414 C   0  0  0  0  0  0  0  0  0  0  0  0
   34.0368    8.7012    5.2019 N   0  0  0  0  0  0  0  0  0  0  0  0
   35.0644    9.4674    4.5387 C   0  0  0  0  0  0  0  0  0  0  0  0
   32.3716    8.7717    6.8319 N   0  0  0  0  0  0  0  0  0  0  0  0
   31.4697    9.4741    7.5186 C   0  0  0  0  0  0  0  0  0  0  0  0
   29.7682   13.7086    8.6496 C   0  0  0  0  0  0  0  0  0  0  0  0
   30.4874   13.6588    9.7678 F   0  0  0  0  0  0  0  0  0  0  0  0
  1  2  1  0
  2  3  1  0
  3  4  2  0
  4  5  1  0
  5  6  2  0
  6  7  1  0
  7  8  1  0
  8  9  1  0
  9 10  2  0
 10 11  1  0
 11 12  2  0
 12 13  1  0
 13 14  1  0
 12 15  1  0
 15 16  2  0
  7 17  2  0
 17 18  1  0
 17  3  1  0
 16  9  1  0
A    1
 C1 
A    2
 C2 
A    3
 C3 
A    4
 N1 
A    5
 C4 
A    6
 N2 
A    7
 C5 
A    8
 N3 
A    9
 C6 
A   10
 C7 
A   11
 C8 
A   12
 C9 
A   13
 N4 
A   14
 C10
A   15
 N5 
A   16
 C11
A   17
 C12
A   18
 F1 
M  END
>  <ref_pdb>  (1175) 
Ax0310a

>  <ref_mols>  (1175) 
Ax0446a,Ax1080a,Ax0812a,Ax0719a,Ax1140a,Ax0528a,Ax0310a

>  <original SMILES>  (1175) 
CCc1ncnc(Nc2ccc(NC)nc2)c1F

>  <rationale>  (1175) 
info info set:screening_pocket;hbond:S105+S125; hydroph_interaction:P107+Y90; pistack:H21; 

>  <experiment>  (1175) 
screening_pocket

>  <cluster_label>  (1175) 
3

>  <cluster_rank>  (1175) 
832

>  <N_interactions>  (1175) 
5

>  <∆∆G>  (1175) 
-3.833711

>  <comRMSD>  (1175) 
0.488715

>  <ROCS_TanimotoCombo>  (1175) 
0.629

>  <ROCS_ShapeTanimoto>  (1175) 
0.232

>  <ROCS_ColorTanimoto>  (1175) 
0.397

$$$$
Z4945513864
     RDKit          3D

 14 16  0  0  0  0  0  0  0  0999 V2000
   32.7193    8.5140    6.9339 O   0  0  0  0  0  0  0  0  0  0  0  0
   32.4154    9.6862    6.8750 C   0  0  0  0  0  0  0  0  0  0  0  0
   33.0487   10.7871    6.2691 C   0  0  0  0  0  0  0  0  0  0  0  0
   32.2702   11.9159    6.4921 C   0  0  0  0  0  0  0  0  0  0  0  0
   32.3417   12.7675    5.2001 C   0  0  0  0  0  0  0  0  0  0  0  0
   33.6588   13.5874    5.3188 C   0  0  0  0  0  0  0  0  0  0  0  0
   33.9517   13.5064    6.8162 C   0  0  0  0  0  0  0  0  0  0  0  0
   32.9485   12.8658    7.5362 C   0  0  0  0  0  0  0  0  0  0  0  0
   31.0946   11.5148    7.1434 C   0  0  0  0  0  0  0  0  0  0  0  0
   29.8613   12.2222    7.5667 C   0  0  0  0  0  0  0  0  0  0  0  0
   28.7562   11.4221    8.3124 C   0  0  0  0  0  0  0  0  0  0  0  0
   29.0959   10.0559    8.5122 C   0  0  0  0  0  0  0  0  0  0  0  0
   30.2462    9.4629    8.0903 C   0  0  0  0  0  0  0  0  0  0  0  0
   31.1987   10.1679    7.4180 C   0  0  0  0  0  0  0  0  0  0  0  0
  1  2  2  0
  2  3  1  0
  3  4  1  0
  4  5  1  0
  5  6  1  0
  6  7  1  0
  7  8  1  0
  4  9  1  0
  9 10  2  0
 10 11  1  0
 11 12  2  0
 12 13  1  0
 13 14  2  0
 14  2  1  0
  8  4  1  0
 14  9  1  0
A    1
 O1 
A    2
 C1 
A    3
 C2 
A    4
 C3 
A    5
 C4 
A    6
 C5 
A    7
 C6 
A    8
 C7 
A    9
 C8 
A   10
 C9 
A   11
 C10
A   12
 C11
A   13
 C12
A   14
 C13
M  END
>  <ref_pdb>  (1176) 
Ax0310a

>  <ref_mols>  (1176) 
Ax0446a,Ax1080a,Ax0812a,Ax0719a,Ax1140a,Ax0528a,Ax0310a

>  <original SMILES>  (1176) 
O=C1CC2(CCCC2)c2ccccc21

>  <rationale>  (1176) 
info info set:3d;hydroph_interaction:P107; 

>  <experiment>  (1176) 
3d

>  <cluster_label>  (1176) 
3

>  <cluster_rank>  (1176) 
833

>  <N_interactions>  (1176) 
1

>  <∆∆G>  (1176) 
-4.234231

>  <comRMSD>  (1176) 
0.616559

>  <ROCS_TanimotoCombo>  (1176) 
0.296

>  <ROCS_ShapeTanimoto>  (1176) 
0.206

>  <ROCS_ColorTanimoto>  (1176) 
0.09

$$$$
EN300_702728
     RDKit          3D

 11 12  0  0  0  0  0  0  0  0999 V2000
   32.0723   13.0893    6.4844 C   0  0  0  0  0  0  0  0  0  0  0  0
   32.2033   11.5632    6.5843 C   0  0  0  0  0  0  0  0  0  0  0  0
   31.1520   11.0792    7.5784 C   0  0  0  0  0  0  0  0  0  0  0  0
   30.2340   11.8893    8.2653 N   0  0  0  0  0  0  0  0  0  0  0  0
   31.3170    9.5484    7.6555 C   0  0  0  0  0  0  0  0  0  0  0  0
   32.1912    8.7455    7.0020 N   0  0  0  0  0  0  0  0  0  0  0  0
   33.0494    9.4079    6.1429 C   0  0  0  0  0  0  0  0  0  0  0  0
   34.0125    8.8164    5.3731 N   0  0  0  0  0  0  0  0  0  0  0  0
   34.6891    9.7500    4.6409 C   0  0  0  0  0  0  0  0  0  0  0  0
   34.1449   10.9708    4.9496 C   0  0  0  0  0  0  0  0  0  0  0  0
   33.1064   10.7542    5.9002 C   0  0  0  0  0  0  0  0  0  0  0  0
  1  2  1  0
  2  3  2  0
  3  4  1  0
  3  5  1  0
  5  6  2  0
  6  7  1  0
  7  8  1  0
  8  9  1  0
  9 10  2  0
 10 11  1  0
 11  2  1  0
 11  7  2  0
A    1
 C1 
A    2
 C2 
A    3
 C3 
A    4
 N1 
A    5
 C4 
A    6
 N2 
A    7
 C5 
A    8
 N3 
A    9
 C6 
A   10
 C7 
A   11
 C8 
M  END
>  <ref_pdb>  (1177) 
Ax0310a

>  <ref_mols>  (1177) 
Ax0446a,Ax1080a,Ax0812a,Ax0719a,Ax1140a,Ax0528a,Ax0310a

>  <original SMILES>  (1177) 
Cc1c(N)cnc2[nH]ccc12

>  <rationale>  (1177) 
info info set:bb_densepocket2;hbond:S125; 

>  <experiment>  (1177) 
bb_densepocket2

>  <cluster_label>  (1177) 
3

>  <cluster_rank>  (1177) 
834

>  <N_interactions>  (1177) 
1

>  <∆∆G>  (1177) 
-5.663891

>  <comRMSD>  (1177) 
0.276535

>  <ROCS_TanimotoCombo>  (1177) 
0.612

>  <ROCS_ShapeTanimoto>  (1177) 
0.225

>  <ROCS_ColorTanimoto>  (1177) 
0.387

$$$$
Z1082767944
     RDKit          3D

 23 25  0  0  0  0  0  0  0  0999 V2000
   30.4223    8.6952    8.7714 C   0  0  0  0  0  0  0  0  0  0  0  0
   31.1134    9.6590    7.8427 C   0  0  0  0  0  0  0  0  0  0  0  0
   30.4494   11.0860    7.7680 C   0  0  0  0  0  0  0  0  0  0  0  0
   31.3408   11.8811    6.7603 C   0  0  0  0  0  0  0  0  0  0  0  0
   31.0691   12.9891    6.4428 O   0  0  0  0  0  0  0  0  0  0  0  0
   30.0732   13.5272    7.1428 C   0  0  0  0  0  0  0  0  0  0  0  0
   28.6421   13.7092    6.5748 C   0  0  0  0  0  0  0  0  0  0  0  0
   27.6288   14.3619    7.4908 C   0  0  0  0  0  0  0  0  0  0  0  0
   27.9203   14.7841    8.7670 C   0  0  0  0  0  0  0  0  0  0  0  0
   29.3106   14.5761    9.2832 C   0  0  0  0  0  0  0  0  0  0  0  0
   30.3242   13.9982    8.5502 C   0  0  0  0  0  0  0  0  0  0  0  0
   31.5042   13.9029    9.1492 O   0  0  0  0  0  0  0  0  0  0  0  0
   31.4329   14.9044   10.1205 C   0  0  0  0  0  0  0  0  0  0  0  0
   32.6939   15.3446   10.3927 C   0  0  0  0  0  0  0  0  0  0  0  0
   32.9206   15.1046   11.6710 F   0  0  0  0  0  0  0  0  0  0  0  0
   33.6863   14.7633    9.6594 F   0  0  0  0  0  0  0  0  0  0  0  0
   32.8014   16.6822   10.2289 F   0  0  0  0  0  0  0  0  0  0  0  0
   32.4729   11.3566    6.1854 N   0  0  0  0  0  0  0  0  0  0  0  0
   33.3951   11.9336    5.3499 N   0  0  0  0  0  0  0  0  0  0  0  0
   34.2613   10.9343    5.1275 C   0  0  0  0  0  0  0  0  0  0  0  0
   33.9852    9.7488    5.7371 N   0  0  0  0  0  0  0  0  0  0  0  0
   32.8274   10.0697    6.4225 C   0  0  0  0  0  0  0  0  0  0  0  0
   32.1697    9.2191    7.2127 N   0  0  0  0  0  0  0  0  0  0  0  0
  1  2  1  0
  2  3  1  0
  3  4  2  0
  4  5  1  0
  5  6  1  0
  6  7  2  0
  7  8  1  0
  8  9  2  0
  9 10  1  0
 10 11  2  0
 11 12  1  0
 12 13  1  0
 13 14  1  0
 14 15  1  0
 14 16  1  0
 14 17  1  0
  4 18  1  0
 18 19  1  0
 19 20  2  0
 20 21  1  0
 21 22  2  0
 22 23  1  0
 23  2  2  0
 11  6  1  0
 22 18  1  0
A    1
 C1 
A    2
 C2 
A    3
 C3 
A    4
 C4 
A    5
 O1 
A    6
 C5 
A    7
 C6 
A    8
 C7 
A    9
 C8 
A   10
 C9 
A   11
 C10
A   12
 O2 
A   13
 C11
A   14
 C12
A   15
 F1 
A   16
 F2 
A   17
 F3 
A   18
 N1 
A   19
 N2 
A   20
 C13
A   21
 N3 
A   22
 C14
A   23
 N4 
M  END
>  <ref_pdb>  (1178) 
Ax0310a

>  <ref_mols>  (1178) 
Ax0446a,Ax1080a,Ax0812a,Ax0719a,Ax1140a,Ax0528a,Ax0310a

>  <original SMILES>  (1178) 
Cc1cc(Oc2ccccc2OCC(F)(F)F)n2ncnc2n1

>  <rationale>  (1178) 
info info set:screening_whole;hbond:S87+S105; hydroph_interaction:Y89+Y90+V124; 

>  <experiment>  (1178) 
screening_whole

>  <cluster_label>  (1178) 
3

>  <cluster_rank>  (1178) 
835

>  <N_interactions>  (1178) 
5

>  <∆∆G>  (1178) 
-5.165682

>  <comRMSD>  (1178) 
0.618778

>  <ROCS_TanimotoCombo>  (1178) 
0.455

>  <ROCS_ShapeTanimoto>  (1178) 
0.253

>  <ROCS_ColorTanimoto>  (1178) 
0.202

$$$$
EN300_28826
     RDKit          3D

 13 13  0  0  0  0  0  0  0  0999 V2000
   34.8323   14.6648    7.5217 C   0  0  0  0  0  0  0  0  0  0  0  0
   33.4862   13.8179    8.3431 S   0  0  0  0  0  6  0  0  0  0  0  0
   32.6196   14.6998    9.0880 O   0  0  0  0  0  0  0  0  0  0  0  0
   34.0904   12.7418    9.0186 O   0  0  0  0  0  0  0  0  0  0  0  0
   32.5930   13.2445    7.0272 N   0  0  0  0  0  0  0  0  0  0  0  0
   32.1707   11.8590    7.1479 C   0  0  0  0  0  0  0  0  0  0  0  0
   32.8903   10.9837    6.4045 C   0  0  0  0  0  0  0  0  0  0  0  0
   32.6150    9.5319    6.4284 C   0  0  0  0  0  0  0  0  0  0  0  0
   33.5480    8.8750    5.5279 N   0  0  0  0  0  0  0  0  0  0  0  0
   31.5552    9.0818    7.2824 C   0  0  0  0  0  0  0  0  0  0  0  0
   30.8815   10.0927    7.9878 C   0  0  0  0  0  0  0  0  0  0  0  0
   31.1581   11.4374    7.9329 C   0  0  0  0  0  0  0  0  0  0  0  0
   30.4643   12.3327    8.6325 F   0  0  0  0  0  0  0  0  0  0  0  0
  1  2  1  0
  2  3  2  0
  2  4  2  0
  2  5  1  0
  5  6  1  0
  6  7  2  0
  7  8  1  0
  8  9  1  0
  8 10  2  0
 10 11  1  0
 11 12  2  0
 12 13  1  0
 12  6  1  0
A    1
 C1 
A    2
 S1 
A    3
 O1 
A    4
 O2 
A    5
 N1 
A    6
 C2 
A    7
 C3 
A    8
 C4 
A    9
 N2 
A   10
 C5 
A   11
 C6 
A   12
 C7 
A   13
 F1 
M  END
>  <ref_pdb>  (1179) 
Ax0310a

>  <ref_mols>  (1179) 
Ax0446a,Ax1080a,Ax0812a,Ax0719a,Ax1140a,Ax0528a,Ax0310a

>  <original SMILES>  (1179) 
CS(=O)(=O)Nc1cc(N)ccc1F

>  <rationale>  (1179) 
info info set:sulfonimide_joint;hbond:S87+S105+G127; 

>  <experiment>  (1179) 
sulfonimide_joint

>  <cluster_label>  (1179) 
3

>  <cluster_rank>  (1179) 
836

>  <N_interactions>  (1179) 
3

>  <∆∆G>  (1179) 
-5.894279

>  <comRMSD>  (1179) 
0.520581

>  <ROCS_TanimotoCombo>  (1179) 
0.3

>  <ROCS_ShapeTanimoto>  (1179) 
0.171

>  <ROCS_ColorTanimoto>  (1179) 
0.129

$$$$
Z52587525
     RDKit          3D

 25 28  0  0  0  0  0  0  0  0999 V2000
   31.8657   16.2434   10.3758 C   0  0  0  0  0  0  0  0  0  0  0  0
   32.6163   15.0711    9.8649 C   0  0  0  0  0  0  0  0  0  0  0  0
   31.7879   14.0392    9.2984 O   0  0  0  0  0  0  0  0  0  0  0  0
   30.4381   14.1323    8.9676 C   0  0  0  0  0  0  0  0  0  0  0  0
   29.4099   14.6663    9.7440 C   0  0  0  0  0  0  0  0  0  0  0  0
   28.1106   14.6797    9.2666 C   0  0  0  0  0  0  0  0  0  0  0  0
   27.8007   14.1649    8.0139 C   0  0  0  0  0  0  0  0  0  0  0  0
   28.8028   13.6272    7.2291 C   0  0  0  0  0  0  0  0  0  0  0  0
   30.1121   13.6142    7.7105 C   0  0  0  0  0  0  0  0  0  0  0  0
   31.1793   13.1138    7.0292 O   0  0  0  0  0  0  0  0  0  0  0  0
   31.3970   11.7683    7.1196 C   0  0  0  0  0  0  0  0  0  0  0  0
   30.5201   11.0248    7.8174 N   0  0  0  0  0  0  0  0  0  0  0  0
   30.7366    9.7030    7.8929 C   0  0  0  0  0  0  0  0  0  0  0  0
   31.7236    9.0083    7.3338 N   0  0  0  0  0  0  0  0  0  0  0  0
   32.5526    9.8137    6.6464 C   0  0  0  0  0  0  0  0  0  0  0  0
   33.8737    9.1567    5.8174 S   0  0  0  0  0  0  0  0  0  0  0  0
   34.3949   10.6815    5.3080 C   0  0  0  0  0  0  0  0  0  0  0  0
   33.5661   11.6750    5.7362 C   0  0  0  0  0  0  0  0  0  0  0  0
   33.9566   12.9638    5.3198 C   0  0  0  0  0  0  0  0  0  0  0  0
   33.3307   13.3517    4.1703 C   0  0  0  0  0  0  0  0  0  0  0  0
   33.6554   14.5571    3.6136 C   0  0  0  0  0  0  0  0  0  0  0  0
   34.6038   15.3401    4.2275 C   0  0  0  0  0  0  0  0  0  0  0  0
   35.2305   14.9514    5.4251 C   0  0  0  0  0  0  0  0  0  0  0  0
   34.9006   13.7412    5.9878 C   0  0  0  0  0  0  0  0  0  0  0  0
   32.4742   11.1875    6.5080 C   0  0  0  0  0  0  0  0  0  0  0  0
  1  2  1  0
  2  3  1  0
  3  4  1  0
  4  5  2  0
  5  6  1  0
  6  7  2  0
  7  8  1  0
  8  9  2  0
  9 10  1  0
 10 11  1  0
 11 12  2  0
 12 13  1  0
 13 14  2  0
 14 15  1  0
 15 16  1  0
 16 17  1  0
 17 18  2  0
 18 19  1  0
 19 20  2  0
 20 21  1  0
 21 22  2  0
 22 23  1  0
 23 24  2  0
 18 25  1  0
  9  4  1  0
 25 11  1  0
 25 15  2  0
 24 19  1  0
A    1
 C1 
A    2
 C2 
A    3
 O1 
A    4
 C3 
A    5
 C4 
A    6
 C5 
A    7
 C6 
A    8
 C7 
A    9
 C8 
A   10
 O2 
A   11
 C9 
A   12
 N1 
A   13
 C10
A   14
 N2 
A   15
 C11
A   16
 S1 
A   17
 C12
A   18
 C13
A   19
 C14
A   20
 C15
A   21
 C16
A   22
 C17
A   23
 C18
A   24
 C19
A   25
 C20
M  END
>  <ref_pdb>  (1180) 
Ax0310a

>  <ref_mols>  (1180) 
Ax0446a,Ax1080a,Ax0812a,Ax0719a,Ax1140a,Ax0528a,Ax0310a

>  <original SMILES>  (1180) 
CCOc1ccccc1Oc1ncnc2scc(-c3ccccc3)c12

>  <rationale>  (1180) 
info info set:screening_whole;hbond:S87; hydroph_interaction:Y90+V84; 

>  <experiment>  (1180) 
screening_whole

>  <cluster_label>  (1180) 
3

>  <cluster_rank>  (1180) 
837

>  <N_interactions>  (1180) 
3

>  <∆∆G>  (1180) 
-7.535713

>  <comRMSD>  (1180) 
0.965399

>  <ROCS_TanimotoCombo>  (1180) 
0.457

>  <ROCS_ShapeTanimoto>  (1180) 
0.248

>  <ROCS_ColorTanimoto>  (1180) 
0.209

$$$$
Z4498499884
     RDKit          3D

 13 14  0  0  0  0  0  0  0  0999 V2000
   29.0010   14.3770    7.5984 C   0  0  0  0  0  0  0  0  0  0  0  0
   30.1704   13.5124    7.7639 N   0  0  0  0  0  0  0  0  0  0  0  0
   30.0545   12.2588    7.2130 N   0  0  0  0  0  0  0  0  0  0  0  0
   31.1606   11.6244    7.1429 C   0  0  0  0  0  0  0  0  0  0  0  0
   32.3428   12.0222    7.5114 N   0  0  0  0  0  0  0  0  0  0  0  0
   32.5157   13.0168    8.3892 C   0  0  0  0  0  0  0  0  0  0  0  0
   33.5526   13.1721    9.0018 O   0  0  0  0  0  0  0  0  0  0  0  0
   31.2546   13.8829    8.5612 C   0  0  0  0  0  0  0  0  0  0  0  0
   31.2700   14.8057    9.3611 O   0  0  0  0  0  0  0  0  0  0  0  0
   33.2050   11.5297    6.4902 C   0  0  0  0  0  0  0  0  0  0  0  0
   32.8074   10.1800    6.3938 C   0  0  0  0  0  0  0  0  0  0  0  0
   31.4671   10.2620    6.6043 C   0  0  1  0  0  0  0  0  0  0  0  0
   30.9555    9.1885    7.3510 O   0  0  0  0  0  0  0  0  0  0  0  0
  1  2  1  0
  2  3  1  0
  3  4  2  0
  4  5  1  0
  5  6  1  0
  6  7  2  0
  6  8  1  0
  8  9  2  0
  5 10  1  0
 10 11  1  0
 11 12  1  0
 12 13  1  1
  8  2  1  0
 12  4  1  0
A    1
 C1 
A    2
 N1 
A    3
 N2 
A    4
 C2 
A    5
 N3 
A    6
 C3 
A    7
 O1 
A    8
 C4 
A    9
 O2 
A   10
 C5 
A   11
 C6 
A   12
 C7 
A   13
 O3 
M  END
>  <ref_pdb>  (1181) 
Ax0310a

>  <ref_mols>  (1181) 
Ax0446a,Ax1080a,Ax0812a,Ax0719a,Ax1140a,Ax0528a,Ax0310a

>  <original SMILES>  (1181) 
Cn1nc2n(c(=O)c1=O)CC[C@H]2O

>  <rationale>  (1181) 
info info set:3d;hbond:S87+G127; 

>  <experiment>  (1181) 
3d

>  <cluster_label>  (1181) 
3

>  <cluster_rank>  (1181) 
838

>  <N_interactions>  (1181) 
2

>  <∆∆G>  (1181) 
-1.289581

>  <comRMSD>  (1181) 
0.943254

>  <ROCS_TanimotoCombo>  (1181) 
0.31

>  <ROCS_ShapeTanimoto>  (1181) 
0.165

>  <ROCS_ColorTanimoto>  (1181) 
0.146

$$$$
EN300_39875126
     RDKit          3D

 15 16  0  0  0  0  0  0  0  0999 V2000
   30.2991    9.2850    8.4654 C   0  0  0  0  0  0  0  0  0  0  0  0
   31.2868    9.9617    7.6406 N   0  0  0  0  0  0  0  0  0  0  0  0
   32.1722    9.1369    6.9924 N   0  0  0  0  0  0  0  0  0  0  0  0
   33.0291    9.9109    6.3111 C   0  0  0  0  0  0  0  0  0  0  0  0
   34.1737    9.5197    5.4581 C   0  0  0  0  0  0  0  0  0  0  0  0
   34.9642   10.6522    4.8503 C   0  0  0  0  0  0  0  0  0  0  0  0
   34.4881   12.0968    5.1790 C   0  0  0  0  0  0  0  0  0  0  0  0
   35.4221   13.5965    4.4789 Br  0  0  0  0  0  0  0  0  0  0  0  0
   33.3788   12.2970    5.9858 C   0  0  0  0  0  0  0  0  0  0  0  0
   32.7040   11.2634    6.5114 C   0  0  0  0  0  0  0  0  0  0  0  0
   31.4809   11.3097    7.4061 C   0  0  0  0  0  0  0  0  0  0  0  0
   30.5325   12.6341    8.0164 S   0  0  0  0  0  6  0  0  0  0  0  0
   29.8287   13.3470    6.6484 N   0  0  0  0  0  0  0  0  0  0  0  0
   31.4276   13.6062    8.6281 O   0  0  0  0  0  0  0  0  0  0  0  0
   29.3990   12.0970    8.6738 O   0  0  0  0  0  0  0  0  0  0  0  0
  1  2  1  0
  2  3  1  0
  3  4  2  0
  4  5  1  0
  5  6  2  0
  6  7  1  0
  7  8  1  0
  7  9  2  0
  9 10  1  0
 10 11  2  0
 11 12  1  0
 12 13  1  0
 12 14  2  0
 12 15  2  0
 11  2  1  0
 10  4  1  0
A    1
 C1 
A    2
 N1 
A    3
 N2 
A    4
 C2 
A    5
 C3 
A    6
 C4 
A    7
 C5 
A    8
BR1 
A    9
 C6 
A   10
 C7 
A   11
 C8 
A   12
 S1 
A   13
 N3 
A   14
 O1 
A   15
 O2 
M  END
>  <ref_pdb>  (1182) 
Ax0310a

>  <ref_mols>  (1182) 
Ax0446a,Ax1080a,Ax0812a,Ax0719a,Ax1140a,Ax0528a,Ax0310a

>  <original SMILES>  (1182) 
Cn1nc2ccc(Br)cc2c1S(N)(=O)=O

>  <rationale>  (1182) 
info info set:sulfonimide_whole;hbond:S87; 

>  <experiment>  (1182) 
sulfonimide_whole

>  <cluster_label>  (1182) 
3

>  <cluster_rank>  (1182) 
839

>  <N_interactions>  (1182) 
1

>  <∆∆G>  (1182) 
-6.270896

>  <comRMSD>  (1182) 
0.541644

>  <ROCS_TanimotoCombo>  (1182) 
0.334

>  <ROCS_ShapeTanimoto>  (1182) 
0.216

>  <ROCS_ColorTanimoto>  (1182) 
0.118

$$$$
EN300_158527
     RDKit          3D

 15 16  0  0  0  0  0  0  0  0999 V2000
   28.2391   14.7091    9.1134 C   0  0  0  0  0  0  0  0  0  0  0  0
   29.7680   14.2446    8.3729 S   0  0  0  0  0  6  0  0  0  0  0  0
   30.8506   14.9480    9.0273 O   0  0  0  0  0  0  0  0  0  0  0  0
   29.5137   14.2005    6.8693 O   0  0  0  0  0  0  0  0  0  0  0  0
   30.0043   12.6547    8.7172 N   0  0  0  0  0  0  0  0  0  0  0  0
   30.0884   11.6458    7.6902 C   0  0  0  0  0  0  0  0  0  0  0  0
   31.5259   11.2577    7.4609 C   0  0  1  0  0  0  0  0  0  0  0  0
   31.6942    9.8597    7.3122 C   0  0  0  0  0  0  0  0  0  0  0  0
   32.6162    9.3701    6.3991 C   0  0  0  0  0  0  0  0  0  0  0  0
   33.6062   10.3194    5.8356 C   0  0  0  0  0  0  0  0  0  0  0  0
   34.7347   10.0793    5.2078 N   0  0  0  0  0  0  0  0  0  0  0  0
   35.2313   11.3220    4.9140 C   0  0  0  0  0  0  0  0  0  0  0  0
   34.3745   12.3177    5.3786 C   0  0  0  0  0  0  0  0  0  0  0  0
   33.3550   11.6337    5.9533 N   0  0  0  0  0  0  0  0  0  0  0  0
   32.1759   12.1645    6.5925 C   0  0  0  0  0  0  0  0  0  0  0  0
  1  2  1  0
  2  3  2  0
  2  4  2  0
  2  5  1  0
  5  6  1  0
  7  6  1  6
  7  8  1  0
  8  9  1  0
  9 10  1  0
 10 11  2  0
 11 12  1  0
 12 13  2  0
 13 14  1  0
 14 15  1  0
 15  7  1  0
 14 10  1  0
A    1
 C1 
A    2
 S1 
A    3
 O1 
A    4
 O2 
A    5
 N1 
A    6
 C2 
A    7
 C3 
A    8
 C4 
A    9
 C5 
A   10
 C6 
A   11
 N2 
A   12
 C7 
A   13
 C8 
A   14
 N3 
A   15
 C9 
M  END
>  <ref_pdb>  (1183) 
Ax0310a

>  <ref_mols>  (1183) 
Ax0446a,Ax1080a,Ax0812a,Ax0719a,Ax1140a,Ax0528a,Ax0310a

>  <original SMILES>  (1183) 
CS(=O)(=O)NC[C@H]1CCc2nccn2C1

>  <rationale>  (1183) 
info info set:sulfonimide_whole;hbond:S87+S125; 

>  <experiment>  (1183) 
sulfonimide_whole

>  <cluster_label>  (1183) 
3

>  <cluster_rank>  (1183) 
840

>  <N_interactions>  (1183) 
2

>  <∆∆G>  (1183) 
-3.117682

>  <comRMSD>  (1183) 
0.558563

>  <ROCS_TanimotoCombo>  (1183) 
0.341

>  <ROCS_ShapeTanimoto>  (1183) 
0.199

>  <ROCS_ColorTanimoto>  (1183) 
0.142

$$$$
Z345436292
     RDKit          3D

 18 19  0  0  0  0  0  0  0  0999 V2000
   27.7634   12.5816    6.4197 C   0  0  0  0  0  0  0  0  0  0  0  0
   29.2771   12.8115    6.2041 C   0  0  0  0  0  0  0  0  0  0  0  0
   29.9996   12.9433    7.3956 N   0  0  0  0  0  0  0  0  0  0  0  0
   30.6882   11.8013    7.7779 C   0  0  0  0  0  0  0  0  0  0  0  0
   30.3129   10.9859    8.6016 O   0  0  0  0  0  0  0  0  0  0  0  0
   32.0066   11.5224    7.0865 C   0  0  0  0  0  0  0  0  0  0  0  0
   32.8510   12.7543    6.8330 C   0  0  0  0  0  0  0  0  0  0  0  0
   34.1422   12.5763    6.0382 C   0  0  0  0  0  0  0  0  0  0  0  0
   34.3935   11.1364    5.6191 C   0  0  0  0  0  0  0  0  0  0  0  0
   35.3577   10.8827    4.9020 O   0  0  0  0  0  0  0  0  0  0  0  0
   33.4954   10.1202    6.1138 N   0  0  0  0  0  0  0  0  0  0  0  0
   33.6956    8.8163    5.7130 C   0  0  0  0  0  0  0  0  0  0  0  0
   32.2974   10.2664    6.7543 N   0  0  0  0  0  0  0  0  0  0  0  0
   28.9659   13.4364    8.1964 C   0  0  0  0  0  0  0  0  0  0  0  0
   28.3980   14.6306    7.4648 C   0  0  0  0  0  0  0  0  0  0  0  0
   28.4052   15.7051    8.5569 C   0  0  0  0  0  0  0  0  0  0  0  0
   29.2092   15.0922    9.6897 C   0  0  0  0  0  0  0  0  0  0  0  0
   29.3175   13.8014    9.4315 C   0  0  0  0  0  0  0  0  0  0  0  0
  1  2  1  0
  2  3  1  0
  3  4  1  0
  4  5  2  0
  4  6  1  0
  6  7  1  0
  7  8  2  0
  8  9  1  0
  9 10  2  0
  9 11  1  0
 11 12  1  0
 11 13  1  0
  3 14  1  0
 14 15  1  0
 15 16  1  0
 16 17  1  0
 17 18  1  0
 13  6  2  0
 18 14  1  0
A    1
 C1 
A    2
 C2 
A    3
 N1 
A    4
 C3 
A    5
 O1 
A    6
 C4 
A    7
 C5 
A    8
 C6 
A    9
 C7 
A   10
 O2 
A   11
 N2 
A   12
 C8 
A   13
 N3 
A   14
 C9 
A   15
 C10
A   16
 C11
A   17
 C12
A   18
 C13
M  END
>  <ref_pdb>  (1184) 
Ax0310a

>  <ref_mols>  (1184) 
Ax0446a,Ax1080a,Ax0812a,Ax0719a,Ax1140a,Ax0528a,Ax0310a

>  <original SMILES>  (1184) 
CCN(C(=O)c1ccc(=O)n(C)n1)C1CCCC1

>  <rationale>  (1184) 
info info set:3d;hydroph_interaction:P107+Y89+Y90; 

>  <experiment>  (1184) 
3d

>  <cluster_label>  (1184) 
3

>  <cluster_rank>  (1184) 
841

>  <N_interactions>  (1184) 
3

>  <∆∆G>  (1184) 
-1.663675

>  <comRMSD>  (1184) 
0.93925

>  <ROCS_TanimotoCombo>  (1184) 
0.317

>  <ROCS_ShapeTanimoto>  (1184) 
0.211

>  <ROCS_ColorTanimoto>  (1184) 
0.107

$$$$
EN300_8162713
     RDKit          3D

 13 13  0  0  0  0  0  0  0  0999 V2000
   29.8866    8.7259    8.4969 C   0  0  0  0  0  0  0  0  0  0  0  0
   31.2327    8.5392    8.0929 N   0  0  0  0  0  0  0  0  0  0  0  0
   31.9012    9.2932    7.2025 C   0  0  0  0  0  0  0  0  0  0  0  0
   32.8392    8.7570    6.4656 N   0  0  0  0  0  0  0  0  0  0  0  0
   33.4951    9.6071    5.6002 C   0  0  0  0  0  0  0  0  0  0  0  0
   33.2758   11.0935    5.3863 C   0  0  0  0  0  0  0  0  0  0  0  0
   34.2378   12.1713    4.1902 Br  0  0  0  0  0  0  0  0  0  0  0  0
   32.2688   11.4976    6.2116 C   0  0  0  0  0  0  0  0  0  0  0  0
   31.6014   10.6615    7.0784 C   0  0  0  0  0  0  0  0  0  0  0  0
   30.5330   11.3050    7.8906 C   0  0  0  0  0  0  0  0  0  0  0  0
   30.2145   10.8305    8.9180 O   0  0  0  0  0  0  0  0  0  0  0  0
   30.0259   12.4152    7.2925 O   0  0  0  0  0  0  0  0  0  0  0  0
   28.8044   12.9032    7.8669 C   0  0  0  0  0  0  0  0  0  0  0  0
  1  2  1  0
  2  3  1  0
  3  4  2  0
  4  5  1  0
  5  6  2  0
  6  7  1  0
  6  8  1  0
  8  9  2  0
  9 10  1  0
 10 11  2  0
 10 12  1  0
 12 13  1  0
  9  3  1  0
A    1
 C1 
A    2
 N1 
A    3
 C2 
A    4
 N2 
A    5
 C3 
A    6
 C4 
A    7
BR1 
A    8
 C5 
A    9
 C6 
A   10
 C7 
A   11
 O1 
A   12
 O2 
A   13
 C8 
M  END
>  <ref_pdb>  (1185) 
Ax0310a

>  <ref_mols>  (1185) 
Ax0446a,Ax1080a,Ax0812a,Ax0719a,Ax1140a,Ax0528a,Ax0310a

>  <original SMILES>  (1185) 
CNc1ncc(Br)cc1C(=O)OC

>  <rationale>  (1185) 
info info set:bb_densepocket2;hbond:S105; hydroph_interaction:P107; 

>  <experiment>  (1185) 
bb_densepocket2

>  <cluster_label>  (1185) 
3

>  <cluster_rank>  (1185) 
842

>  <N_interactions>  (1185) 
2

>  <∆∆G>  (1185) 
-5.133322

>  <comRMSD>  (1185) 
0.552432

>  <ROCS_TanimotoCombo>  (1185) 
0.615

>  <ROCS_ShapeTanimoto>  (1185) 
0.243

>  <ROCS_ColorTanimoto>  (1185) 
0.372

$$$$
EN300_86467
     RDKit          3D

 13 13  0  0  0  0  0  0  0  0999 V2000
   30.8981    8.0288    8.1267 C   0  0  0  0  0  0  0  0  0  0  0  0
   31.3719    9.2958    7.6672 C   0  0  0  0  0  0  0  0  0  0  0  0
   32.5047    9.4908    6.7326 C   0  0  0  0  0  0  0  0  0  0  0  0
   32.8506   10.7974    6.4352 C   0  0  0  0  0  0  0  0  0  0  0  0
   32.1097   11.8262    7.0222 C   0  0  0  0  0  0  0  0  0  0  0  0
   32.4230   13.0959    6.8157 N   0  0  0  0  0  0  0  0  0  0  0  0
   33.2309   13.7201    8.1566 S   0  0  0  0  0  6  0  0  0  0  0  0
   34.5401   14.6265    7.3564 C   0  0  0  0  0  0  0  0  0  0  0  0
   33.8737   12.6876    8.8744 O   0  0  0  0  0  0  0  0  0  0  0  0
   32.2900   14.5378    8.8982 O   0  0  0  0  0  0  0  0  0  0  0  0
   31.0230   11.6006    7.8668 C   0  0  0  0  0  0  0  0  0  0  0  0
   30.2614   12.6340    8.4316 N   0  0  0  0  0  0  0  0  0  0  0  0
   30.6847   10.3357    8.1753 C   0  0  0  0  0  0  0  0  0  0  0  0
  1  2  1  0
  2  3  2  0
  3  4  1  0
  4  5  2  0
  5  6  1  0
  6  7  1  0
  7  8  1  0
  7  9  2  0
  7 10  2  0
  5 11  1  0
 11 12  1  0
 11 13  2  0
 13  2  1  0
A    1
 C1 
A    2
 C2 
A    3
 C3 
A    4
 C4 
A    5
 C5 
A    6
 N1 
A    7
 S1 
A    8
 C6 
A    9
 O1 
A   10
 O2 
A   11
 C7 
A   12
 N2 
A   13
 C8 
M  END
>  <ref_pdb>  (1186) 
Ax0310a

>  <ref_mols>  (1186) 
Ax0446a,Ax1080a,Ax0812a,Ax0719a,Ax1140a,Ax0528a,Ax0310a

>  <original SMILES>  (1186) 
Cc1ccc(NS(C)(=O)=O)c(N)c1

>  <rationale>  (1186) 
info info set:sulfonimide_whole;hbond:S87+S125+G127; hydroph_interaction:V124; 

>  <experiment>  (1186) 
sulfonimide_whole

>  <cluster_label>  (1186) 
3

>  <cluster_rank>  (1186) 
843

>  <N_interactions>  (1186) 
4

>  <∆∆G>  (1186) 
-6.951618

>  <comRMSD>  (1186) 
0.79513

>  <ROCS_TanimotoCombo>  (1186) 
0.328

>  <ROCS_ShapeTanimoto>  (1186) 
0.185

>  <ROCS_ColorTanimoto>  (1186) 
0.143

$$$$
Z45654237
     RDKit          3D

 18 19  0  0  0  0  0  0  0  0999 V2000
   29.4214    8.5727    8.2439 C   0  0  0  0  0  0  0  0  0  0  0  0
   30.0306    9.9185    8.0282 C   0  0  0  0  0  0  0  0  0  0  0  0
   31.4052    9.7605    7.8580 C   0  0  0  0  0  0  0  0  0  0  0  0
   32.1569   10.9271    7.7217 C   0  0  0  0  0  0  0  0  0  0  0  0
   31.6087   12.1327    7.7817 C   0  0  0  0  0  0  0  0  0  0  0  0
   32.7584   13.3886    7.8409 S   0  0  0  0  0  6  0  0  0  0  0  0
   31.8738   14.3422    8.4240 O   0  0  0  0  0  0  0  0  0  0  0  0
   33.8580   12.9056    8.6318 O   0  0  0  0  0  0  0  0  0  0  0  0
   33.2226   13.5371    6.2573 N   0  0  0  0  0  0  0  0  0  0  0  0
   33.6996   12.3016    5.7887 C   0  0  0  0  0  0  0  0  0  0  0  0
   35.0809   12.1928    5.1806 C   0  0  0  0  0  0  0  0  0  0  0  0
   35.5299   10.9606    4.7391 C   0  0  0  0  0  0  0  0  0  0  0  0
   34.5843    9.8014    4.9136 C   0  0  0  0  0  0  0  0  0  0  0  0
   33.3427   10.0385    5.4895 C   0  0  0  0  0  0  0  0  0  0  0  0
   32.8846   11.2380    5.9183 N   0  0  0  0  0  0  0  0  0  0  0  0
   30.2694   12.3480    7.8406 C   0  0  0  0  0  0  0  0  0  0  0  0
   29.5706   13.6735    7.8238 C   0  0  0  0  0  0  0  0  0  0  0  0
   29.4971   11.2460    7.9541 C   0  0  0  0  0  0  0  0  0  0  0  0
  1  2  1  0
  2  3  2  0
  3  4  1  0
  4  5  2  0
  5  6  1  0
  6  7  2  0
  6  8  2  0
  6  9  1  0
  9 10  1  0
 10 11  2  0
 11 12  1  0
 12 13  2  0
 13 14  1  0
 14 15  2  0
  5 16  1  0
 16 17  1  0
 16 18  2  0
 18  2  1  0
 15 10  1  0
A    1
 C1 
A    2
 C2 
A    3
 C3 
A    4
 C4 
A    5
 C5 
A    6
 S1 
A    7
 O1 
A    8
 O2 
A    9
 N1 
A   10
 C6 
A   11
 C7 
A   12
 C8 
A   13
 C9 
A   14
 C10
A   15
 N2 
A   16
 C11
A   17
 C12
A   18
 C13
M  END
>  <ref_pdb>  (1187) 
Ax0310a

>  <ref_mols>  (1187) 
Ax0446a,Ax1080a,Ax0812a,Ax0719a,Ax1140a,Ax0528a,Ax0310a

>  <original SMILES>  (1187) 
Cc1ccc(S(=O)(=O)Nc2ccccn2)c(C)c1

>  <rationale>  (1187) 
info info set:3d;hbond:S87+G127; hydroph_interaction:V124; 

>  <experiment>  (1187) 
3d

>  <cluster_label>  (1187) 
3

>  <cluster_rank>  (1187) 
844

>  <N_interactions>  (1187) 
3

>  <∆∆G>  (1187) 
-1.779455

>  <comRMSD>  (1187) 
0.89737

>  <ROCS_TanimotoCombo>  (1187) 
0.316

>  <ROCS_ShapeTanimoto>  (1187) 
0.206

>  <ROCS_ColorTanimoto>  (1187) 
0.111

$$$$
Z228792504
     RDKit          3D

 23 25  0  0  0  0  0  0  0  0999 V2000
   31.6400   16.3888   11.1922 C   0  0  0  0  0  0  0  0  0  0  0  0
   30.6129   15.7460   10.4257 O   0  0  0  0  0  0  0  0  0  0  0  0
   31.0059   14.7397    9.6036 C   0  0  0  0  0  0  0  0  0  0  0  0
   32.1474   14.3370    9.4786 O   0  0  0  0  0  0  0  0  0  0  0  0
   29.8315   14.2285    8.8415 C   0  0  0  0  0  0  0  0  0  0  0  0
   28.5307   14.5069    9.2537 C   0  0  0  0  0  0  0  0  0  0  0  0
   27.4317   14.0343    8.5204 C   0  0  0  0  0  0  0  0  0  0  0  0
   27.6100   13.2720    7.3598 C   0  0  0  0  0  0  0  0  0  0  0  0
   26.4523   12.8737    6.7283 O   0  0  0  0  0  0  0  0  0  0  0  0
   25.2763   12.6636    7.5163 C   0  0  0  0  0  0  0  0  0  0  0  0
   28.9165   12.9862    6.9521 C   0  0  0  0  0  0  0  0  0  0  0  0
   30.0107   13.4636    7.6937 C   0  0  0  0  0  0  0  0  0  0  0  0
   31.2725   13.1573    7.2515 O   0  0  0  0  0  0  0  0  0  0  0  0
   31.5655   11.8093    7.1413 C   0  0  0  0  0  0  0  0  0  0  0  0
   30.7928   10.8665    7.7320 N   0  0  0  0  0  0  0  0  0  0  0  0
   31.1502    9.5796    7.5707 C   0  0  0  0  0  0  0  0  0  0  0  0
   32.1942    9.1010    6.8709 N   0  0  0  0  0  0  0  0  0  0  0  0
   32.9142   10.0832    6.3104 C   0  0  0  0  0  0  0  0  0  0  0  0
   32.6673   11.4313    6.4092 C   0  0  0  0  0  0  0  0  0  0  0  0
   33.6917   12.0485    5.6775 C   0  0  0  0  0  0  0  0  0  0  0  0
   34.5320   11.1734    5.1331 N   0  0  0  0  0  0  0  0  0  0  0  0
   34.0292    9.9859    5.5251 N   0  0  0  0  0  0  0  0  0  0  0  0
   34.7003    8.8086    5.0879 C   0  0  0  0  0  0  0  0  0  0  0  0
  1  2  1  0
  2  3  1  0
  3  4  2  0
  3  5  1  0
  5  6  2  0
  6  7  1  0
  7  8  2  0
  8  9  1  0
  9 10  1  0
  8 11  1  0
 11 12  2  0
 12 13  1  0
 13 14  1  0
 14 15  2  0
 15 16  1  0
 16 17  2  0
 17 18  1  0
 18 19  2  0
 19 20  1  0
 20 21  2  0
 21 22  1  0
 22 23  1  0
 12  5  1  0
 19 14  1  0
 22 18  1  0
A    1
 C1 
A    2
 O1 
A    3
 C2 
A    4
 O2 
A    5
 C3 
A    6
 C4 
A    7
 C5 
A    8
 C6 
A    9
 O3 
A   10
 C7 
A   11
 C8 
A   12
 C9 
A   13
 O4 
A   14
 C10
A   15
 N1 
A   16
 C11
A   17
 N2 
A   18
 C12
A   19
 C13
A   20
 C14
A   21
 N3 
A   22
 N4 
A   23
 C15
M  END
>  <ref_pdb>  (1188) 
Ax0310a

>  <ref_mols>  (1188) 
Ax0446a,Ax1080a,Ax0812a,Ax0719a,Ax1140a,Ax0528a,Ax0310a

>  <original SMILES>  (1188) 
COC(=O)c1ccc(OC)cc1Oc1ncnc2c1cnn2C

>  <rationale>  (1188) 
info info set:screening_whole;hbond:S87; hydroph_interaction:P107+Y89; 

>  <experiment>  (1188) 
screening_whole

>  <cluster_label>  (1188) 
3

>  <cluster_rank>  (1188) 
845

>  <N_interactions>  (1188) 
3

>  <∆∆G>  (1188) 
-10.93435

>  <comRMSD>  (1188) 
0.540275

>  <ROCS_TanimotoCombo>  (1188) 
0.456

>  <ROCS_ShapeTanimoto>  (1188) 
0.245

>  <ROCS_ColorTanimoto>  (1188) 
0.211

$$$$
EN300_28229212
     RDKit          3D

 14 14  0  0  0  0  0  0  0  0999 V2000
   29.4136   14.1875    9.3643 C   0  0  0  0  0  0  0  0  0  0  0  0
   28.9830   13.3019    8.2156 C   0  0  0  0  0  0  0  0  0  0  0  0
   30.1597   12.7588    7.5860 O   0  0  0  0  0  0  0  0  0  0  0  0
   30.4684   11.4888    7.9679 C   0  0  0  0  0  0  0  0  0  0  0  0
   29.9608   10.8951    8.8525 O   0  0  0  0  0  0  0  0  0  0  0  0
   31.5104   10.7789    7.1710 C   0  0  0  0  0  0  0  0  0  0  0  0
   32.3924   11.5957    6.2406 C   0  0  0  0  0  0  0  0  0  0  0  0
   32.0442   13.0789    6.3123 C   0  0  0  0  0  0  0  0  0  0  0  0
   33.3649   11.0159    5.4541 C   0  0  0  0  0  0  0  0  0  0  0  0
   33.5521    9.6565    5.5097 C   0  0  0  0  0  0  0  0  0  0  0  0
   34.7369    8.8995    4.5307 Cl  0  0  0  0  0  0  0  0  0  0  0  0
   32.7799    8.7733    6.3771 N   0  0  0  0  0  0  0  0  0  0  0  0
   31.8260    9.2870    7.1572 C   0  0  0  0  0  0  0  0  0  0  0  0
   31.1175    8.3887    7.9651 N   0  0  0  0  0  0  0  0  0  0  0  0
  1  2  1  0
  2  3  1  0
  3  4  1  0
  4  5  2  0
  4  6  1  0
  6  7  2  0
  7  8  1  0
  7  9  1  0
  9 10  2  0
 10 11  1  0
 10 12  1  0
 12 13  2  0
 13 14  1  0
 13  6  1  0
A    1
 C1 
A    2
 C2 
A    3
 O1 
A    4
 C3 
A    5
 O2 
A    6
 C4 
A    7
 C5 
A    8
 C6 
A    9
 C7 
A   10
 C8 
A   11
CL1 
A   12
 N1 
A   13
 C9 
A   14
 N2 
M  END
>  <ref_pdb>  (1189) 
Ax0310a

>  <ref_mols>  (1189) 
Ax0446a,Ax1080a,Ax0812a,Ax0719a,Ax1140a,Ax0528a,Ax0310a

>  <original SMILES>  (1189) 
CCOC(=O)c1c(C)cc(Cl)nc1N

>  <rationale>  (1189) 
info info set:bb_densepocket2;hbond:S105; hydroph_interaction:P107; 

>  <experiment>  (1189) 
bb_densepocket2

>  <cluster_label>  (1189) 
3

>  <cluster_rank>  (1189) 
846

>  <N_interactions>  (1189) 
2

>  <∆∆G>  (1189) 
-3.010741

>  <comRMSD>  (1189) 
0.564625

>  <ROCS_TanimotoCombo>  (1189) 
0.622

>  <ROCS_ShapeTanimoto>  (1189) 
0.247

>  <ROCS_ColorTanimoto>  (1189) 
0.374

$$$$
Z1255421457
     RDKit          3D

 12 13  0  0  0  0  0  0  0  0999 V2000
   31.1616    8.3775    9.1127 C   0  0  0  0  0  0  0  0  0  0  0  0
   30.7805    9.1471    7.9735 C   0  0  0  0  0  0  0  0  0  0  0  0
   29.6698    8.4654    8.1853 C   0  0  0  0  0  0  0  0  0  0  0  0
   30.4608   10.6498    8.1809 C   0  0  0  0  0  0  0  0  0  0  0  0
   31.3155   11.6452    7.5824 N   0  0  0  0  0  0  0  0  0  0  0  0
   32.3751   11.2066    6.8095 C   0  0  0  0  0  0  0  0  0  0  0  0
   33.2177   12.1838    6.4012 N   0  0  0  0  0  0  0  0  0  0  0  0
   34.2668   11.8158    5.6430 C   0  0  0  0  0  0  0  0  0  0  0  0
   34.5044   10.4959    5.2767 C   0  0  0  0  0  0  0  0  0  0  0  0
   33.6229    9.4940    5.7074 C   0  0  0  0  0  0  0  0  0  0  0  0
   32.5294    9.8550    6.4947 C   0  0  0  0  0  0  0  0  0  0  0  0
   31.6608    8.8507    6.9156 O   0  0  0  0  0  0  0  0  0  0  0  0
  1  2  1  0
  2  3  1  0
  2  4  1  0
  4  5  1  0
  5  6  1  0
  6  7  2  0
  7  8  1  0
  8  9  2  0
  9 10  1  0
 10 11  2  0
 11 12  1  0
 12  2  1  0
 11  6  1  0
A    1
 C1 
A    2
 C2 
A    3
 C3 
A    4
 C4 
A    5
 N1 
A    6
 C5 
A    7
 N2 
A    8
 C6 
A    9
 C7 
A   10
 C8 
A   11
 C9 
A   12
 O1 
M  END
>  <ref_pdb>  (1190) 
Ax0310a

>  <ref_mols>  (1190) 
Ax0446a,Ax1080a,Ax0812a,Ax0719a,Ax1140a,Ax0528a,Ax0310a

>  <original SMILES>  (1190) 
CC1(C)CNc2ncccc2O1

>  <rationale>  (1190) 
info info set:3d;hbond:G127; hydroph_interaction:V124; 

>  <experiment>  (1190) 
3d

>  <cluster_label>  (1190) 
3

>  <cluster_rank>  (1190) 
847

>  <N_interactions>  (1190) 
2

>  <∆∆G>  (1190) 
-4.152574

>  <comRMSD>  (1190) 
0.727331

>  <ROCS_TanimotoCombo>  (1190) 
0.298

>  <ROCS_ShapeTanimoto>  (1190) 
0.188

>  <ROCS_ColorTanimoto>  (1190) 
0.111

$$$$
Z1065656684
     RDKit          3D

 18 19  0  0  0  0  0  0  0  0999 V2000
   28.6936   16.7936    8.5289 C   0  0  0  0  0  0  0  0  0  0  0  0
   28.5908   15.3684    8.3104 C   0  0  0  0  0  0  0  0  0  0  0  0
   28.1608   14.5767    9.3274 C   0  0  0  0  0  0  0  0  0  0  0  0
   28.3402   13.2418    9.2161 C   0  0  0  0  0  0  0  0  0  0  0  0
   29.0042   12.6884    8.1181 N   0  0  0  0  0  0  0  0  0  0  0  0
   29.7657   11.4083    8.1390 C   0  0  0  0  0  0  0  0  0  0  0  0
   30.9757   11.3468    7.5011 C   0  0  0  0  0  0  0  0  0  0  0  0
   31.6490   12.4695    7.2464 C   0  0  0  0  0  0  0  0  0  0  0  0
   33.0147   12.2476    6.4651 C   0  0  0  0  0  0  0  0  0  0  0  0
   33.3283   10.9028    6.1420 C   0  0  0  0  0  0  0  0  0  0  0  0
   34.6241   10.6848    5.3623 C   0  0  0  0  0  0  0  0  0  0  0  0
   34.8169    9.3386    4.8954 N   0  0  0  0  0  0  0  0  0  0  0  0
   32.5772    9.8212    6.4665 C   0  0  0  0  0  0  0  0  0  0  0  0
   31.3377   10.0698    7.1941 C   0  0  0  0  0  0  0  0  0  0  0  0
   30.5530    9.0556    7.5544 F   0  0  0  0  0  0  0  0  0  0  0  0
   28.9570   13.3902    6.9499 C   0  0  0  0  0  0  0  0  0  0  0  0
   29.0196   12.9461    5.8303 O   0  0  0  0  0  0  0  0  0  0  0  0
   28.9032   14.8301    7.1469 C   0  0  0  0  0  0  0  0  0  0  0  0
  1  2  1  0
  2  3  1  0
  3  4  2  0
  4  5  1  0
  5  6  1  0
  6  7  1  0
  7  8  2  0
  8  9  1  0
  9 10  2  0
 10 11  1  0
 11 12  3  0
 10 13  1  0
 13 14  2  0
 14 15  1  0
  5 16  1  0
 16 17  2  0
 16 18  1  0
 18  2  2  0
 14  7  1  0
A    1
 C1 
A    2
 C2 
A    3
 C3 
A    4
 C4 
A    5
 N1 
A    6
 C5 
A    7
 C6 
A    8
 C7 
A    9
 C8 
A   10
 C9 
A   11
 C10
A   12
 N2 
A   13
 C11
A   14
 C12
A   15
 F1 
A   16
 C13
A   17
 O1 
A   18
 C14
M  END
>  <ref_pdb>  (1191) 
Ax0310a

>  <ref_mols>  (1191) 
Ax0446a,Ax1080a,Ax0812a,Ax0719a,Ax1140a,Ax0528a,Ax0310a

>  <original SMILES>  (1191) 
Cc1ccn(Cc2ccc(C#N)cc2F)c(=O)c1

>  <rationale>  (1191) 
info info set:3d;hydroph_interaction:Y89; 

>  <experiment>  (1191) 
3d

>  <cluster_label>  (1191) 
3

>  <cluster_rank>  (1191) 
848

>  <N_interactions>  (1191) 
1

>  <∆∆G>  (1191) 
-2.063955

>  <comRMSD>  (1191) 
0.812663

>  <ROCS_TanimotoCombo>  (1191) 
0.321

>  <ROCS_ShapeTanimoto>  (1191) 
0.205

>  <ROCS_ColorTanimoto>  (1191) 
0.116

$$$$
EN300_26684704
     RDKit          3D

 22 24  0  0  0  0  0  0  0  0999 V2000
   31.3452   15.7099    9.9268 N   0  0  0  0  0  0  0  0  0  0  0  0
   30.2613   15.3083    9.8368 C   0  0  0  0  0  0  0  0  0  0  0  0
   28.8249   14.8716    9.7258 C   0  0  0  0  0  0  0  0  0  0  0  0
   28.6834   13.5002    9.3797 N   0  0  0  0  0  0  0  0  0  0  0  0
   28.9585   13.0589    8.1423 C   0  0  0  0  0  0  0  0  0  0  0  0
   28.6524   13.7675    6.9301 O   0  0  0  0  0  0  0  0  0  0  0  0
   29.6082   11.6956    8.0149 C   0  0  0  0  0  0  0  0  0  0  0  0
   28.5953   10.8080    8.6449 C   0  0  0  0  0  0  0  0  0  0  0  0
   28.9048    9.3461    8.7048 C   0  0  0  0  0  0  0  0  0  0  0  0
   30.1806    8.8346    8.1194 C   0  0  0  0  0  0  0  0  0  0  0  0
   31.0923    9.8865    7.5024 C   0  0  0  0  0  0  0  0  0  0  0  0
   30.8052   11.2507    7.4841 C   0  0  0  0  0  0  0  0  0  0  0  0
   31.8100   12.2197    6.8779 C   0  0  0  0  0  0  0  0  0  0  0  0
   31.7090   13.4239    6.9615 O   0  0  0  0  0  0  0  0  0  0  0  0
   32.9887   11.5893    6.1422 C   0  0  0  0  0  0  0  0  0  0  0  0
   33.8096   12.5316    5.4748 C   0  0  0  0  0  0  0  0  0  0  0  0
   34.9770   11.8905    4.7290 C   0  0  0  0  0  0  0  0  0  0  0  0
   35.1488   10.3798    4.7542 C   0  0  0  0  0  0  0  0  0  0  0  0
   34.2490    9.6391    5.4618 C   0  0  0  0  0  0  0  0  0  0  0  0
   33.1964   10.2127    6.1500 C   0  0  0  0  0  0  0  0  0  0  0  0
   32.2692    9.3242    6.9255 C   0  0  0  0  0  0  0  0  0  0  0  0
   32.4907    8.1473    7.0704 O   0  0  0  0  0  0  0  0  0  0  0  0
  1  2  3  0
  2  3  1  0
  3  4  1  0
  4  5  1  0
  5  6  2  0
  5  7  1  0
  7  8  2  0
  8  9  1  0
  9 10  2  0
 10 11  1  0
 11 12  2  0
 12 13  1  0
 13 14  2  0
 13 15  1  0
 15 16  2  0
 16 17  1  0
 17 18  2  0
 18 19  1  0
 19 20  2  0
 20 21  1  0
 21 22  2  0
 12  7  1  0
 20 15  1  0
 21 11  1  0
A    1
 N1 
A    2
 C1 
A    3
 C2 
A    4
 N2 
A    5
 C3 
A    6
 O1 
A    7
 C4 
A    8
 C5 
A    9
 C6 
A   10
 C7 
A   11
 C8 
A   12
 C9 
A   13
 C10
A   14
 O2 
A   15
 C11
A   16
 C12
A   17
 C13
A   18
 C14
A   19
 C15
A   20
 C16
A   21
 C17
A   22
 O3 
M  END
>  <ref_pdb>  (1192) 
Ax0310a

>  <ref_mols>  (1192) 
Ax0446a,Ax1080a,Ax0812a,Ax0719a,Ax1140a,Ax0528a,Ax0310a

>  <original SMILES>  (1192) 
N#CCNC(=O)c1cccc2c1C(=O)c1ccccc1C2=O

>  <rationale>  (1192) 
info info set:bb_whole;hbond:S87+S125; hydroph_interaction:V124; 

>  <experiment>  (1192) 
bb_whole

>  <cluster_label>  (1192) 
3

>  <cluster_rank>  (1192) 
849

>  <N_interactions>  (1192) 
3

>  <∆∆G>  (1192) 
-5.477779

>  <comRMSD>  (1192) 
0.579563

>  <ROCS_TanimotoCombo>  (1192) 
0.417

>  <ROCS_ShapeTanimoto>  (1192) 
0.257

>  <ROCS_ColorTanimoto>  (1192) 
0.16

$$$$
EN300_1120842
     RDKit          3D

 13 13  0  0  0  0  0  0  0  0999 V2000
   35.0988   13.7364    9.4703 N   0  0  0  0  0  0  0  0  0  0  0  0
   33.8351   14.5301    8.7251 S   0  0  0  0  0  6  0  0  0  0  0  0
   34.2009   14.6798    7.3313 O   0  0  0  0  0  0  0  0  0  0  0  0
   33.4497   15.6363    9.5897 O   0  0  0  0  0  0  0  0  0  0  0  0
   32.4625   13.4274    8.7968 C   0  0  0  0  0  0  0  0  0  0  0  0
   31.2976   13.4204    7.8519 C   0  0  0  0  0  0  0  0  0  0  0  0
   30.3945   12.2058    7.8150 C   0  0  0  0  0  0  0  0  0  0  0  0
   31.1159   10.9713    7.6711 N   0  0  0  0  0  0  0  0  0  0  0  0
   30.6878    9.7303    8.2404 C   0  0  0  0  0  0  0  0  0  0  0  0
   31.6115    8.8124    7.7683 C   0  0  0  0  0  0  0  0  0  0  0  0
   32.4974    9.4885    6.8442 O   0  0  0  0  0  0  0  0  0  0  0  0
   32.0842   10.7642    6.7359 C   0  0  0  0  0  0  0  0  0  0  0  0
   32.5107   11.5832    5.9347 O   0  0  0  0  0  0  0  0  0  0  0  0
  1  2  1  0
  2  3  2  0
  2  4  2  0
  2  5  1  0
  5  6  1  0
  6  7  1  0
  7  8  1  0
  8  9  1  0
  9 10  1  0
 10 11  1  0
 11 12  1  0
 12 13  2  0
 12  8  1  0
A    1
 N1 
A    2
 S1 
A    3
 O1 
A    4
 O2 
A    5
 C1 
A    6
 C2 
A    7
 C3 
A    8
 N2 
A    9
 C4 
A   10
 C5 
A   11
 O3 
A   12
 C6 
A   13
 O4 
M  END
>  <ref_pdb>  (1193) 
Ax0310a

>  <ref_mols>  (1193) 
Ax0446a,Ax1080a,Ax0812a,Ax0719a,Ax1140a,Ax0528a,Ax0310a

>  <original SMILES>  (1193) 
NS(=O)(=O)CCCN1CCOC1=O

>  <rationale>  (1193) 
info info set:sulfonimide_joint;hbond:G127+E85; 

>  <experiment>  (1193) 
sulfonimide_joint

>  <cluster_label>  (1193) 
3

>  <cluster_rank>  (1193) 
850

>  <N_interactions>  (1193) 
2

>  <∆∆G>  (1193) 
-1.199876

>  <comRMSD>  (1193) 
0.891614

>  <ROCS_TanimotoCombo>  (1193) 
0.33

>  <ROCS_ShapeTanimoto>  (1193) 
0.159

>  <ROCS_ColorTanimoto>  (1193) 
0.171

$$$$
EN300_744855
     RDKit          3D

 16 17  0  0  0  0  0  0  0  0999 V2000
   35.3645    7.9088    4.6288 C   0  0  0  0  0  0  0  0  0  0  0  0
   34.4770    9.1404    4.6752 C   0  0  0  0  0  0  0  0  0  0  0  0
   34.9195    9.8744    3.4035 C   0  0  0  0  0  0  0  0  0  0  0  0
   34.2798   11.2105    3.0581 C   0  0  0  0  0  0  0  0  0  0  0  0
   33.2512   11.6891    4.0401 C   0  0  0  0  0  0  0  0  0  0  0  0
   32.8933   10.8838    5.2500 C   0  0  0  0  0  0  0  0  0  0  0  0
   31.8724   11.3273    6.2521 C   0  0  0  0  0  0  0  0  0  0  0  0
   31.9656   10.1625    7.1494 C   0  0  0  0  0  0  0  0  0  0  0  0
   30.9832   10.4347    8.2777 C   0  0  0  0  0  0  0  0  0  0  0  0
   30.7710   11.5697    8.6680 O   0  0  0  0  0  0  0  0  0  0  0  0
   30.2306    9.2671    8.8076 C   0  0  0  0  0  0  0  0  0  0  0  0
   30.0367    8.4119    7.9505 C   0  0  0  0  0  0  0  0  0  0  0  0
   28.8583    9.5840    9.1535 C   0  0  0  0  0  0  0  0  0  0  0  0
   30.8572    8.1778    9.5652 C   0  0  0  0  0  0  0  0  0  0  0  0
   32.8814    9.1712    6.7590 O   0  0  0  0  0  0  0  0  0  0  0  0
   33.4620    9.6590    5.5626 C   0  0  0  0  0  0  0  0  0  0  0  0
  1  2  1  0
  2  3  2  0
  3  4  1  0
  4  5  2  0
  5  6  1  0
  6  7  1  0
  7  8  2  0
  8  9  1  0
  9 10  2  0
  9 11  1  0
 11 12  1  0
 11 13  1  0
 11 14  1  0
  8 15  1  0
 15 16  1  0
 16  2  1  0
 16  6  2  0
A    1
 C1 
A    2
 C2 
A    3
 C3 
A    4
 C4 
A    5
 C5 
A    6
 C6 
A    7
 C7 
A    8
 C8 
A    9
 C9 
A   10
 O1 
A   11
 C10
A   12
 C11
A   13
 C12
A   14
 C13
A   15
 O2 
A   16
 C14
M  END
>  <ref_pdb>  (1194) 
Ax0310a

>  <ref_mols>  (1194) 
Ax0446a,Ax1080a,Ax0812a,Ax0719a,Ax1140a,Ax0528a,Ax0310a

>  <original SMILES>  (1194) 
Cc1cccc2cc(C(=O)C(C)(C)C)oc12

>  <rationale>  (1194) 
info info set:bb_densepocket2;hbond:G127; hydroph_interaction:P107+V124; 

>  <experiment>  (1194) 
bb_densepocket2

>  <cluster_label>  (1194) 
3

>  <cluster_rank>  (1194) 
851

>  <N_interactions>  (1194) 
3

>  <∆∆G>  (1194) 
-3.9039

>  <comRMSD>  (1194) 
0.88034

>  <ROCS_TanimotoCombo>  (1194) 
0.608

>  <ROCS_ShapeTanimoto>  (1194) 
0.22

>  <ROCS_ColorTanimoto>  (1194) 
0.388

$$$$
Z4439444787
     RDKit          3D

 12 13  0  0  0  0  0  0  0  0999 V2000
   30.8135    8.8973    8.9122 C   0  0  0  0  0  0  0  0  0  0  0  0
   31.0462    9.8483    7.8078 C   0  0  2  0  0  0  0  0  0  0  0  0
   32.2088   10.1042    7.0639 C   0  0  0  0  0  0  0  0  0  0  0  0
   32.4082   11.4199    6.6247 C   0  0  0  0  0  0  0  0  0  0  0  0
   32.7897   11.3738    5.3060 C   0  0  0  0  0  0  0  0  0  0  0  0
   34.0618   10.8693    5.1229 C   0  0  0  0  0  0  0  0  0  0  0  0
   35.0676   11.7933    5.5885 N   0  0  0  0  0  0  0  0  0  0  0  0
   34.5482   12.8083    6.2709 C   0  0  0  0  0  0  0  0  0  0  0  0
   33.3750   12.4619    7.2059 C   0  0  0  0  0  0  0  0  0  0  0  0
   31.0158   11.9550    6.9563 C   0  0  0  0  0  0  0  0  0  0  0  0
   30.4514   12.8986    6.4442 O   0  0  0  0  0  0  0  0  0  0  0  0
   30.5057   11.1611    7.9680 N   0  0  0  0  0  0  0  0  0  0  0  0
  2  1  1  1
  2  3  1  0
  3  4  1  0
  4  5  1  0
  5  6  1  0
  6  7  1  0
  7  8  1  0
  8  9  1  0
  4 10  1  0
 10 11  2  0
 10 12  1  0
 12  2  1  0
  9  4  1  0
A    1
 C1 
A    2
 C2 
A    3
 C3 
A    4
 C4 
A    5
 C5 
A    6
 C6 
A    7
 N1 
A    8
 C7 
A    9
 C8 
A   10
 C9 
A   11
 O1 
A   12
 N2 
M  END
>  <ref_pdb>  (1195) 
Ax0310a

>  <ref_mols>  (1195) 
Ax0446a,Ax1080a,Ax0812a,Ax0719a,Ax1140a,Ax0528a,Ax0310a

>  <original SMILES>  (1195) 
C[C@@H]1CC2(CCNCC2)C(=O)N1

>  <rationale>  (1195) 
info info set:3d;hbond:S125+G127; hydroph_interaction:P107+V124; 

>  <experiment>  (1195) 
3d

>  <cluster_label>  (1195) 
3

>  <cluster_rank>  (1195) 
852

>  <N_interactions>  (1195) 
4

>  <∆∆G>  (1195) 
-0.815024

>  <comRMSD>  (1195) 
0.924074

>  <ROCS_TanimotoCombo>  (1195) 
0.287

>  <ROCS_ShapeTanimoto>  (1195) 
0.175

>  <ROCS_ColorTanimoto>  (1195) 
0.112

$$$$
EN300_1240812
     RDKit          3D

 12 12  0  0  0  0  0  0  0  0999 V2000
   28.8845    9.4229    8.7387 C   0  0  0  0  0  0  0  0  0  0  0  0
   30.2671    9.0528    8.2799 C   0  0  0  0  0  0  0  0  0  0  0  0
   30.6639    7.9512    9.1551 C   0  0  0  0  0  0  0  0  0  0  0  0
   31.1851   10.0013    8.5689 O   0  0  0  0  0  0  0  0  0  0  0  0
   31.8033   10.4000    7.4551 C   0  0  0  0  0  0  0  0  0  0  0  0
   32.6043    9.5627    6.7537 N   0  0  0  0  0  0  0  0  0  0  0  0
   33.2033   10.0693    5.6666 C   0  0  0  0  0  0  0  0  0  0  0  0
   34.2403    9.0194    4.7939 Cl  0  0  0  0  0  0  0  0  0  0  0  0
   33.0378   11.5004    5.1555 C   0  0  0  0  0  0  0  0  0  0  0  0
   32.0981   12.3598    6.0163 C   0  0  0  0  0  0  0  0  0  0  0  0
   31.4838   11.7133    7.2135 C   0  0  0  0  0  0  0  0  0  0  0  0
   30.6113   12.4355    8.0633 N   0  0  0  0  0  0  0  0  0  0  0  0
  1  2  1  0
  2  3  1  0
  2  4  1  0
  4  5  1  0
  5  6  2  0
  6  7  1  0
  7  8  1  0
  7  9  2  0
  9 10  1  0
 10 11  2  0
 11 12  1  0
 11  5  1  0
A    1
 C1 
A    2
 C2 
A    3
 C3 
A    4
 O1 
A    5
 C4 
A    6
 N1 
A    7
 C5 
A    8
CL1 
A    9
 C6 
A   10
 C7 
A   11
 C8 
A   12
 N2 
M  END
>  <ref_pdb>  (1196) 
Ax0310a

>  <ref_mols>  (1196) 
Ax0446a,Ax1080a,Ax0812a,Ax0719a,Ax1140a,Ax0528a,Ax0310a

>  <original SMILES>  (1196) 
CC(C)Oc1nc(Cl)ccc1N

>  <rationale>  (1196) 
info info set:bb_densepocket2;hbond:S125; hydroph_interaction:P107; 

>  <experiment>  (1196) 
bb_densepocket2

>  <cluster_label>  (1196) 
3

>  <cluster_rank>  (1196) 
853

>  <N_interactions>  (1196) 
2

>  <∆∆G>  (1196) 
-4.470829

>  <comRMSD>  (1196) 
0.92288

>  <ROCS_TanimotoCombo>  (1196) 
0.619

>  <ROCS_ShapeTanimoto>  (1196) 
0.213

>  <ROCS_ColorTanimoto>  (1196) 
0.406

$$$$
Z8166860419
     RDKit          3D

 24 27  0  0  0  0  0  0  0  0999 V2000
   32.6581   13.9358    8.6959 C   0  0  0  0  0  0  0  0  0  0  0  0
   31.6565   14.2002    9.3560 O   0  0  0  0  0  0  0  0  0  0  0  0
   30.3752   14.2358    8.7977 C   0  0  0  0  0  0  0  0  0  0  0  0
   29.2925   14.8637    9.4662 C   0  0  0  0  0  0  0  0  0  0  0  0
   28.0508   14.8538    8.8087 C   0  0  0  0  0  0  0  0  0  0  0  0
   27.9159   14.1602    7.4262 C   0  0  0  0  0  0  0  0  0  0  0  0
   26.8086   14.0725    6.7191 F   0  0  0  0  0  0  0  0  0  0  0  0
   29.0272   13.6163    6.9408 C   0  0  0  0  0  0  0  0  0  0  0  0
   30.2249   13.6244    7.5449 C   0  0  0  0  0  0  0  0  0  0  0  0
   31.2951   13.0429    6.9080 N   0  0  0  0  0  0  0  0  0  0  0  0
   31.6923   11.7315    6.8889 C   0  0  0  0  0  0  0  0  0  0  0  0
   31.0277   10.7902    7.5329 N   0  0  0  0  0  0  0  0  0  0  0  0
   31.5601    9.5879    7.4193 C   0  0  0  0  0  0  0  0  0  0  0  0
   31.0136    8.4339    8.1545 C   0  0  0  0  0  0  0  0  0  0  0  0
   29.6657    8.0880    8.4278 C   0  0  0  0  0  0  0  0  0  0  0  0
   30.2124    8.8860    9.4789 C   0  0  0  0  0  0  0  0  0  0  0  0
   32.6215    9.2586    6.7197 N   0  0  0  0  0  0  0  0  0  0  0  0
   33.3064   10.1501    6.0752 C   0  0  0  0  0  0  0  0  0  0  0  0
   34.5306    9.5585    5.3428 C   0  0  0  0  0  0  0  0  0  0  0  0
   35.2793   10.7206    4.6703 C   0  0  0  0  0  0  0  0  0  0  0  0
   36.3934   10.4391    3.9956 F   0  0  0  0  0  0  0  0  0  0  0  0
   34.8672   12.0367    4.7262 C   0  0  0  0  0  0  0  0  0  0  0  0
   33.6347   12.4264    5.4678 C   0  0  0  0  0  0  0  0  0  0  0  0
   32.9272   11.4629    6.1052 C   0  0  0  0  0  0  0  0  0  0  0  0
  1  2  1  0
  2  3  1  0
  3  4  2  0
  4  5  1  0
  5  6  2  0
  6  7  1  0
  6  8  1  0
  8  9  2  0
  9 10  1  0
 10 11  1  0
 11 12  2  0
 12 13  1  0
 13 14  1  0
 14 15  1  0
 15 16  1  0
 13 17  2  0
 17 18  1  0
 18 19  2  0
 19 20  1  0
 20 21  1  0
 20 22  2  0
 22 23  1  0
 23 24  2  0
  9  3  1  0
 24 11  1  0
 16 14  1  0
 24 18  1  0
A    1
 C1 
A    2
 O1 
A    3
 C2 
A    4
 C3 
A    5
 C4 
A    6
 C5 
A    7
 F1 
A    8
 C6 
A    9
 C7 
A   10
 N1 
A   11
 C8 
A   12
 N2 
A   13
 C9 
A   14
 C10
A   15
 C11
A   16
 C12
A   17
 N3 
A   18
 C13
A   19
 C14
A   20
 C15
A   21
 F2 
A   22
 C16
A   23
 C17
A   24
 C18
M  END
>  <ref_pdb>  (1197) 
Ax0310a

>  <ref_mols>  (1197) 
Ax0446a,Ax1080a,Ax0812a,Ax0719a,Ax1140a,Ax0528a,Ax0310a

>  <original SMILES>  (1197) 
COc1ccc(F)cc1Nc1nc(C2CC2)nc2cc(F)ccc12

>  <rationale>  (1197) 
info info set:screening_whole;hbond:S87+S105; hydroph_interaction:Y90+V124+D109; 

>  <experiment>  (1197) 
screening_whole

>  <cluster_label>  (1197) 
3

>  <cluster_rank>  (1197) 
854

>  <N_interactions>  (1197) 
5

>  <∆∆G>  (1197) 
-3.236974

>  <comRMSD>  (1197) 
0.829387

>  <ROCS_TanimotoCombo>  (1197) 
0.456

>  <ROCS_ShapeTanimoto>  (1197) 
0.266

>  <ROCS_ColorTanimoto>  (1197) 
0.19

$$$$
Z1259268868
     RDKit          3D

 13 13  0  0  0  0  0  0  0  0999 V2000
   35.2863    7.9368    4.2231 C   0  0  0  0  0  0  0  0  0  0  0  0
   34.1348    8.4302    4.9103 O   0  0  0  0  0  0  0  0  0  0  0  0
   34.2512    9.6927    5.3463 C   0  0  0  0  0  0  0  0  0  0  0  0
   35.2034   10.4149    5.0824 O   0  0  0  0  0  0  0  0  0  0  0  0
   33.0684   10.1062    6.2022 C   0  0  0  0  0  0  0  0  0  0  0  0
   32.2970    9.2942    6.9649 N   0  0  0  0  0  0  0  0  0  0  0  0
   31.3742   10.0189    7.5433 C   0  0  0  0  0  0  0  0  0  0  0  0
   31.5122   11.5241    7.1436 C   0  0  0  0  0  0  0  0  0  0  0  0
   30.5706   12.8335    7.5908 S   0  0  0  0  0  6  0  0  0  0  0  0
   29.2204   12.2869    8.3826 N   0  0  0  0  0  0  0  0  0  0  0  0
   31.3315   13.8173    8.4494 O   0  0  0  0  0  0  0  0  0  0  0  0
   30.0228   13.4955    6.3716 O   0  0  0  0  0  0  0  0  0  0  0  0
   32.7340   11.5781    6.2037 C   0  0  0  0  0  0  0  0  0  0  0  0
  1  2  1  0
  2  3  1  0
  3  4  2  0
  3  5  1  0
  5  6  2  0
  6  7  1  0
  7  8  2  0
  8  9  1  0
  9 10  1  0
  9 11  2  0
  9 12  2  0
  8 13  1  0
 13  5  1  0
A    1
 C1 
A    2
 O1 
A    3
 C2 
A    4
 O2 
A    5
 C3 
A    6
 N1 
A    7
 C4 
A    8
 C5 
A    9
 S1 
A   10
 N2 
A   11
 O3 
A   12
 O4 
A   13
 C6 
M  END
>  <ref_pdb>  (1198) 
Ax0310a

>  <ref_mols>  (1198) 
Ax0446a,Ax1080a,Ax0812a,Ax0719a,Ax1140a,Ax0528a,Ax0310a

>  <original SMILES>  (1198) 
COC(=O)C1=NC=C(S(N)(=O)=O)C1

>  <rationale>  (1198) 
info info set:3d;hbond:S87+S125; 

>  <experiment>  (1198) 
3d

>  <cluster_label>  (1198) 
3

>  <cluster_rank>  (1198) 
855

>  <N_interactions>  (1198) 
2

>  <∆∆G>  (1198) 
-2.902389

>  <comRMSD>  (1198) 
0.540835

>  <ROCS_TanimotoCombo>  (1198) 
0.314

>  <ROCS_ShapeTanimoto>  (1198) 
0.17

>  <ROCS_ColorTanimoto>  (1198) 
0.144

$$$$
EN300_39392
     RDKit          3D

 15 15  0  0  0  0  0  0  0  0999 V2000
   29.3344   12.2637    8.4722 C   0  0  0  0  0  0  0  0  0  0  0  0
   30.2812   12.4243    7.3913 C   0  0  0  0  0  0  0  0  0  0  0  0
   30.2070   13.4612    6.6506 N   0  0  0  0  0  0  0  0  0  0  0  0
   29.1696   14.3028    7.1077 O   0  0  0  0  0  0  0  0  0  0  0  0
   31.3042   11.3049    7.1368 C   0  0  0  0  0  0  0  0  0  0  0  0
   30.8739    9.8760    7.4760 C   0  0  0  0  0  0  0  0  0  0  0  0
   31.9076    8.8506    7.0847 C   0  0  0  0  0  0  0  0  0  0  0  0
   33.1336    9.3485    6.4630 C   0  0  0  0  0  0  0  0  0  0  0  0
   33.4871   10.7888    6.2188 C   0  0  0  0  0  0  0  0  0  0  0  0
   32.5189   11.6589    6.6057 C   0  0  0  0  0  0  0  0  0  0  0  0
   32.8020   13.0398    6.4713 N   0  0  0  0  0  0  0  0  0  0  0  0
   33.2356   13.6450    8.0144 S   0  0  0  0  0  6  0  0  0  0  0  0
   34.6355   14.6510    7.6120 C   0  0  0  0  0  0  0  0  0  0  0  0
   32.1490   14.3574    8.6450 O   0  0  0  0  0  0  0  0  0  0  0  0
   33.7867   12.6311    8.8248 O   0  0  0  0  0  0  0  0  0  0  0  0
  1  2  1  0
  2  3  2  3
  3  4  1  0
  2  5  1  0
  5  6  2  0
  6  7  1  0
  7  8  2  0
  8  9  1  0
  9 10  2  0
 10 11  1  0
 11 12  1  0
 12 13  1  0
 12 14  2  0
 12 15  2  0
 10  5  1  0
A    1
 C1 
A    2
 C2 
A    3
 N1 
A    4
 O1 
A    5
 C3 
A    6
 C4 
A    7
 C5 
A    8
 C6 
A    9
 C7 
A   10
 C8 
A   11
 N2 
A   12
 S1 
A   13
 C9 
A   14
 O2 
A   15
 O3 
M  END
>  <ref_pdb>  (1199) 
Ax0310a

>  <ref_mols>  (1199) 
Ax0446a,Ax1080a,Ax0812a,Ax0719a,Ax1140a,Ax0528a,Ax0310a

>  <original SMILES>  (1199) 
CC(=NO)c1ccccc1NS(C)(=O)=O

>  <rationale>  (1199) 
info info set:sulfonimide_whole;hbond:S87+G127; 

>  <experiment>  (1199) 
sulfonimide_whole

>  <cluster_label>  (1199) 
3

>  <cluster_rank>  (1199) 
856

>  <N_interactions>  (1199) 
3

>  <∆∆G>  (1199) 
-3.249193

>  <comRMSD>  (1199) 
0.51006

>  <ROCS_TanimotoCombo>  (1199) 
0.343

>  <ROCS_ShapeTanimoto>  (1199) 
0.212

>  <ROCS_ColorTanimoto>  (1199) 
0.131

$$$$
EN300_274604
     RDKit          3D

 12 12  0  0  0  0  0  0  0  0999 V2000
   29.3426   13.9129    9.3809 N   0  0  0  0  0  0  0  0  0  0  0  0
   30.3870   13.4657    8.1573 S   0  0  0  0  0  6  0  0  0  0  0  0
   29.8146   13.9199    6.9241 O   0  0  0  0  0  0  0  0  0  0  0  0
   31.7156   13.8220    8.6066 O   0  0  0  0  0  0  0  0  0  0  0  0
   30.1643   11.7205    8.0889 C   0  0  0  0  0  0  0  0  0  0  0  0
   31.2071   10.9042    7.4352 C   0  0  0  0  0  0  0  0  0  0  0  0
   32.1277   11.6518    6.4867 C   0  0  0  0  0  0  0  0  0  0  0  0
   33.1544   10.7782    5.8188 C   0  0  0  0  0  0  0  0  0  0  0  0
   33.1174    9.2962    6.1840 C   0  0  0  0  0  0  0  0  0  0  0  0
   32.2535    8.7281    7.0602 N   0  0  0  0  0  0  0  0  0  0  0  0
   31.3605    9.5345    7.6397 C   0  0  0  0  0  0  0  0  0  0  0  0
   30.3263    8.7246    8.7376 Cl  0  0  0  0  0  0  0  0  0  0  0  0
  1  2  1  0
  2  3  2  0
  2  4  2  0
  2  5  1  0
  5  6  1  0
  6  7  2  0
  7  8  1  0
  8  9  2  0
  9 10  1  0
 10 11  2  0
 11 12  1  0
 11  6  1  0
A    1
 N1 
A    2
 S1 
A    3
 O1 
A    4
 O2 
A    5
 C1 
A    6
 C2 
A    7
 C3 
A    8
 C4 
A    9
 C5 
A   10
 N2 
A   11
 C6 
A   12
CL1 
M  END
>  <ref_pdb>  (1200) 
Ax0310a

>  <ref_mols>  (1200) 
Ax0446a,Ax1080a,Ax0812a,Ax0719a,Ax1140a,Ax0528a,Ax0310a

>  <original SMILES>  (1200) 
NS(=O)(=O)Cc1cccnc1Cl

>  <rationale>  (1200) 
info info set:sulfonimide_whole;hbond:S87+S125; hydroph_interaction:P107; 

>  <experiment>  (1200) 
sulfonimide_whole

>  <cluster_label>  (1200) 
3

>  <cluster_rank>  (1200) 
857

>  <N_interactions>  (1200) 
3

>  <∆∆G>  (1200) 
-4.978189

>  <comRMSD>  (1200) 
0.675868

>  <ROCS_TanimotoCombo>  (1200) 
0.33

>  <ROCS_ShapeTanimoto>  (1200) 
0.178

>  <ROCS_ColorTanimoto>  (1200) 
0.152

$$$$
Z4105195043
     RDKit          3D

 24 26  0  0  0  0  0  0  0  0999 V2000
   29.9883    8.3739    8.3751 C   0  0  0  0  0  0  0  0  0  0  0  0
   30.2672    9.8073    8.2793 C   0  0  0  0  0  0  0  0  0  0  0  0
   31.3372   10.0092    7.3579 N   0  0  0  0  0  0  0  0  0  0  0  0
   32.2374    9.1705    7.0354 N   0  0  0  0  0  0  0  0  0  0  0  0
   33.0153    9.9090    6.1699 C   0  0  0  0  0  0  0  0  0  0  0  0
   32.5148   11.2829    5.9693 C   0  0  0  0  0  0  0  0  0  0  0  0
   31.4383   11.1703    6.7733 C   0  0  0  0  0  0  0  0  0  0  0  0
   30.6035   12.5010    6.7887 C   0  0  0  0  0  0  0  0  0  0  0  0
   29.7795   12.7682    5.9268 O   0  0  0  0  0  0  0  0  0  0  0  0
   30.8123   13.3645    7.8306 N   0  0  0  0  0  0  0  0  0  0  0  0
   32.0144   13.1806    8.3308 C   0  0  0  0  0  0  0  0  0  0  0  0
   32.2028   14.0163    9.5485 C   0  0  0  0  0  0  0  0  0  0  0  0
   31.8859   15.2938    9.3640 O   0  0  0  0  0  0  0  0  0  0  0  0
   30.6103   15.6644    9.8609 C   0  0  0  0  0  0  0  0  0  0  0  0
   29.4558   14.8512    9.2101 C   0  0  0  0  0  0  0  0  0  0  0  0
   28.3647   14.6829   10.2360 C   0  0  0  0  0  0  0  0  0  0  0  0
   28.7361   15.4929    7.9958 C   0  0  0  0  0  0  0  0  0  0  0  0
   29.8331   13.5805    8.8712 C   0  0  0  0  0  0  0  0  0  0  0  0
   33.2865   12.1511    5.0824 C   0  0  0  0  0  0  0  0  0  0  0  0
   34.6163   11.9537    5.5224 C   0  0  2  0  0  0  0  0  0  0  0  0
   35.6827   13.0157    5.2289 C   0  0  0  0  0  0  0  0  0  0  0  0
   35.0994   10.7969    5.3461 O   0  0  0  0  0  0  0  0  0  0  0  0
   34.2749    9.5780    5.4309 C   0  0  2  0  0  0  0  0  0  0  0  0
   34.3216    8.9809    4.0438 C   0  0  0  0  0  0  0  0  0  0  0  0
  1  2  1  0
  2  3  1  0
  3  4  1  0
  4  5  2  0
  5  6  1  0
  6  7  2  0
  7  8  1  0
  8  9  2  0
  8 10  1  0
 10 11  1  0
 11 12  1  0
 12 13  1  0
 13 14  1  0
 14 15  1  0
 15 16  1  0
 15 17  1  0
 15 18  1  0
  6 19  1  0
 19 20  1  0
 20 21  1  6
 20 22  1  0
 22 23  1  0
 23 24  1  6
  7  3  1  0
 18 10  1  0
 23  5  1  0
A    1
 C1 
A    2
 C2 
A    3
 N1 
A    4
 N2 
A    5
 C3 
A    6
 C4 
A    7
 C5 
A    8
 C6 
A    9
 O1 
A   10
 N3 
A   11
 C7 
A   12
 C8 
A   13
 O2 
A   14
 C9 
A   15
 C10
A   16
 C11
A   17
 C12
A   18
 C13
A   19
 C14
A   20
 C15
A   21
 C16
A   22
 O3 
A   23
 C17
A   24
 C18
M  END
>  <ref_pdb>  (1201) 
Ax0310a

>  <ref_mols>  (1201) 
Ax0446a,Ax1080a,Ax0812a,Ax0719a,Ax1140a,Ax0528a,Ax0310a

>  <original SMILES>  (1201) 
CCn1nc2c(c1C(=O)N1CCOCC(C)(C)C1)C[C@H](C)O[C@@H]2C

>  <rationale>  (1201) 
info info set:screening_whole;hbond:S87; hydroph_interaction:P107+Y89+Y90+V124; 

>  <experiment>  (1201) 
screening_whole

>  <cluster_label>  (1201) 
3

>  <cluster_rank>  (1201) 
858

>  <N_interactions>  (1201) 
5

>  <∆∆G>  (1201) 
-5.025859

>  <comRMSD>  (1201) 
0.856187

>  <ROCS_TanimotoCombo>  (1201) 
0.457

>  <ROCS_ShapeTanimoto>  (1201) 
0.266

>  <ROCS_ColorTanimoto>  (1201) 
0.191

$$$$
EN300_1116478
     RDKit          3D

 13 13  0  0  0  0  0  0  0  0999 V2000
   28.4989   14.8611    6.7942 C   0  0  0  0  0  0  0  0  0  0  0  0
   28.6579   15.7606    7.8650 O   0  0  0  0  0  0  0  0  0  0  0  0
   28.6601   15.0047    9.0502 C   0  0  0  0  0  0  0  0  0  0  0  0
   28.7068   13.5512    8.6490 C   0  0  0  0  0  0  0  0  0  0  0  0
   30.0803   13.1454    8.1158 C   0  0  0  0  0  0  0  0  0  0  0  0
   30.2822   11.7211    8.1809 N   0  0  0  0  0  0  0  0  0  0  0  0
   31.2458   11.0620    7.4101 C   0  0  0  0  0  0  0  0  0  0  0  0
   32.0810   11.7194    6.4950 C   0  0  0  0  0  0  0  0  0  0  0  0
   33.0282   11.0205    5.7412 C   0  0  0  0  0  0  0  0  0  0  0  0
   33.1558    9.6521    5.8906 C   0  0  0  0  0  0  0  0  0  0  0  0
   32.3357    8.9958    6.7931 C   0  0  0  0  0  0  0  0  0  0  0  0
   31.3946    9.6698    7.5456 C   0  0  0  0  0  0  0  0  0  0  0  0
   30.5983    8.9224    8.4456 N   0  0  0  0  0  0  0  0  0  0  0  0
  1  2  1  0
  2  3  1  0
  3  4  1  0
  4  5  1  0
  5  6  1  0
  6  7  1  0
  7  8  2  0
  8  9  1  0
  9 10  2  0
 10 11  1  0
 11 12  2  0
 12 13  1  0
 12  7  1  0
A    1
 C1 
A    2
 O1 
A    3
 C2 
A    4
 C3 
A    5
 C4 
A    6
 N1 
A    7
 C5 
A    8
 C6 
A    9
 C7 
A   10
 C8 
A   11
 C9 
A   12
 C10
A   13
 N2 
M  END
>  <ref_pdb>  (1202) 
Ax0310a

>  <ref_mols>  (1202) 
Ax0446a,Ax1080a,Ax0812a,Ax0719a,Ax1140a,Ax0528a,Ax0310a

>  <original SMILES>  (1202) 
COCCCNc1ccccc1N

>  <rationale>  (1202) 
info info set:bb_densepocket2;hbond:S87+S105+S125; hydroph_interaction:P107; 

>  <experiment>  (1202) 
bb_densepocket2

>  <cluster_label>  (1202) 
3

>  <cluster_rank>  (1202) 
859

>  <N_interactions>  (1202) 
4

>  <∆∆G>  (1202) 
-7.232416

>  <comRMSD>  (1202) 
0.634462

>  <ROCS_TanimotoCombo>  (1202) 
0.611

>  <ROCS_ShapeTanimoto>  (1202) 
0.211

>  <ROCS_ColorTanimoto>  (1202) 
0.4

$$$$
EN300_253108
     RDKit          3D

 11 11  0  0  0  0  0  0  0  0999 V2000
   30.7823   12.8530    8.1332 C   0  0  0  0  0  0  0  0  0  0  0  0
   31.2682   11.5073    7.7229 C   0  0  0  0  0  0  0  0  0  0  0  0
   30.5710   10.4158    7.9502 C   0  0  0  0  0  0  0  0  0  0  0  0
   31.0610    9.1567    7.5453 C   0  0  0  0  0  0  0  0  0  0  0  0
   32.2236    9.0009    6.9068 N   0  0  0  0  0  0  0  0  0  0  0  0
   32.9329   10.0957    6.6778 C   0  0  0  0  0  0  0  0  0  0  0  0
   32.4920   11.3593    7.0887 C   0  0  0  0  0  0  0  0  0  0  0  0
   33.4673   12.7817    6.8531 S   0  0  0  0  0  6  0  0  0  0  0  0
   34.8259   12.3044    6.0058 N   0  0  0  0  0  0  0  0  0  0  0  0
   33.9164   13.0826    8.2053 O   0  0  0  0  0  0  0  0  0  0  0  0
   32.8111   13.7090    5.9870 O   0  0  0  0  0  0  0  0  0  0  0  0
  1  2  1  0
  2  3  2  0
  3  4  1  0
  4  5  2  0
  5  6  1  0
  6  7  2  0
  7  8  1  0
  8  9  1  0
  8 10  2  0
  8 11  2  0
  7  2  1  0
A    1
 C1 
A    2
 C2 
A    3
 C3 
A    4
 C4 
A    5
 N1 
A    6
 C5 
A    7
 C6 
A    8
 S1 
A    9
 N2 
A   10
 O1 
A   11
 O2 
M  END
>  <ref_pdb>  (1203) 
Ax0310a

>  <ref_mols>  (1203) 
Ax0446a,Ax1080a,Ax0812a,Ax0719a,Ax1140a,Ax0528a,Ax0310a

>  <original SMILES>  (1203) 
Cc1ccncc1S(N)(=O)=O

>  <rationale>  (1203) 
info info set:sulfonimide_joint;hbond:G127; 

>  <experiment>  (1203) 
sulfonimide_joint

>  <cluster_label>  (1203) 
3

>  <cluster_rank>  (1203) 
860

>  <N_interactions>  (1203) 
2

>  <∆∆G>  (1203) 
-4.671041

>  <comRMSD>  (1203) 
0.975628

>  <ROCS_TanimotoCombo>  (1203) 
0.305

>  <ROCS_ShapeTanimoto>  (1203) 
0.138

>  <ROCS_ColorTanimoto>  (1203) 
0.167

$$$$
EN300_26689710
     RDKit          3D

 26 29  0  0  0  0  0  0  0  0999 V2000
   30.4568    7.9209    8.6474 C   0  0  0  0  0  0  0  0  0  0  0  0
   31.2275    8.9371    7.8700 C   0  0  0  0  0  0  0  0  0  0  0  0
   30.6373   10.2422    8.1634 C   0  0  0  0  0  0  0  0  0  0  0  0
   31.2511   11.3818    7.5275 C   0  0  0  0  0  0  0  0  0  0  0  0
   30.7724   12.7497    7.7255 C   0  0  0  0  0  0  0  0  0  0  0  0
   30.7413   13.4942    6.7669 O   0  0  0  0  0  0  0  0  0  0  0  0
   30.4006   13.0602    8.9545 N   0  0  0  0  0  0  0  0  0  0  0  0
   29.6231   14.0971    9.0682 C   0  0  0  0  0  0  0  0  0  0  0  0
   30.3767   15.3218    9.4708 C   0  0  0  0  0  0  0  0  0  0  0  0
   31.0152   16.1873    9.8977 N   0  0  0  0  0  0  0  0  0  0  0  0
   28.7798   14.1101    7.8283 C   0  0  0  0  0  0  0  0  0  0  0  0
   27.8463   15.2312    7.8956 C   0  0  0  0  0  0  0  0  0  0  0  0
   27.7360   15.9200    9.2395 C   0  0  0  0  0  0  0  0  0  0  0  0
   28.0265   15.0594   10.4541 C   0  0  0  0  0  0  0  0  0  0  0  0
   28.6504   13.9421   10.2041 C   0  0  0  0  0  0  0  0  0  0  0  0
   32.4389   11.1890    6.6333 C   0  0  0  0  0  0  0  0  0  0  0  0
   33.2074   12.0918    5.9424 N   0  0  0  0  0  0  0  0  0  0  0  0
   34.1111   11.3629    5.3547 C   0  0  0  0  0  0  0  0  0  0  0  0
   33.9237   10.0351    5.6311 N   0  0  0  0  0  0  0  0  0  0  0  0
   32.8442    9.8724    6.4755 C   0  0  0  0  0  0  0  0  0  0  0  0
   32.2894    8.7265    7.0481 N   0  0  0  0  0  0  0  0  0  0  0  0
   34.8060    9.0765    5.0847 C   0  0  0  0  0  0  0  0  0  0  0  0
   34.8114    8.8903    3.7311 C   0  0  0  0  0  0  0  0  0  0  0  0
   35.6201    9.8016    3.0546 C   0  0  0  0  0  0  0  0  0  0  0  0
   35.3182   11.2965    3.2257 C   0  0  0  0  0  0  0  0  0  0  0  0
   35.2310   11.8707    4.4993 C   0  0  0  0  0  0  0  0  0  0  0  0
  1  2  1  0
  2  3  2  0
  3  4  1  0
  4  5  1  0
  5  6  2  0
  5  7  1  0
  7  8  1  0
  8  9  1  0
  9 10  3  0
  8 11  1  0
 11 12  1  0
 12 13  1  0
 13 14  1  0
 14 15  1  0
  4 16  2  0
 16 17  1  0
 17 18  2  0
 18 19  1  0
 19 20  1  0
 20 21  2  0
 19 22  1  0
 22 23  1  0
 23 24  1  0
 24 25  1  0
 25 26  1  0
 21  2  1  0
 15  8  1  0
 20 16  1  0
 26 18  1  0
A    1
 C1 
A    2
 C2 
A    3
 C3 
A    4
 C4 
A    5
 C5 
A    6
 O1 
A    7
 N1 
A    8
 C6 
A    9
 C7 
A   10
 N2 
A   11
 C8 
A   12
 C9 
A   13
 C10
A   14
 C11
A   15
 C12
A   16
 C13
A   17
 N3 
A   18
 C14
A   19
 N4 
A   20
 C15
A   21
 N5 
A   22
 C16
A   23
 C17
A   24
 C18
A   25
 C19
A   26
 C20
M  END
>  <ref_pdb>  (1204) 
Ax0310a

>  <ref_mols>  (1204) 
Ax0446a,Ax1080a,Ax0812a,Ax0719a,Ax1140a,Ax0528a,Ax0310a

>  <original SMILES>  (1204) 
Cc1cc(C(=O)NC2(C#N)CCCCC2)c2nc3n(c2n1)CCCCC3

>  <rationale>  (1204) 
info info set:bb_whole;hbond:S87+S125; hydroph_interaction:Y89+Y90+V124; 

>  <experiment>  (1204) 
bb_whole

>  <cluster_label>  (1204) 
3

>  <cluster_rank>  (1204) 
861

>  <N_interactions>  (1204) 
5

>  <∆∆G>  (1204) 
-2.485388

>  <comRMSD>  (1204) 
0.650692

>  <ROCS_TanimotoCombo>  (1204) 
0.409

>  <ROCS_ShapeTanimoto>  (1204) 
0.256

>  <ROCS_ColorTanimoto>  (1204) 
0.153

$$$$
EN300_801105
     RDKit          3D

 16 17  0  0  0  0  0  0  0  0999 V2000
   34.8960    8.2697    4.6814 C   0  0  0  0  0  0  0  0  0  0  0  0
   34.2789    9.5575    5.0945 C   0  0  0  0  0  0  0  0  0  0  0  0
   35.1921   10.4180    4.3399 C   0  0  0  0  0  0  0  0  0  0  0  0
   34.9365   11.8599    4.4682 C   0  0  0  0  0  0  0  0  0  0  0  0
   33.8155   12.5725    5.3006 C   0  0  0  0  0  0  0  0  0  0  0  0
   33.0031   11.4229    5.9883 C   0  0  0  0  0  0  0  0  0  0  0  0
   31.8960   12.0182    6.8081 C   0  0  0  0  0  0  0  0  0  0  0  0
   30.9234   11.2069    7.5941 C   0  0  0  0  0  0  0  0  0  0  0  0
   29.9942   11.6487    8.2679 O   0  0  0  0  0  0  0  0  0  0  0  0
   31.2806    9.7448    7.4030 C   0  0  0  0  0  0  0  0  0  0  0  0
   30.2862    8.9128    8.2197 C   0  0  0  0  0  0  0  0  0  0  0  0
   30.2451    9.3508    9.5096 C   0  0  0  0  0  0  0  0  0  0  0  0
   28.7984    8.9740    8.2556 C   0  0  0  0  0  0  0  0  0  0  0  0
   30.6818    7.5986    8.4244 C   0  0  0  0  0  0  0  0  0  0  0  0
   32.3222    9.1942    6.6431 N   0  0  0  0  0  0  0  0  0  0  0  0
   33.1863   10.0010    5.9227 C   0  0  0  0  0  0  0  0  0  0  0  0
  1  2  1  0
  2  3  2  0
  3  4  1  0
  4  5  2  0
  5  6  1  0
  6  7  2  0
  7  8  1  0
  8  9  1  0
  8 10  2  0
 10 11  1  0
 11 12  1  0
 11 13  1  0
 11 14  1  0
 10 15  1  0
 15 16  2  0
 16  2  1  0
 16  6  1  0
A    1
 C1 
A    2
 C2 
A    3
 C3 
A    4
 C4 
A    5
 C5 
A    6
 C6 
A    7
 C7 
A    8
 C8 
A    9
 O1 
A   10
 C9 
A   11
 C10
A   12
 C11
A   13
 C12
A   14
 C13
A   15
 N1 
A   16
 C14
M  END
>  <ref_pdb>  (1205) 
Ax0310a

>  <ref_mols>  (1205) 
Ax0446a,Ax1080a,Ax0812a,Ax0719a,Ax1140a,Ax0528a,Ax0310a

>  <original SMILES>  (1205) 
Cc1cccc2cc(O)c(C(C)(C)C)nc12

>  <rationale>  (1205) 
info info set:bb_densepocket2;

>  <experiment>  (1205) 
bb_densepocket2

>  <cluster_label>  (1205) 
3

>  <cluster_rank>  (1205) 
862

>  <N_interactions>  (1205) 
0

>  <∆∆G>  (1205) 
-4.554158

>  <comRMSD>  (1205) 
0.894262

>  <ROCS_TanimotoCombo>  (1205) 
0.617

>  <ROCS_ShapeTanimoto>  (1205) 
0.27

>  <ROCS_ColorTanimoto>  (1205) 
0.347

$$$$
EN300_08564
     RDKit          3D

 15 16  0  0  0  0  0  0  0  0999 V2000
   33.8331   10.3060    3.4940 N   0  0  0  0  0  0  0  0  0  0  0  0
   34.3391   10.0045    5.0552 S   0  0  0  0  0  6  0  0  0  0  0  0
   35.3606   10.9887    5.2806 O   0  0  0  0  0  0  0  0  0  0  0  0
   34.6386    8.5933    5.0705 O   0  0  0  0  0  0  0  0  0  0  0  0
   33.0749   10.2595    6.1995 C   0  0  0  0  0  0  0  0  0  0  0  0
   32.1970    9.0832    6.6726 C   0  0  0  0  0  0  0  0  0  0  0  0
   31.0917    9.3508    7.6720 C   0  0  0  0  0  0  0  0  0  0  0  0
   30.9494   10.7374    8.1409 C   0  0  0  0  0  0  0  0  0  0  0  0
   31.7485   11.7596    7.7362 C   0  0  0  0  0  0  0  0  0  0  0  0
   31.5139   13.0098    8.3342 N   0  0  0  0  0  0  0  0  0  0  0  0
   30.3606   13.7255    8.4773 C   0  0  0  0  0  0  0  0  0  0  0  0
   30.6247   14.8239    9.1476 N   0  0  0  0  0  0  0  0  0  0  0  0
   31.9704   14.7803    9.4238 N   0  0  0  0  0  0  0  0  0  0  0  0
   32.5187   13.6913    8.9250 N   0  0  0  0  0  0  0  0  0  0  0  0
   32.7735   11.5438    6.7881 C   0  0  0  0  0  0  0  0  0  0  0  0
  1  2  1  0
  2  3  2  0
  2  4  2  0
  2  5  1  0
  5  6  2  0
  6  7  1  0
  7  8  2  0
  8  9  1  0
  9 10  1  0
 10 11  1  0
 11 12  2  0
 12 13  1  0
 13 14  2  0
  9 15  2  0
 15  5  1  0
 14 10  1  0
A    1
 N1 
A    2
 S1 
A    3
 O1 
A    4
 O2 
A    5
 C1 
A    6
 C2 
A    7
 C3 
A    8
 C4 
A    9
 C5 
A   10
 N2 
A   11
 C6 
A   12
 N3 
A   13
 N4 
A   14
 N5 
A   15
 C7 
M  END
>  <ref_pdb>  (1206) 
Ax0310a

>  <ref_mols>  (1206) 
Ax0446a,Ax1080a,Ax0812a,Ax0719a,Ax1140a,Ax0528a,Ax0310a

>  <original SMILES>  (1206) 
NS(=O)(=O)c1cccc(-n2cnnn2)c1

>  <rationale>  (1206) 
info info set:sulfonimide_whole;hbond:S87+G127; 

>  <experiment>  (1206) 
sulfonimide_whole

>  <cluster_label>  (1206) 
3

>  <cluster_rank>  (1206) 
863

>  <N_interactions>  (1206) 
2

>  <∆∆G>  (1206) 
-4.15075

>  <comRMSD>  (1206) 
0.508235

>  <ROCS_TanimotoCombo>  (1206) 
0.334

>  <ROCS_ShapeTanimoto>  (1206) 
0.186

>  <ROCS_ColorTanimoto>  (1206) 
0.148

$$$$
EN300_1120849
     RDKit          3D

 13 13  0  0  0  0  0  0  0  0999 V2000
   34.1214   15.3202    9.3001 N   0  0  0  0  0  0  0  0  0  0  0  0
   34.6741   13.8958    8.6318 S   0  0  0  0  0  6  0  0  0  0  0  0
   33.6881   12.9375    9.0473 O   0  0  0  0  0  0  0  0  0  0  0  0
   36.0713   13.7854    8.9719 O   0  0  0  0  0  0  0  0  0  0  0  0
   34.5732   14.0695    6.8849 C   0  0  0  0  0  0  0  0  0  0  0  0
   33.5793   13.3510    6.2014 C   0  0  0  0  0  0  0  0  0  0  0  0
   32.7216   12.6826    7.1443 O   0  0  0  0  0  0  0  0  0  0  0  0
   32.0071   11.6122    6.5328 C   0  0  0  0  0  0  0  0  0  0  0  0
   32.9290   10.6760    6.0816 C   0  0  0  0  0  0  0  0  0  0  0  0
   32.7481    9.2264    6.4033 C   0  0  0  0  0  0  0  0  0  0  0  0
   32.0917    8.8835    7.6226 O   0  0  0  0  0  0  0  0  0  0  0  0
   30.9391    9.6325    7.9710 C   0  0  0  0  0  0  0  0  0  0  0  0
   30.9571   11.1114    7.5455 C   0  0  0  0  0  0  0  0  0  0  0  0
  1  2  1  0
  2  3  2  0
  2  4  2  0
  2  5  1  0
  5  6  1  0
  6  7  1  0
  7  8  1  0
  8  9  1  0
  9 10  1  0
 10 11  1  0
 11 12  1  0
 12 13  1  0
 13  8  1  0
A    1
 N1 
A    2
 S1 
A    3
 O1 
A    4
 O2 
A    5
 C1 
A    6
 C2 
A    7
 O3 
A    8
 C3 
A    9
 C4 
A   10
 C5 
A   11
 O4 
A   12
 C6 
A   13
 C7 
M  END
>  <ref_pdb>  (1207) 
Ax0310a

>  <ref_mols>  (1207) 
Ax0446a,Ax1080a,Ax0812a,Ax0719a,Ax1140a,Ax0528a,Ax0310a

>  <original SMILES>  (1207) 
NS(=O)(=O)CCOC1CCOCC1

>  <rationale>  (1207) 
info info set:sulfonimide_whole;hbond:S87+G127+E85; 

>  <experiment>  (1207) 
sulfonimide_whole

>  <cluster_label>  (1207) 
3

>  <cluster_rank>  (1207) 
864

>  <N_interactions>  (1207) 
3

>  <∆∆G>  (1207) 
-4.022028

>  <comRMSD>  (1207) 
0.64123

>  <ROCS_TanimotoCombo>  (1207) 
0.309

>  <ROCS_ShapeTanimoto>  (1207) 
0.166

>  <ROCS_ColorTanimoto>  (1207) 
0.142

$$$$
EN300_22192873
     RDKit          3D

 12 13  0  0  0  0  0  0  0  0999 V2000
   35.2121    8.2971    5.1586 N   0  0  0  0  0  0  0  0  0  0  0  0
   34.0473    8.8999    4.6074 C   0  0  0  0  0  0  0  0  0  0  0  0
   33.8284    8.7243    3.4261 O   0  0  0  0  0  0  0  0  0  0  0  0
   33.1342    9.6964    5.5364 C   0  0  0  0  0  0  0  0  0  0  0  0
   33.1146   11.1829    5.0800 C   0  0  0  0  0  0  0  0  0  0  0  0
   32.1422   11.8368    6.0721 C   0  0  0  0  0  0  0  0  0  0  0  0
   31.4969   10.9875    7.1351 C   0  0  0  0  0  0  0  0  0  0  0  0
   30.6219   11.4500    8.0532 N   0  0  0  0  0  0  0  0  0  0  0  0
   30.1852   10.4324    8.9109 N   0  0  0  0  0  0  0  0  0  0  0  0
   30.8132    9.3363    8.4997 C   0  0  0  0  0  0  0  0  0  0  0  0
   31.6994    9.6725    7.3153 C   0  0  0  0  0  0  0  0  0  0  0  0
   32.5200    8.9837    6.5378 N   0  0  0  0  0  0  0  0  0  0  0  0
  1  2  1  0
  2  3  2  0
  2  4  1  0
  4  5  2  0
  5  6  1  0
  6  7  2  0
  7  8  1  0
  8  9  1  0
  9 10  2  0
 10 11  1  0
 11 12  2  0
 12  4  1  0
 11  7  1  0
A    1
 N1 
A    2
 C1 
A    3
 O1 
A    4
 C2 
A    5
 C3 
A    6
 C4 
A    7
 C5 
A    8
 N2 
A    9
 N3 
A   10
 C6 
A   11
 C7 
A   12
 N4 
M  END
>  <ref_pdb>  (1208) 
Ax0310a

>  <ref_mols>  (1208) 
Ax0446a,Ax1080a,Ax0812a,Ax0719a,Ax1140a,Ax0528a,Ax0310a

>  <original SMILES>  (1208) 
NC(=O)c1ccc2[nH]ncc2n1

>  <rationale>  (1208) 
info info set:bb_densepocket2;hbond:G127; hydroph_interaction:P107; 

>  <experiment>  (1208) 
bb_densepocket2

>  <cluster_label>  (1208) 
3

>  <cluster_rank>  (1208) 
865

>  <N_interactions>  (1208) 
3

>  <∆∆G>  (1208) 
-1.72617

>  <comRMSD>  (1208) 
0.915717

>  <ROCS_TanimotoCombo>  (1208) 
0.609

>  <ROCS_ShapeTanimoto>  (1208) 
0.197

>  <ROCS_ColorTanimoto>  (1208) 
0.413

$$$$
EN300_283808
     RDKit          3D

 14 14  0  0  0  0  0  0  0  0999 V2000
   34.1487   15.2448    9.3107 N   0  0  0  0  0  0  0  0  0  0  0  0
   33.4853   13.9150    8.4993 S   0  0  0  0  0  6  0  0  0  0  0  0
   34.1042   12.7958    9.1037 O   0  0  0  0  0  0  0  0  0  0  0  0
   32.0470   14.0740    8.5544 O   0  0  0  0  0  0  0  0  0  0  0  0
   33.9712   13.9109    6.8385 C   0  0  0  0  0  0  0  0  0  0  0  0
   33.1432   13.2479    5.7733 C   0  0  0  0  0  0  0  0  0  0  0  0
   32.6623   11.9241    6.2695 C   0  0  0  0  0  0  0  0  0  0  0  0
   33.3296   10.6623    5.7338 C   0  0  0  0  0  0  0  0  0  0  0  0
   32.8811    9.4646    6.2549 C   0  0  0  0  0  0  0  0  0  0  0  0
   31.8857    9.4741    7.2067 C   0  0  0  0  0  0  0  0  0  0  0  0
   31.2094    8.1651    8.0117 Cl  0  0  0  0  0  0  0  0  0  0  0  0
   31.3278   10.5725    7.6273 C   0  0  0  0  0  0  0  0  0  0  0  0
   30.1808   10.2702    8.7390 Cl  0  0  0  0  0  0  0  0  0  0  0  0
   31.6673   11.8070    7.2003 C   0  0  0  0  0  0  0  0  0  0  0  0
  1  2  1  0
  2  3  2  0
  2  4  2  0
  2  5  1  0
  5  6  1  0
  6  7  1  0
  7  8  2  0
  8  9  1  0
  9 10  2  0
 10 11  1  0
 10 12  1  0
 12 13  1  0
 12 14  2  0
 14  7  1  0
A    1
 N1 
A    2
 S1 
A    3
 O1 
A    4
 O2 
A    5
 C1 
A    6
 C2 
A    7
 C3 
A    8
 C4 
A    9
 C5 
A   10
 C6 
A   11
CL1 
A   12
 C7 
A   13
CL2 
A   14
 C8 
M  END
>  <ref_pdb>  (1209) 
Ax0310a

>  <ref_mols>  (1209) 
Ax0446a,Ax1080a,Ax0812a,Ax0719a,Ax1140a,Ax0528a,Ax0310a

>  <original SMILES>  (1209) 
NS(=O)(=O)CCc1ccc(Cl)c(Cl)c1

>  <rationale>  (1209) 
info info set:sulfonimide_whole;hbond:S87+G127+E85; 

>  <experiment>  (1209) 
sulfonimide_whole

>  <cluster_label>  (1209) 
3

>  <cluster_rank>  (1209) 
866

>  <N_interactions>  (1209) 
3

>  <∆∆G>  (1209) 
-1.651038

>  <comRMSD>  (1209) 
0.747052

>  <ROCS_TanimotoCombo>  (1209) 
0.338

>  <ROCS_ShapeTanimoto>  (1209) 
0.187

>  <ROCS_ColorTanimoto>  (1209) 
0.151

$$$$
EN300_28735
     RDKit          3D

 15 15  0  0  0  0  0  0  0  0999 V2000
   34.3832    9.3725    3.3560 C   0  0  0  0  0  0  0  0  0  0  0  0
   33.5617   10.3566    3.9705 O   0  0  0  0  0  0  0  0  0  0  0  0
   33.8319   10.6608    5.2700 C   0  0  0  0  0  0  0  0  0  0  0  0
   34.9794   10.8676    5.5794 O   0  0  0  0  0  0  0  0  0  0  0  0
   32.7889   10.7377    6.2138 C   0  0  0  0  0  0  0  0  0  0  0  0
   32.2021   11.9445    6.5266 C   0  0  0  0  0  0  0  0  0  0  0  0
   31.0832   11.9197    7.5458 C   0  0  0  0  0  0  0  0  0  0  0  0
   30.3291   13.4575    7.9288 S   0  0  0  0  0  6  0  0  0  0  0  0
   29.0190   13.1476    8.8889 N   0  0  0  0  0  0  0  0  0  0  0  0
   31.2608   14.2330    8.7247 O   0  0  0  0  0  0  0  0  0  0  0  0
   29.7550   13.8896    6.6868 O   0  0  0  0  0  0  0  0  0  0  0  0
   30.6357   10.7254    8.1774 C   0  0  0  0  0  0  0  0  0  0  0  0
   31.2724    9.5696    7.8116 C   0  0  0  0  0  0  0  0  0  0  0  0
   32.3046    9.5829    6.8684 C   0  0  0  0  0  0  0  0  0  0  0  0
   32.8413    8.4339    6.5914 F   0  0  0  0  0  0  0  0  0  0  0  0
  1  2  1  0
  2  3  1  0
  3  4  2  0
  3  5  1  0
  5  6  2  0
  6  7  1  0
  7  8  1  0
  8  9  1  0
  8 10  2  0
  8 11  2  0
  7 12  2  0
 12 13  1  0
 13 14  2  0
 14 15  1  0
 14  5  1  0
A    1
 C1 
A    2
 O1 
A    3
 C2 
A    4
 O2 
A    5
 C3 
A    6
 C4 
A    7
 C5 
A    8
 S1 
A    9
 N1 
A   10
 O3 
A   11
 O4 
A   12
 C6 
A   13
 C7 
A   14
 C8 
A   15
 F1 
M  END
>  <ref_pdb>  (1210) 
Ax0310a

>  <ref_mols>  (1210) 
Ax0446a,Ax1080a,Ax0812a,Ax0719a,Ax1140a,Ax0528a,Ax0310a

>  <original SMILES>  (1210) 
COC(=O)c1cc(S(N)(=O)=O)ccc1F

>  <rationale>  (1210) 
info info set:sulfonimide_whole;halogenbond:S105; hbond:S87+S125; 

>  <experiment>  (1210) 
sulfonimide_whole

>  <cluster_label>  (1210) 
3

>  <cluster_rank>  (1210) 
867

>  <N_interactions>  (1210) 
3

>  <∆∆G>  (1210) 
-4.747461

>  <comRMSD>  (1210) 
0.524706

>  <ROCS_TanimotoCombo>  (1210) 
0.332

>  <ROCS_ShapeTanimoto>  (1210) 
0.189

>  <ROCS_ColorTanimoto>  (1210) 
0.143

$$$$
EN300_272017
     RDKit          3D

 15 16  0  0  0  0  0  0  0  0999 V2000
   32.6509   13.7489    6.2377 N   0  0  0  0  0  0  0  0  0  0  0  0
   31.4802   13.3194    7.3674 S   0  0  0  0  0  6  0  0  0  0  0  0
   30.2029   13.5755    6.7382 O   0  0  0  0  0  0  0  0  0  0  0  0
   31.8354   13.8454    8.6697 O   0  0  0  0  0  0  0  0  0  0  0  0
   31.7507   11.6509    7.2622 C   0  0  0  0  0  0  0  0  0  0  0  0
   30.9173   10.8376    7.9603 C   0  0  0  0  0  0  0  0  0  0  0  0
   31.1311    9.5130    7.8662 C   0  0  0  0  0  0  0  0  0  0  0  0
   30.1082    8.5036    8.7505 Cl  0  0  0  0  0  0  0  0  0  0  0  0
   32.1601    9.0260    7.0693 C   0  0  0  0  0  0  0  0  0  0  0  0
   33.0026    9.8993    6.3614 C   0  0  0  0  0  0  0  0  0  0  0  0
   34.0444    9.4354    5.5599 C   0  0  0  0  0  0  0  0  0  0  0  0
   34.9227   10.4424    4.8439 C   0  0  0  0  0  0  0  0  0  0  0  0
   34.6141   11.7807    5.0367 C   0  0  0  0  0  0  0  0  0  0  0  0
   33.5907   12.1698    5.8141 N   0  0  0  0  0  0  0  0  0  0  0  0
   32.8061   11.2615    6.4583 C   0  0  0  0  0  0  0  0  0  0  0  0
  1  2  1  0
  2  3  2  0
  2  4  2  0
  2  5  1  0
  5  6  2  0
  6  7  1  0
  7  8  1  0
  7  9  2  0
  9 10  1  0
 10 11  2  0
 11 12  1  0
 12 13  2  0
 13 14  1  0
 14 15  2  0
 15  5  1  0
 15 10  1  0
A    1
 N1 
A    2
 S1 
A    3
 O1 
A    4
 O2 
A    5
 C1 
A    6
 C2 
A    7
 C3 
A    8
CL1 
A    9
 C4 
A   10
 C5 
A   11
 C6 
A   12
 C7 
A   13
 C8 
A   14
 N2 
A   15
 C9 
M  END
>  <ref_pdb>  (1211) 
Ax0310a

>  <ref_mols>  (1211) 
Ax0446a,Ax1080a,Ax0812a,Ax0719a,Ax1140a,Ax0528a,Ax0310a

>  <original SMILES>  (1211) 
NS(=O)(=O)c1cc(Cl)cc2cccnc12

>  <rationale>  (1211) 
info info set:sulfonimide_whole;hbond:S87; 

>  <experiment>  (1211) 
sulfonimide_whole

>  <cluster_label>  (1211) 
3

>  <cluster_rank>  (1211) 
868

>  <N_interactions>  (1211) 
1

>  <∆∆G>  (1211) 
-3.030947

>  <comRMSD>  (1211) 
0.538845

>  <ROCS_TanimotoCombo>  (1211) 
0.338

>  <ROCS_ShapeTanimoto>  (1211) 
0.205

>  <ROCS_ColorTanimoto>  (1211) 
0.133

$$$$
EN300_1453185
     RDKit          3D

 14 15  0  0  0  0  0  0  0  0999 V2000
   34.6955   14.5632    8.8816 C   0  0  0  0  0  0  0  0  0  0  0  0
   34.9960   14.9074    7.5772 N   0  0  0  0  0  0  0  0  0  0  0  0
   34.3696   14.0733    6.2604 S   0  0  0  0  0  6  0  0  0  0  0  0
   35.4296   13.3217    5.6693 O   0  0  0  0  0  0  0  0  0  0  0  0
   33.6503   14.9160    5.4040 O   0  0  0  0  0  0  0  0  0  0  0  0
   33.1703   12.9567    6.8945 C   0  0  0  0  0  0  0  0  0  0  0  0
   32.0131   13.3674    7.8599 C   0  0  0  0  0  0  0  0  0  0  0  0
   31.0641   12.3262    8.3323 C   0  0  0  0  0  0  0  0  0  0  0  0
   31.2953   10.9638    7.8786 C   0  0  0  0  0  0  0  0  0  0  0  0
   32.3256   10.6220    7.0063 C   0  0  0  0  0  0  0  0  0  0  0  0
   33.3065   11.6552    6.4834 C   0  0  0  0  0  0  0  0  0  0  0  0
   32.2859    9.1631    6.7115 C   0  0  0  0  0  0  0  0  0  0  0  0
   31.4432    8.7509    7.7669 C   0  0  0  0  0  0  0  0  0  0  0  0
   30.5730    9.8784    8.2567 C   0  0  0  0  0  0  0  0  0  0  0  0
  1  2  1  0
  2  3  1  0
  3  4  2  0
  3  5  2  0
  3  6  1  0
  6  7  2  0
  7  8  1  0
  8  9  2  0
  9 10  1  0
 10 11  2  0
 10 12  1  0
 12 13  1  0
 13 14  1  0
 11  6  1  0
 14  9  1  0
A    1
 C1 
A    2
 N1 
A    3
 S1 
A    4
 O1 
A    5
 O2 
A    6
 C2 
A    7
 C3 
A    8
 C4 
A    9
 C5 
A   10
 C6 
A   11
 C7 
A   12
 C8 
A   13
 C9 
A   14
 C10
M  END
>  <ref_pdb>  (1212) 
Ax0310a

>  <ref_mols>  (1212) 
Ax0446a,Ax1080a,Ax0812a,Ax0719a,Ax1140a,Ax0528a,Ax0310a

>  <original SMILES>  (1212) 
CNS(=O)(=O)c1ccc2c(c1)CCC2

>  <rationale>  (1212) 
info info set:sulfonimide_joint;

>  <experiment>  (1212) 
sulfonimide_joint

>  <cluster_label>  (1212) 
3

>  <cluster_rank>  (1212) 
869

>  <N_interactions>  (1212) 
0

>  <∆∆G>  (1212) 
-3.835165

>  <comRMSD>  (1212) 
0.790167

>  <ROCS_TanimotoCombo>  (1212) 
0.321

>  <ROCS_ShapeTanimoto>  (1212) 
0.19

>  <ROCS_ColorTanimoto>  (1212) 
0.131

$$$$
EN300_65108
     RDKit          3D

 15 15  0  0  0  0  0  0  0  0999 V2000
   35.3766    8.5966    3.9910 C   0  0  0  0  0  0  0  0  0  0  0  0
   34.5369    9.6363    4.6568 C   0  0  0  0  0  0  0  0  0  0  0  0
   33.8123   10.7176    3.7627 C   0  0  0  0  0  0  0  0  0  0  0  0
   33.6003    9.0149    5.4247 N   0  0  0  0  0  0  0  0  0  0  0  0
   32.7074    9.6182    6.3091 C   0  0  0  0  0  0  0  0  0  0  0  0
   31.7986    8.8594    7.1976 C   0  0  0  0  0  0  0  0  0  0  0  0
   30.8312    9.6209    8.1308 C   0  0  0  0  0  0  0  0  0  0  0  0
   30.8903   11.1771    8.0791 C   0  0  0  0  0  0  0  0  0  0  0  0
   31.7929   11.7950    7.2245 C   0  0  0  0  0  0  0  0  0  0  0  0
   31.9359   13.0940    7.1303 N   0  0  0  0  0  0  0  0  0  0  0  0
   33.5170   13.5447    6.7334 S   0  0  0  0  0  6  0  0  0  0  0  0
   34.1369   14.1279    8.2922 C   0  0  0  0  0  0  0  0  0  0  0  0
   33.4417   14.6224    5.7961 O   0  0  0  0  0  0  0  0  0  0  0  0
   34.2988   12.4157    6.3595 O   0  0  0  0  0  0  0  0  0  0  0  0
   32.7080   10.9713    6.3232 C   0  0  0  0  0  0  0  0  0  0  0  0
  1  2  1  0
  2  3  1  0
  2  4  1  0
  4  5  1  0
  5  6  2  0
  6  7  1  0
  7  8  2  0
  8  9  1  0
  9 10  1  0
 10 11  1  0
 11 12  1  0
 11 13  2  0
 11 14  2  0
  9 15  2  0
 15  5  1  0
A    1
 C1 
A    2
 C2 
A    3
 C3 
A    4
 N1 
A    5
 C4 
A    6
 C5 
A    7
 C6 
A    8
 C7 
A    9
 C8 
A   10
 N2 
A   11
 S1 
A   12
 C9 
A   13
 O1 
A   14
 O2 
A   15
 C10
M  END
>  <ref_pdb>  (1213) 
Ax0310a

>  <ref_mols>  (1213) 
Ax0446a,Ax1080a,Ax0812a,Ax0719a,Ax1140a,Ax0528a,Ax0310a

>  <original SMILES>  (1213) 
CC(C)Nc1cccc(NS(C)(=O)=O)c1

>  <rationale>  (1213) 
info info set:sulfonimide_joint;hbond:S105+G127; hydroph_interaction:P107; 

>  <experiment>  (1213) 
sulfonimide_joint

>  <cluster_label>  (1213) 
3

>  <cluster_rank>  (1213) 
870

>  <N_interactions>  (1213) 
3

>  <∆∆G>  (1213) 
-5.335423

>  <comRMSD>  (1213) 
0.622511

>  <ROCS_TanimotoCombo>  (1213) 
0.314

>  <ROCS_ShapeTanimoto>  (1213) 
0.178

>  <ROCS_ColorTanimoto>  (1213) 
0.136

$$$$
EN300_69257
     RDKit          3D

 11 11  0  0  0  0  0  0  0  0999 V2000
   35.1736   14.7594    7.2416 N   0  0  0  0  0  0  0  0  0  0  0  0
   34.0474   13.7264    6.4800 S   0  0  0  0  0  6  0  0  0  0  0  0
   33.2306   14.4703    5.5753 O   0  0  0  0  0  0  0  0  0  0  0  0
   34.8413   12.6470    5.9669 O   0  0  0  0  0  0  0  0  0  0  0  0
   33.0216   13.1645    7.8083 C   0  0  0  0  0  0  0  0  0  0  0  0
   32.3883   11.8161    7.5609 C   0  0  0  0  0  0  0  0  0  0  0  0
   33.1861   10.7965    6.7099 C   0  0  0  0  0  0  0  0  0  0  0  0
   32.4253    9.4186    6.6310 C   0  0  0  0  0  0  0  0  0  0  0  0
   31.1083    9.4633    7.4073 C   0  0  0  0  0  0  0  0  0  0  0  0
   30.6314   10.5448    8.0570 C   0  0  0  0  0  0  0  0  0  0  0  0
   31.2248   11.6914    8.1425 N   0  0  0  0  0  0  0  0  0  0  0  0
  1  2  1  0
  2  3  2  0
  2  4  2  0
  2  5  1  0
  5  6  1  0
  6  7  2  0
  7  8  1  0
  8  9  2  0
  9 10  1  0
 10 11  2  0
 11  6  1  0
A    1
 N1 
A    2
 S1 
A    3
 O1 
A    4
 O2 
A    5
 C1 
A    6
 C2 
A    7
 C3 
A    8
 C4 
A    9
 C5 
A   10
 C6 
A   11
 N2 
M  END
>  <ref_pdb>  (1214) 
Ax0310a

>  <ref_mols>  (1214) 
Ax0446a,Ax1080a,Ax0812a,Ax0719a,Ax1140a,Ax0528a,Ax0310a

>  <original SMILES>  (1214) 
NS(=O)(=O)Cc1ccccn1

>  <rationale>  (1214) 
info info set:sulfonimide_joint;hbond:G127+E85; 

>  <experiment>  (1214) 
sulfonimide_joint

>  <cluster_label>  (1214) 
3

>  <cluster_rank>  (1214) 
871

>  <N_interactions>  (1214) 
2

>  <∆∆G>  (1214) 
-3.463384

>  <comRMSD>  (1214) 
0.991048

>  <ROCS_TanimotoCombo>  (1214) 
0.307

>  <ROCS_ShapeTanimoto>  (1214) 
0.149

>  <ROCS_ColorTanimoto>  (1214) 
0.158

$$$$
Z242283828
     RDKit          3D

 16 16  0  0  0  0  0  0  0  0999 V2000
   34.4528    8.8867    4.7293 C   0  0  0  0  0  0  0  0  0  0  0  0
   33.4148    9.5704    5.5548 C   0  0  0  0  0  0  0  0  0  0  0  0
   33.1271   10.9910    5.3613 C   0  0  0  0  0  0  0  0  0  0  0  0
   32.1628   11.6340    6.1333 C   0  0  0  0  0  0  0  0  0  0  0  0
   31.5019   10.8724    7.0741 C   0  0  0  0  0  0  0  0  0  0  0  0
   30.4669   11.4448    7.9409 C   0  0  0  0  0  0  0  0  0  0  0  0
   30.0673   10.7369    8.8199 O   0  0  0  0  0  0  0  0  0  0  0  0
   30.0343   12.7283    7.6670 N   0  0  0  0  0  0  0  0  0  0  0  0
   29.0384   13.3797    8.4090 C   0  0  0  0  0  0  0  0  0  0  0  0
   28.1393   14.2931    7.6711 C   0  0  0  0  0  0  0  0  0  0  0  0
   28.4091   15.5052    7.6199 O   0  0  0  0  0  0  0  0  0  0  0  0
   27.0197   13.7270    7.0388 N   0  0  0  0  0  0  0  0  0  0  0  0
   26.8502   12.3340    6.7286 C   0  0  0  0  0  0  0  0  0  0  0  0
   25.8526   14.5053    6.6997 C   0  0  0  0  0  0  0  0  0  0  0  0
   31.8094    9.5252    7.2194 C   0  0  0  0  0  0  0  0  0  0  0  0
   32.7431    8.8689    6.4879 N   0  0  0  0  0  0  0  0  0  0  0  0
  1  2  1  0
  2  3  2  0
  3  4  1  0
  4  5  2  0
  5  6  1  0
  6  7  2  0
  6  8  1  0
  8  9  1  0
  9 10  1  0
 10 11  2  0
 10 12  1  0
 12 13  1  0
 12 14  1  0
  5 15  1  0
 15 16  2  0
 16  2  1  0
A    1
 C1 
A    2
 C2 
A    3
 C3 
A    4
 C4 
A    5
 C5 
A    6
 C6 
A    7
 O1 
A    8
 N1 
A    9
 C7 
A   10
 C8 
A   11
 O2 
A   12
 N2 
A   13
 C9 
A   14
 C10
A   15
 C11
A   16
 N3 
M  END
>  <ref_pdb>  (1215) 
Ax0310a

>  <ref_mols>  (1215) 
Ax0446a,Ax1080a,Ax0812a,Ax0719a,Ax1140a,Ax0528a,Ax0310a

>  <original SMILES>  (1215) 
Cc1ccc(C(=O)NCC(=O)N(C)C)cn1

>  <rationale>  (1215) 
info info set:screening_pocket;hbond:S87; hydroph_interaction:P107; 

>  <experiment>  (1215) 
screening_pocket

>  <cluster_label>  (1215) 
3

>  <cluster_rank>  (1215) 
872

>  <N_interactions>  (1215) 
2

>  <∆∆G>  (1215) 
-8.09253

>  <comRMSD>  (1215) 
0.582701

>  <ROCS_TanimotoCombo>  (1215) 
0.631

>  <ROCS_ShapeTanimoto>  (1215) 
0.208

>  <ROCS_ColorTanimoto>  (1215) 
0.424

$$$$
Z2523773290
     RDKit          3D

 23 26  0  0  0  0  0  0  0  0999 V2000
   30.4007    8.7237    9.9380 C   0  0  0  0  0  0  0  0  0  0  0  0
   30.6740    7.9067    8.8224 C   0  0  0  0  0  0  0  0  0  0  0  0
   30.0465    9.0045    8.1804 C   0  0  0  0  0  0  0  0  0  0  0  0
   30.8650    9.8615    7.6287 N   0  0  0  0  0  0  0  0  0  0  0  0
   30.6624   11.0252    8.1876 N   0  0  0  0  0  0  0  0  0  0  0  0
   31.5277   11.9122    7.7969 C   0  0  0  0  0  0  0  0  0  0  0  0
   31.2224   13.2546    8.4047 C   0  0  0  0  0  0  0  0  0  0  0  0
   31.9053   14.0677    9.1903 N   0  0  0  0  0  0  0  0  0  0  0  0
   31.0892   15.1569    9.4641 N   0  0  0  0  0  0  0  0  0  0  0  0
   29.9459   14.9619    8.8221 C   0  0  0  0  0  0  0  0  0  0  0  0
   30.0193   13.7895    8.1697 N   0  0  0  0  0  0  0  0  0  0  0  0
   28.9498   13.2425    7.3693 C   0  0  0  0  0  0  0  0  0  0  0  0
   27.7914   14.2001    7.3884 C   0  0  0  0  0  0  0  0  0  0  0  0
   28.0405   15.3763    7.5135 O   0  0  0  0  0  0  0  0  0  0  0  0
   28.7152   15.7638    8.7100 C   0  0  0  0  0  0  0  0  0  0  0  0
   32.6815   11.7125    6.8196 C   0  0  0  0  0  0  0  0  0  0  0  0
   33.5481   12.8200    6.2439 C   0  0  0  0  0  0  0  0  0  0  0  0
   34.6207   12.3417    5.2871 C   0  0  0  0  0  0  0  0  0  0  0  0
   34.7622   10.8865    4.9775 C   0  0  0  0  0  0  0  0  0  0  0  0
   33.8674    9.8316    5.5868 C   0  0  0  0  0  0  0  0  0  0  0  0
   32.8897   10.3567    6.4728 C   0  0  0  0  0  0  0  0  0  0  0  0
   32.0109    9.3885    7.0956 C   0  0  0  0  0  0  0  0  0  0  0  0
   32.3181    8.2212    7.1443 O   0  0  0  0  0  0  0  0  0  0  0  0
  1  2  1  0
  2  3  1  0
  3  4  1  0
  4  5  1  0
  5  6  2  0
  6  7  1  0
  7  8  2  0
  8  9  1  0
  9 10  2  0
 10 11  1  0
 11 12  1  0
 12 13  1  0
 13 14  1  0
 14 15  1  0
  6 16  1  0
 16 17  2  0
 17 18  1  0
 18 19  2  0
 19 20  1  0
 20 21  2  0
 21 22  1  0
 22 23  2  0
 22  4  1  0
 11  7  1  0
 21 16  1  0
 15 10  1  0
A    1
 C1 
A    2
 C2 
A    3
 C3 
A    4
 N1 
A    5
 N2 
A    6
 C4 
A    7
 C5 
A    8
 N3 
A    9
 N4 
A   10
 C6 
A   11
 N5 
A   12
 C7 
A   13
 C8 
A   14
 O1 
A   15
 C9 
A   16
 C10
A   17
 C11
A   18
 C12
A   19
 C13
A   20
 C14
A   21
 C15
A   22
 C16
A   23
 O2 
M  END
>  <ref_pdb>  (1216) 
Ax0310a

>  <ref_mols>  (1216) 
Ax0446a,Ax1080a,Ax0812a,Ax0719a,Ax1140a,Ax0528a,Ax0310a

>  <original SMILES>  (1216) 
CCCn1nc(-c2nnc3n2CCOC3)c2ccccc2c1=O

>  <rationale>  (1216) 
info info set:screening_whole;hbond:S87; hydroph_interaction:V124; 

>  <experiment>  (1216) 
screening_whole

>  <cluster_label>  (1216) 
3

>  <cluster_rank>  (1216) 
873

>  <N_interactions>  (1216) 
2

>  <∆∆G>  (1216) 
-0.260965

>  <comRMSD>  (1216) 
0.78474

>  <ROCS_TanimotoCombo>  (1216) 
0.464

>  <ROCS_ShapeTanimoto>  (1216) 
0.262

>  <ROCS_ColorTanimoto>  (1216) 
0.202

$$$$
EN300_1617458
     RDKit          3D

  9  9  0  0  0  0  0  0  0  0999 V2000
   31.1772   13.6966    7.9684 N   0  0  0  0  0  0  0  0  0  0  0  0
   32.5468   12.8528    7.5050 S   0  0  0  0  0  6  0  0  0  0  0  0
   33.4381   12.8881    8.6465 O   0  0  0  0  0  0  0  0  0  0  0  0
   32.9800   13.1845    6.1668 O   0  0  0  0  0  0  0  0  0  0  0  0
   31.9835   11.2096    7.4723 C   0  0  0  0  0  0  0  0  0  0  0  0
   30.9312   10.5605    8.0525 C   0  0  0  0  0  0  0  0  0  0  0  0
   30.9193    9.2087    7.7783 C   0  0  0  0  0  0  0  0  0  0  0  0
   31.9028    8.7682    7.0122 N   0  0  0  0  0  0  0  0  0  0  0  0
   32.8558   10.0615    6.5728 S   0  0  0  0  0  0  0  0  0  0  0  0
  1  2  1  0
  2  3  2  0
  2  4  2  0
  2  5  1  0
  5  6  2  0
  6  7  1  0
  7  8  2  0
  8  9  1  0
  9  5  1  0
A    1
 N1 
A    2
 S1 
A    3
 O1 
A    4
 O2 
A    5
 C1 
A    6
 C2 
A    7
 C3 
A    8
 N2 
A    9
 S2 
M  END
>  <ref_pdb>  (1217) 
Ax0310a

>  <ref_mols>  (1217) 
Ax0446a,Ax1080a,Ax0812a,Ax0719a,Ax1140a,Ax0528a,Ax0310a

>  <original SMILES>  (1217) 
NS(=O)(=O)c1ccns1

>  <rationale>  (1217) 
info info set:sulfonimide_joint;hbond:S87+S125+G127; 

>  <experiment>  (1217) 
sulfonimide_joint

>  <cluster_label>  (1217) 
3

>  <cluster_rank>  (1217) 
874

>  <N_interactions>  (1217) 
3

>  <∆∆G>  (1217) 
-4.089419

>  <comRMSD>  (1217) 
0.670255

>  <ROCS_TanimotoCombo>  (1217) 
0.297

>  <ROCS_ShapeTanimoto>  (1217) 
0.127

>  <ROCS_ColorTanimoto>  (1217) 
0.169

$$$$
EN300_197934
     RDKit          3D

 13 14  0  0  0  0  0  0  0  0999 V2000
   30.3803   13.1883    8.9171 N   0  0  0  0  0  0  0  0  0  0  0  0
   29.8954   12.4716    7.4930 S   0  0  0  0  0  6  0  0  0  0  0  0
   30.2202   13.3686    6.4160 O   0  0  0  0  0  0  0  0  0  0  0  0
   28.5798   11.8987    7.5774 O   0  0  0  0  0  0  0  0  0  0  0  0
   31.0006   11.0772    7.2554 C   0  0  0  0  0  0  0  0  0  0  0  0
   31.0089    9.6672    7.7254 C   0  0  0  0  0  0  0  0  0  0  0  0
   32.0830    9.0050    7.2022 N   0  0  0  0  0  0  0  0  0  0  0  0
   32.7506    9.9637    6.4244 C   0  0  0  0  0  0  0  0  0  0  0  0
   32.1133   11.1686    6.4850 N   0  0  0  0  0  0  0  0  0  0  0  0
   32.5839   12.1941    5.8447 C   0  0  0  0  0  0  0  0  0  0  0  0
   34.0223   12.2186    6.0276 C   0  0  0  0  0  0  0  0  0  0  0  0
   34.7624   11.1030    5.2427 C   0  0  0  0  0  0  0  0  0  0  0  0
   33.9846    9.7796    5.5985 C   0  0  0  0  0  0  0  0  0  0  0  0
  1  2  1  0
  2  3  2  0
  2  4  2  0
  2  5  1  0
  5  6  2  0
  6  7  1  0
  7  8  2  0
  8  9  1  0
  9 10  1  0
 10 11  1  0
 11 12  1  0
 12 13  1  0
  9  5  1  0
 13  8  1  0
A    1
 N1 
A    2
 S1 
A    3
 O1 
A    4
 O2 
A    5
 C1 
A    6
 C2 
A    7
 N2 
A    8
 C3 
A    9
 N3 
A   10
 C4 
A   11
 C5 
A   12
 C6 
A   13
 C7 
M  END
>  <ref_pdb>  (1218) 
Ax0310a

>  <ref_mols>  (1218) 
Ax0446a,Ax1080a,Ax0812a,Ax0719a,Ax1140a,Ax0528a,Ax0310a

>  <original SMILES>  (1218) 
NS(=O)(=O)c1cnc2n1CCCC2

>  <rationale>  (1218) 
info info set:sulfonimide_whole;hbond:S125; 

>  <experiment>  (1218) 
sulfonimide_whole

>  <cluster_label>  (1218) 
3

>  <cluster_rank>  (1218) 
875

>  <N_interactions>  (1218) 
1

>  <∆∆G>  (1218) 
-4.086978

>  <comRMSD>  (1218) 
0.681234

>  <ROCS_TanimotoCombo>  (1218) 
0.335

>  <ROCS_ShapeTanimoto>  (1218) 
0.197

>  <ROCS_ColorTanimoto>  (1218) 
0.138

$$$$
EN300_4260114
     RDKit          3D

 11 11  0  0  0  0  0  0  0  0999 V2000
   30.1389   12.8449    8.4080 C   0  0  0  0  0  0  0  0  0  0  0  0
   30.4568   11.4644    8.3030 O   0  0  0  0  0  0  0  0  0  0  0  0
   31.3588   11.0848    7.3602 C   0  0  0  0  0  0  0  0  0  0  0  0
   31.9154   11.9409    6.2739 C   0  0  0  0  0  0  0  0  0  0  0  0
   32.9788   11.5317    5.1741 C   0  0  0  0  0  0  0  0  0  0  0  0
   33.2416   10.0148    5.5681 C   0  0  0  0  0  0  0  0  0  0  0  0
   34.2196    9.2496    4.7630 C   0  0  0  0  0  0  0  0  0  0  0  0
   32.6943    9.2973    6.5670 N   0  0  0  0  0  0  0  0  0  0  0  0
   31.8018    9.8000    7.4274 C   0  0  0  0  0  0  0  0  0  0  0  0
   31.2859    8.9077    8.5654 C   0  0  0  0  0  0  0  0  0  0  0  0
   29.6072    8.1621    8.4879 Br  0  0  0  0  0  0  0  0  0  0  0  0
  1  2  1  0
  2  3  1  0
  3  4  2  0
  4  5  1  0
  5  6  2  0
  6  7  1  0
  6  8  1  0
  8  9  2  0
  9 10  1  0
 10 11  1  0
  9  3  1  0
A    1
 C1 
A    2
 O1 
A    3
 C2 
A    4
 C3 
A    5
 C4 
A    6
 C5 
A    7
 C6 
A    8
 N1 
A    9
 C7 
A   10
 C8 
A   11
BR1 
M  END
>  <ref_pdb>  (1219) 
Ax0310a

>  <ref_mols>  (1219) 
Ax0446a,Ax1080a,Ax0812a,Ax0719a,Ax1140a,Ax0528a,Ax0310a

>  <original SMILES>  (1219) 
COc1ccc(C)nc1CBr

>  <rationale>  (1219) 
info info set:bb_densepocket2;hbond:G127; hydroph_interaction:P107; 

>  <experiment>  (1219) 
bb_densepocket2

>  <cluster_label>  (1219) 
3

>  <cluster_rank>  (1219) 
876

>  <N_interactions>  (1219) 
2

>  <∆∆G>  (1219) 
-0.110687

>  <comRMSD>  (1219) 
0.852314

>  <ROCS_TanimotoCombo>  (1219) 
0.626

>  <ROCS_ShapeTanimoto>  (1219) 
0.199

>  <ROCS_ColorTanimoto>  (1219) 
0.428

$$$$
Z295451046
     RDKit          3D

 16 17  0  0  0  0  0  0  0  0999 V2000
   30.5366   13.5174    6.9712 O   0  0  0  0  0  0  0  0  0  0  0  0
   31.9033   13.0650    6.8997 S   0  0  0  0  0  6  0  0  0  0  0  0
   32.7979   13.4140    5.8178 O   0  0  0  0  0  0  0  0  0  0  0  0
   31.8508   11.3325    7.0513 C   0  0  0  0  0  0  0  0  0  0  0  0
   32.9194   10.6119    6.2461 C   0  0  0  0  0  0  0  0  0  0  0  0
   32.7987    9.1039    6.4537 C   0  0  0  0  0  0  0  0  0  0  0  0
   31.6971    8.5259    7.3911 C   0  0  0  0  0  0  0  0  0  0  0  0
   30.8278    9.4063    8.0191 C   0  0  0  0  0  0  0  0  0  0  0  0
   30.9108   10.7597    7.8432 C   0  0  0  0  0  0  0  0  0  0  0  0
   30.0396   11.5315    8.4681 F   0  0  0  0  0  0  0  0  0  0  0  0
   32.6552   13.4441    8.3421 N   0  0  0  0  0  0  0  0  0  0  0  0
   32.0990   14.4004    9.3308 C   0  0  0  0  0  0  0  0  0  0  0  0
   33.0192   15.3122    9.8482 C   0  0  0  0  0  0  0  0  0  0  0  0
   34.4038   15.2977    9.3001 N   0  0  0  0  0  0  0  0  0  0  0  0
   34.7557   14.3865    8.2332 C   0  0  0  0  0  0  0  0  0  0  0  0
   34.0705   13.2309    8.3599 C   0  0  0  0  0  0  0  0  0  0  0  0
  1  2  2  0
  2  3  2  0
  2  4  1  0
  4  5  2  0
  5  6  1  0
  6  7  2  0
  7  8  1  0
  8  9  2  0
  9 10  1  0
  2 11  1  0
 11 12  1  0
 12 13  1  0
 13 14  1  0
 14 15  1  0
 15 16  1  0
  9  4  1  0
 16 11  1  0
A    1
 O1 
A    2
 S1 
A    3
 O2 
A    4
 C1 
A    5
 C2 
A    6
 C3 
A    7
 C4 
A    8
 C5 
A    9
 C6 
A   10
 F1 
A   11
 N1 
A   12
 C7 
A   13
 C8 
A   14
 N2 
A   15
 C9 
A   16
 C10
M  END
>  <ref_pdb>  (1220) 
Ax0310a

>  <ref_mols>  (1220) 
Ax0446a,Ax1080a,Ax0812a,Ax0719a,Ax1140a,Ax0528a,Ax0310a

>  <original SMILES>  (1220) 
O=S(=O)(c1ccccc1F)N1CCNCC1

>  <rationale>  (1220) 
info info set:3d;hbond:S87+G127; 

>  <experiment>  (1220) 
3d

>  <cluster_label>  (1220) 
3

>  <cluster_rank>  (1220) 
877

>  <N_interactions>  (1220) 
2

>  <∆∆G>  (1220) 
-2.564043

>  <comRMSD>  (1220) 
0.593932

>  <ROCS_TanimotoCombo>  (1220) 
0.303

>  <ROCS_ShapeTanimoto>  (1220) 
0.203

>  <ROCS_ColorTanimoto>  (1220) 
0.1

$$$$
EN300_1588729
     RDKit          3D

 11 12  0  0  0  0  0  0  0  0999 V2000
   34.0931    8.8545    5.3173 N   0  0  0  0  0  0  0  0  0  0  0  0
   33.0789    9.5581    6.0980 C   0  0  0  0  0  0  0  0  0  0  0  0
   32.2659    8.8128    6.8916 N   0  0  0  0  0  0  0  0  0  0  0  0
   31.3273    9.3892    7.6256 C   0  0  0  0  0  0  0  0  0  0  0  0
   30.5024    8.6208    8.4290 N   0  0  0  0  0  0  0  0  0  0  0  0
   31.2492   10.7727    7.5210 C   0  0  0  0  0  0  0  0  0  0  0  0
   30.4198   11.7030    8.1196 N   0  0  0  0  0  0  0  0  0  0  0  0
   30.7402   12.9641    7.6845 C   0  0  0  0  0  0  0  0  0  0  0  0
   31.7722   12.7786    6.8191 C   0  0  0  0  0  0  0  0  0  0  0  0
   32.1162   11.4573    6.6881 C   0  0  0  0  0  0  0  0  0  0  0  0
   33.0595   10.8725    5.9485 N   0  0  0  0  0  0  0  0  0  0  0  0
  1  2  1  0
  2  3  2  0
  3  4  1  0
  4  5  1  0
  4  6  2  0
  6  7  1  0
  7  8  1  0
  8  9  2  0
  9 10  1  0
 10 11  2  0
 11  2  1  0
 10  6  1  0
A    1
 N1 
A    2
 C1 
A    3
 N2 
A    4
 C2 
A    5
 N3 
A    6
 C3 
A    7
 N4 
A    8
 C4 
A    9
 C5 
A   10
 C6 
A   11
 N5 
M  END
>  <ref_pdb>  (1221) 
Ax0310a

>  <ref_mols>  (1221) 
Ax0446a,Ax1080a,Ax0812a,Ax0719a,Ax1140a,Ax0528a,Ax0310a

>  <original SMILES>  (1221) 
Nc1nc(N)c2[nH]ccc2n1

>  <rationale>  (1221) 
info info set:bb_densepocket2;hbond:S105+G127+T126; 

>  <experiment>  (1221) 
bb_densepocket2

>  <cluster_label>  (1221) 
3

>  <cluster_rank>  (1221) 
878

>  <N_interactions>  (1221) 
3

>  <∆∆G>  (1221) 
-3.166716

>  <comRMSD>  (1221) 
0.198445

>  <ROCS_TanimotoCombo>  (1221) 
0.609

>  <ROCS_ShapeTanimoto>  (1221) 
0.23

>  <ROCS_ColorTanimoto>  (1221) 
0.378

$$$$
EN300_801751
     RDKit          3D

 18 19  0  0  0  0  0  0  0  0999 V2000
   29.1649    8.7601   10.0550 C   0  0  0  0  0  0  0  0  0  0  0  0
   29.6067    8.8303    8.7111 C   0  0  0  0  0  0  0  0  0  0  0  0
   28.8937   10.0469    8.3927 C   0  0  0  0  0  0  0  0  0  0  0  0
   29.1704    7.5080    8.5137 C   0  0  0  0  0  0  0  0  0  0  0  0
   31.0397    9.0510    8.6832 C   0  0  0  0  0  0  0  0  0  0  0  0
   31.6138    9.8105    7.5444 C   0  0  0  0  0  0  0  0  0  0  0  0
   32.5103    9.1184    6.7743 N   0  0  0  0  0  0  0  0  0  0  0  0
   33.0729    9.7572    5.7306 C   0  0  0  0  0  0  0  0  0  0  0  0
   34.0770    9.0742    4.8349 C   0  0  0  0  0  0  0  0  0  0  0  0
   34.6368    9.7143    3.7553 C   0  0  0  0  0  0  0  0  0  0  0  0
   34.2818   11.0131    3.4802 C   0  0  0  0  0  0  0  0  0  0  0  0
   33.3603   11.6783    4.3057 C   0  0  0  0  0  0  0  0  0  0  0  0
   32.9696   13.4724    3.8048 Br  0  0  0  0  0  0  0  0  0  0  0  0
   32.7647   11.0741    5.4160 C   0  0  0  0  0  0  0  0  0  0  0  0
   31.8544   11.7450    6.2363 C   0  0  0  0  0  0  0  0  0  0  0  0
   31.2529   11.1411    7.3262 C   0  0  0  0  0  0  0  0  0  0  0  0
   30.3332   11.8575    8.1477 N   0  0  0  0  0  0  0  0  0  0  0  0
   29.9884   13.0224    7.8938 N   0  0  0  0  0  0  0  0  0  0  0  0
  1  2  1  0
  2  3  1  0
  2  4  1  0
  2  5  1  0
  5  6  1  0
  6  7  2  0
  7  8  1  0
  8  9  2  0
  9 10  1  0
 10 11  2  0
 11 12  1  0
 12 13  1  0
 12 14  2  0
 14 15  1  0
 15 16  2  0
 16 17  1  0
 17 18  1  0
 16  6  1  0
 14  8  1  0
A    1
 C1 
A    2
 C2 
A    3
 C3 
A    4
 C4 
A    5
 C5 
A    6
 C6 
A    7
 N1 
A    8
 C7 
A    9
 C8 
A   10
 C9 
A   11
 C10
A   12
 C11
A   13
BR1 
A   14
 C12
A   15
 C13
A   16
 C14
A   17
 N2 
A   18
 N3 
M  END
>  <ref_pdb>  (1222) 
Ax0310a

>  <ref_mols>  (1222) 
Ax0446a,Ax1080a,Ax0812a,Ax0719a,Ax1140a,Ax0528a,Ax0310a

>  <original SMILES>  (1222) 
CC(C)(C)Cc1nc2cccc(Br)c2cc1NN

>  <rationale>  (1222) 
info info set:bb_densepocket2;hbond:S125; hydroph_interaction:P107+D109; 

>  <experiment>  (1222) 
bb_densepocket2

>  <cluster_label>  (1222) 
3

>  <cluster_rank>  (1222) 
879

>  <N_interactions>  (1222) 
3

>  <∆∆G>  (1222) 
-2.599668

>  <comRMSD>  (1222) 
0.649583

>  <ROCS_TanimotoCombo>  (1222) 
0.612

>  <ROCS_ShapeTanimoto>  (1222) 
0.254

>  <ROCS_ColorTanimoto>  (1222) 
0.358

$$$$
Z319858910
     RDKit          3D

 17 18  0  0  0  0  0  0  0  0999 V2000
   27.5244   14.6537    7.4309 C   0  0  0  0  0  0  0  0  0  0  0  0
   28.5398   15.5370    7.8627 O   0  0  0  0  0  0  0  0  0  0  0  0
   29.1728   14.9547    8.9740 C   0  0  0  0  0  0  0  0  0  0  0  0
   29.6006   13.5381    8.8093 C   0  0  0  0  0  0  0  0  0  0  0  0
   29.9444   13.1406    7.5222 C   0  0  0  0  0  0  0  0  0  0  0  0
   30.2179   11.7822    7.9409 N   0  0  0  0  0  0  0  0  0  0  0  0
   31.1890   11.0607    7.3046 C   0  0  0  0  0  0  0  0  0  0  0  0
   31.9264   11.7274    6.4086 N   0  0  0  0  0  0  0  0  0  0  0  0
   32.8858   11.0943    5.7427 C   0  0  0  0  0  0  0  0  0  0  0  0
   33.6163   11.8197    4.8280 C   0  0  0  0  0  0  0  0  0  0  0  0
   34.6357   11.2626    4.0826 C   0  0  0  0  0  0  0  0  0  0  0  0
   35.0130    9.7987    4.2383 C   0  0  0  0  0  0  0  0  0  0  0  0
   34.2913    9.0702    5.1495 C   0  0  0  0  0  0  0  0  0  0  0  0
   33.1540    9.7446    5.9508 C   0  0  0  0  0  0  0  0  0  0  0  0
   32.4163    9.0426    6.8538 N   0  0  0  0  0  0  0  0  0  0  0  0
   31.4300    9.7074    7.5309 C   0  0  0  0  0  0  0  0  0  0  0  0
   30.5840    8.9218    8.5589 C   0  0  0  0  0  0  0  0  0  0  0  0
  1  2  1  0
  2  3  1  0
  3  4  1  0
  4  5  1  0
  5  6  1  0
  6  7  1  0
  7  8  2  0
  8  9  1  0
  9 10  2  0
 10 11  1  0
 11 12  2  0
 12 13  1  0
 13 14  2  0
 14 15  1  0
 15 16  2  0
 16 17  1  0
 16  7  1  0
 14  9  1  0
A    1
 C1 
A    2
 O1 
A    3
 C2 
A    4
 C3 
A    5
 C4 
A    6
 N1 
A    7
 C5 
A    8
 N2 
A    9
 C6 
A   10
 C7 
A   11
 C8 
A   12
 C9 
A   13
 C10
A   14
 C11
A   15
 N3 
A   16
 C12
A   17
 C13
M  END
>  <ref_pdb>  (1223) 
Ax0310a

>  <ref_mols>  (1223) 
Ax0446a,Ax1080a,Ax0812a,Ax0719a,Ax1140a,Ax0528a,Ax0310a

>  <original SMILES>  (1223) 
COCCCNc1nc2ccccc2nc1C

>  <rationale>  (1223) 
info info set:screening_pocket;hbond:S125; hydroph_interaction:V124; 

>  <experiment>  (1223) 
screening_pocket

>  <cluster_label>  (1223) 
3

>  <cluster_rank>  (1223) 
880

>  <N_interactions>  (1223) 
2

>  <∆∆G>  (1223) 
-8.108012

>  <comRMSD>  (1223) 
0.449305

>  <ROCS_TanimotoCombo>  (1223) 
0.635

>  <ROCS_ShapeTanimoto>  (1223) 
0.274

>  <ROCS_ColorTanimoto>  (1223) 
0.361

$$$$
EN300_1272085
     RDKit          3D

 13 14  0  0  0  0  0  0  0  0999 V2000
   30.4231   13.1546    8.9042 N   0  0  0  0  0  0  0  0  0  0  0  0
   29.9668   12.4496    7.4562 S   0  0  0  0  0  6  0  0  0  0  0  0
   28.6186   11.9990    7.5035 O   0  0  0  0  0  0  0  0  0  0  0  0
   30.3581   13.3934    6.4482 O   0  0  0  0  0  0  0  0  0  0  0  0
   31.0442   11.0665    7.2451 C   0  0  0  0  0  0  0  0  0  0  0  0
   30.9003    9.6510    7.6852 C   0  0  0  0  0  0  0  0  0  0  0  0
   31.9659    8.9249    7.2451 N   0  0  0  0  0  0  0  0  0  0  0  0
   32.7258    9.8147    6.5853 C   0  0  0  0  0  0  0  0  0  0  0  0
   33.9292    9.6777    5.8940 C   0  0  0  0  0  0  0  0  0  0  0  0
   34.6216   10.7505    5.2964 C   0  0  0  0  0  0  0  0  0  0  0  0
   34.1995   12.0662    5.2965 C   0  0  0  0  0  0  0  0  0  0  0  0
   32.8648   12.1961    6.0050 C   0  0  0  0  0  0  0  0  0  0  0  0
   32.2172   11.1147    6.5929 N   0  0  0  0  0  0  0  0  0  0  0  0
  1  2  1  0
  2  3  2  0
  2  4  2  0
  2  5  1  0
  5  6  2  0
  6  7  1  0
  7  8  2  0
  8  9  1  0
  9 10  2  0
 10 11  1  0
 11 12  2  0
 12 13  1  0
 13  5  1  0
 13  8  1  0
A    1
 N1 
A    2
 S1 
A    3
 O1 
A    4
 O2 
A    5
 C1 
A    6
 C2 
A    7
 N2 
A    8
 C3 
A    9
 C4 
A   10
 C5 
A   11
 C6 
A   12
 C7 
A   13
 N3 
M  END
>  <ref_pdb>  (1224) 
Ax0310a

>  <ref_mols>  (1224) 
Ax0446a,Ax1080a,Ax0812a,Ax0719a,Ax1140a,Ax0528a,Ax0310a

>  <original SMILES>  (1224) 
NS(=O)(=O)c1cnc2ccccn12

>  <rationale>  (1224) 
info info set:sulfonimide_whole;hbond:S125; 

>  <experiment>  (1224) 
sulfonimide_whole

>  <cluster_label>  (1224) 
3

>  <cluster_rank>  (1224) 
881

>  <N_interactions>  (1224) 
1

>  <∆∆G>  (1224) 
-3.622867

>  <comRMSD>  (1224) 
0.713263

>  <ROCS_TanimotoCombo>  (1224) 
0.336

>  <ROCS_ShapeTanimoto>  (1224) 
0.198

>  <ROCS_ColorTanimoto>  (1224) 
0.138

$$$$
EN300_172749
     RDKit          3D

 17 17  0  0  0  0  0  0  0  0999 V2000
   28.5627   15.2921    7.9903 C   0  0  0  0  0  0  0  0  0  0  0  0
   29.9054   14.1925    8.3254 S   0  0  0  0  0  6  0  0  0  0  0  0
   30.4195   13.6917    7.0680 O   0  0  0  0  0  0  0  0  0  0  0  0
   30.7733   14.7119    9.3626 O   0  0  0  0  0  0  0  0  0  0  0  0
   29.1179   12.8610    8.8246 N   0  0  0  0  0  0  0  0  0  0  0  0
   29.3218   11.7949    7.9122 C   0  0  0  0  0  0  0  0  0  0  0  0
   30.0960   10.5358    8.4150 C   0  0  0  0  0  0  0  0  0  0  0  0
   31.2935   10.8439    7.6372 C   0  0  0  0  0  0  0  0  0  0  0  0
   31.6163    9.6175    6.9220 C   0  0  0  0  0  0  0  0  0  0  0  0
   32.7585    9.6271    5.9698 C   0  0  0  0  0  0  0  0  0  0  0  0
   33.4767   10.9775    5.8545 C   0  0  0  0  0  0  0  0  0  0  0  0
   34.7794   11.0977    4.7167 S   0  0  0  0  0  6  0  0  0  0  0  0
   33.9091   10.8210    3.3006 N   0  0  0  0  0  0  0  0  0  0  0  0
   35.2645   12.4546    4.7002 O   0  0  0  0  0  0  0  0  0  0  0  0
   35.5897    9.9278    4.8400 O   0  0  0  0  0  0  0  0  0  0  0  0
   33.0358   12.0390    6.6629 C   0  0  0  0  0  0  0  0  0  0  0  0
   31.9780   12.0091    7.5433 C   0  0  0  0  0  0  0  0  0  0  0  0
  1  2  1  0
  2  3  2  0
  2  4  2  0
  2  5  1  0
  5  6  1  0
  6  7  1  0
  7  8  1  0
  8  9  2  0
  9 10  1  0
 10 11  2  0
 11 12  1  0
 12 13  1  0
 12 14  2  0
 12 15  2  0
 11 16  1  0
 16 17  2  0
 17  8  1  0
A    1
 C1 
A    2
 S1 
A    3
 O1 
A    4
 O2 
A    5
 N1 
A    6
 C2 
A    7
 C3 
A    8
 C4 
A    9
 C5 
A   10
 C6 
A   11
 C7 
A   12
 S2 
A   13
 N2 
A   14
 O3 
A   15
 O4 
A   16
 C8 
A   17
 C9 
M  END
>  <ref_pdb>  (1225) 
Ax0310a

>  <ref_mols>  (1225) 
Ax0446a,Ax1080a,Ax0812a,Ax0719a,Ax1140a,Ax0528a,Ax0310a

>  <original SMILES>  (1225) 
CS(=O)(=O)NCCc1ccc(S(N)(=O)=O)cc1

>  <rationale>  (1225) 
info info set:sulfonimide_whole;hbond:S87; hydroph_interaction:P107; 

>  <experiment>  (1225) 
sulfonimide_whole

>  <cluster_label>  (1225) 
3

>  <cluster_rank>  (1225) 
882

>  <N_interactions>  (1225) 
2

>  <∆∆G>  (1225) 
-2.519221

>  <comRMSD>  (1225) 
0.919253

>  <ROCS_TanimotoCombo>  (1225) 
0.356

>  <ROCS_ShapeTanimoto>  (1225) 
0.19

>  <ROCS_ColorTanimoto>  (1225) 
0.166

$$$$
EN300_803091
     RDKit          3D

 13 13  0  0  0  0  0  0  0  0999 V2000
   28.9125   12.1943    7.1823 C   0  0  0  0  0  0  0  0  0  0  0  0
   30.2580   11.8598    7.7828 C   0  0  0  0  0  0  0  0  0  0  0  0
   30.4970   12.4862    8.9986 O   0  0  0  0  0  0  0  0  0  0  0  0
   31.3608   13.5175    8.8904 C   0  0  0  0  0  0  0  0  0  0  0  0
   31.0775   14.5541    9.9486 C   0  0  0  0  0  0  0  0  0  0  0  0
   31.3013   10.9753    7.1558 C   0  0  0  0  0  0  0  0  0  0  0  0
   32.2306   11.6820    6.1307 C   0  0  0  0  0  0  0  0  0  0  0  0
   33.3447   11.0595    5.3610 C   0  0  0  0  0  0  0  0  0  0  0  0
   33.3166    9.5558    5.8557 C   0  0  0  0  0  0  0  0  0  0  0  0
   34.2846    8.7504    5.2696 N   0  0  0  0  0  0  0  0  0  0  0  0
   32.4896    8.9590    6.7639 N   0  0  0  0  0  0  0  0  0  0  0  0
   31.5070    9.6423    7.4058 C   0  0  0  0  0  0  0  0  0  0  0  0
   30.6341    8.8890    8.4276 C   0  0  0  0  0  0  0  0  0  0  0  0
  1  2  2  0
  2  3  1  0
  3  4  1  0
  4  5  1  0
  2  6  1  0
  6  7  2  0
  7  8  1  0
  8  9  2  0
  9 10  1  0
  9 11  1  0
 11 12  2  0
 12 13  1  0
 12  6  1  0
A    1
 C1 
A    2
 C2 
A    3
 O1 
A    4
 C3 
A    5
 C4 
A    6
 C5 
A    7
 C6 
A    8
 C7 
A    9
 C8 
A   10
 N1 
A   11
 N2 
A   12
 C9 
A   13
 C10
M  END
>  <ref_pdb>  (1226) 
Ax0310a

>  <ref_mols>  (1226) 
Ax0446a,Ax1080a,Ax0812a,Ax0719a,Ax1140a,Ax0528a,Ax0310a

>  <original SMILES>  (1226) 
C=C(OCC)c1ccc(N)nc1C

>  <rationale>  (1226) 
info info set:bb_densepocket2;hbond:S105; hydroph_interaction:P107+T126; 

>  <experiment>  (1226) 
bb_densepocket2

>  <cluster_label>  (1226) 
3

>  <cluster_rank>  (1226) 
883

>  <N_interactions>  (1226) 
4

>  <∆∆G>  (1226) 
-6.046892

>  <comRMSD>  (1226) 
0.941491

>  <ROCS_TanimotoCombo>  (1226) 
0.61

>  <ROCS_ShapeTanimoto>  (1226) 
0.235

>  <ROCS_ColorTanimoto>  (1226) 
0.375

$$$$
Z235361235
     RDKit          3D

 14 15  0  0  0  0  0  0  0  0999 V2000
   34.8366   10.9273    5.0374 O   0  0  0  0  0  0  0  0  0  0  0  0
   33.7189   11.3841    5.1985 C   0  0  0  0  0  0  0  0  0  0  0  0
   32.7143   10.8336    6.2157 C   0  0  0  0  0  0  0  0  0  0  0  0
   32.7273    9.3649    6.3313 C   0  0  0  0  0  0  0  0  0  0  0  0
   31.8124    8.5272    7.2945 C   0  0  0  0  0  0  0  0  0  0  0  0
   30.8923    9.5095    8.0994 C   0  0  0  0  0  0  0  0  0  0  0  0
   31.0026   10.9485    7.8657 C   0  0  0  0  0  0  0  0  0  0  0  0
   31.8551   11.5609    6.9849 C   0  0  0  0  0  0  0  0  0  0  0  0
   31.8170   12.9190    6.9034 N   0  0  0  0  0  0  0  0  0  0  0  0
   30.5623   13.3789    7.5518 C   0  0  0  0  0  0  0  0  0  0  0  0
   30.8020   14.0895    8.8693 C   0  0  0  0  0  0  0  0  0  0  0  0
   32.1336   14.5920    9.0463 O   0  0  0  0  0  0  0  0  0  0  0  0
   33.0822   13.8756    8.7220 C   0  0  0  0  0  0  0  0  0  0  0  0
   33.1283   13.4066    7.4106 C   0  0  0  0  0  0  0  0  0  0  0  0
  1  2  1  0
  2  3  1  0
  3  4  2  0
  4  5  1  0
  5  6  2  0
  6  7  1  0
  7  8  2  0
  8  9  1  0
  9 10  1  0
 10 11  1  0
 11 12  1  0
 12 13  1  0
 13 14  1  0
  8  3  1  0
 14  9  1  0
A    1
 O1 
A    2
 C1 
A    3
 C2 
A    4
 C3 
A    5
 C4 
A    6
 C5 
A    7
 C6 
A    8
 C7 
A    9
 N1 
A   10
 C8 
A   11
 C9 
A   12
 O2 
A   13
 C10
A   14
 C11
M  END
>  <ref_pdb>  (1227) 
Ax0310a

>  <ref_mols>  (1227) 
Ax0446a,Ax1080a,Ax0812a,Ax0719a,Ax1140a,Ax0528a,Ax0310a

>  <original SMILES>  (1227) 
OCc1ccccc1N1CCOCC1

>  <rationale>  (1227) 
info info set:3d;hbond:S87; hydroph_interaction:P107; 

>  <experiment>  (1227) 
3d

>  <cluster_label>  (1227) 
3

>  <cluster_rank>  (1227) 
884

>  <N_interactions>  (1227) 
2

>  <∆∆G>  (1227) 
-3.736297

>  <comRMSD>  (1227) 
0.53296

>  <ROCS_TanimotoCombo>  (1227) 
0.304

>  <ROCS_ShapeTanimoto>  (1227) 
0.197

>  <ROCS_ColorTanimoto>  (1227) 
0.106

$$$$
EN300_123188
     RDKit          3D

 17 17  0  0  0  0  0  0  0  0999 V2000
   35.2330   14.8064    6.4605 C   0  0  0  0  0  0  0  0  0  0  0  0
   34.7880   14.7869    7.8434 N   0  0  0  0  0  0  0  0  0  0  0  0
   33.5577   13.7109    8.2221 S   0  0  0  0  0  6  0  0  0  0  0  0
   32.9352   13.4073    6.9538 O   0  0  0  0  0  0  0  0  0  0  0  0
   34.2265   12.7413    8.9997 O   0  0  0  0  0  0  0  0  0  0  0  0
   32.4582   14.5406    9.3789 C   0  0  0  0  0  0  0  0  0  0  0  0
   30.9870   14.4123    9.2115 C   0  0  0  0  0  0  0  0  0  0  0  0
   30.5205   13.5315    8.1223 C   0  0  0  0  0  0  0  0  0  0  0  0
   30.9351   13.5161    6.8208 O   0  0  0  0  0  0  0  0  0  0  0  0
   29.6297   12.7192    8.5870 O   0  0  0  0  0  0  0  0  0  0  0  0
   29.3834   12.0041    7.4529 C   0  0  0  0  0  0  0  0  0  0  0  0
   30.6626   11.1066    7.1921 C   0  0  0  0  0  0  0  0  0  0  0  0
   30.8947    9.7531    7.8140 C   0  0  0  0  0  0  0  0  0  0  0  0
   31.9857    8.9894    7.4881 C   0  0  0  0  0  0  0  0  0  0  0  0
   32.9775    9.4626    6.5320 C   0  0  0  0  0  0  0  0  0  0  0  0
   32.8846   10.6845    5.9303 C   0  0  0  0  0  0  0  0  0  0  0  0
   31.8074   11.4932    6.2126 C   0  0  0  0  0  0  0  0  0  0  0  0
  1  2  1  0
  2  3  1  0
  3  4  2  0
  3  5  2  0
  3  6  1  0
  6  7  1  0
  7  8  1  0
  8  9  2  0
  8 10  1  0
 10 11  1  0
 11 12  1  0
 12 13  2  0
 13 14  1  0
 14 15  2  0
 15 16  1  0
 16 17  2  0
 17 12  1  0
A    1
 C1 
A    2
 N1 
A    3
 S1 
A    4
 O1 
A    5
 O2 
A    6
 C2 
A    7
 C3 
A    8
 C4 
A    9
 O3 
A   10
 O4 
A   11
 C5 
A   12
 C6 
A   13
 C7 
A   14
 C8 
A   15
 C9 
A   16
 C10
A   17
 C11
M  END
>  <ref_pdb>  (1228) 
Ax0310a

>  <ref_mols>  (1228) 
Ax0446a,Ax1080a,Ax0812a,Ax0719a,Ax1140a,Ax0528a,Ax0310a

>  <original SMILES>  (1228) 
CNS(=O)(=O)CCC(=O)OCc1ccccc1

>  <rationale>  (1228) 
info info set:sulfonimide_whole;hbond:S87+G127; hydroph_interaction:P107; 

>  <experiment>  (1228) 
sulfonimide_whole

>  <cluster_label>  (1228) 
3

>  <cluster_rank>  (1228) 
885

>  <N_interactions>  (1228) 
4

>  <∆∆G>  (1228) 
-1.995005

>  <comRMSD>  (1228) 
0.745449

>  <ROCS_TanimotoCombo>  (1228) 
0.344

>  <ROCS_ShapeTanimoto>  (1228) 
0.215

>  <ROCS_ColorTanimoto>  (1228) 
0.129

$$$$
EN300_39675907
     RDKit          3D

 12 12  0  0  0  0  0  0  0  0999 V2000
   35.2011   14.8086    8.7086 C   0  0  0  0  0  0  0  0  0  0  0  0
   34.6008   13.5413    8.4237 N   0  0  0  0  0  0  0  0  0  0  0  0
   33.7920   13.4148    6.9686 S   0  0  0  0  0  6  0  0  0  0  0  0
   34.3949   12.3782    6.1922 O   0  0  0  0  0  0  0  0  0  0  0  0
   33.7656   14.7053    6.3907 O   0  0  0  0  0  0  0  0  0  0  0  0
   32.2135   12.9163    7.6572 C   0  0  0  0  0  0  0  0  0  0  0  0
   31.6473   11.8533    7.0741 C   0  0  2  0  0  0  0  0  0  0  0  0
   31.0001   10.8479    7.8050 C   0  0  0  0  0  0  0  0  0  0  0  0
   31.4706    9.5803    7.5089 C   0  0  0  0  0  0  0  0  0  0  0  0
   32.4204    9.6511    6.3091 C   0  0  2  0  0  0  0  0  0  0  0  0
   33.6536    8.9360    6.2614 N   0  0  0  0  0  0  0  0  0  0  0  0
   32.6402   11.1358    6.1464 C   0  0  0  0  0  0  0  0  0  0  0  0
  1  2  1  0
  2  3  1  0
  3  4  2  0
  3  5  2  0
  3  6  1  0
  7  6  1  1
  7  8  1  0
  8  9  1  0
  9 10  1  0
 10 11  1  1
 10 12  1  0
 12  7  1  0
A    1
 C1 
A    2
 N1 
A    3
 S1 
A    4
 O1 
A    5
 O2 
A    6
 C2 
A    7
 C3 
A    8
 C4 
A    9
 C5 
A   10
 C6 
A   11
 N2 
A   12
 C7 
M  END
>  <ref_pdb>  (1229) 
Ax0310a

>  <ref_mols>  (1229) 
Ax0446a,Ax1080a,Ax0812a,Ax0719a,Ax1140a,Ax0528a,Ax0310a

>  <original SMILES>  (1229) 
CNS(=O)(=O)C[C@@H]1CC[C@H](N)C1

>  <rationale>  (1229) 
info info set:sulfonimide_joint;hbond:G127; hydroph_interaction:P107; 

>  <experiment>  (1229) 
sulfonimide_joint

>  <cluster_label>  (1229) 
3

>  <cluster_rank>  (1229) 
886

>  <N_interactions>  (1229) 
3

>  <∆∆G>  (1229) 
-2.291243

>  <comRMSD>  (1229) 
0.936486

>  <ROCS_TanimotoCombo>  (1229) 
0.314

>  <ROCS_ShapeTanimoto>  (1229) 
0.166

>  <ROCS_ColorTanimoto>  (1229) 
0.147

$$$$
EN300_282017
     RDKit          3D

 11 11  0  0  0  0  0  0  0  0999 V2000
   30.7992    8.4240    8.1320 C   0  0  0  0  0  0  0  0  0  0  0  0
   31.2946    9.5973    7.7082 N   0  0  0  0  0  0  0  0  0  0  0  0
   30.6104   10.7316    7.9398 C   0  0  0  0  0  0  0  0  0  0  0  0
   31.3351   11.6816    7.4345 C   0  0  0  0  0  0  0  0  0  0  0  0
   32.5065   11.1356    6.8718 C   0  0  0  0  0  0  0  0  0  0  0  0
   33.4688   11.8405    6.2790 C   0  0  0  0  0  0  0  0  0  0  0  0
   33.5795   13.4902    6.9914 S   0  0  0  0  0  6  0  0  0  0  0  0
   35.0519   13.7173    7.7692 N   0  0  0  0  0  0  0  0  0  0  0  0
   33.6745   14.3652    5.8537 O   0  0  0  0  0  0  0  0  0  0  0  0
   32.5815   13.6290    8.0299 O   0  0  0  0  0  0  0  0  0  0  0  0
   32.4746    9.7855    7.0376 N   0  0  0  0  0  0  0  0  0  0  0  0
  1  2  1  0
  2  3  1  0
  3  4  2  0
  4  5  1  0
  5  6  1  0
  6  7  1  0
  7  8  1  0
  7  9  2  0
  7 10  2  0
  5 11  2  0
 11  2  1  0
A    1
 C1 
A    2
 N1 
A    3
 C2 
A    4
 C3 
A    5
 C4 
A    6
 C5 
A    7
 S1 
A    8
 N2 
A    9
 O1 
A   10
 O2 
A   11
 N3 
M  END
>  <ref_pdb>  (1230) 
Ax0310a

>  <ref_mols>  (1230) 
Ax0446a,Ax1080a,Ax0812a,Ax0719a,Ax1140a,Ax0528a,Ax0310a

>  <original SMILES>  (1230) 
Cn1ccc(CS(N)(=O)=O)n1

>  <rationale>  (1230) 
info info set:sulfonimide_joint;hbond:S87+G127+E85; 

>  <experiment>  (1230) 
sulfonimide_joint

>  <cluster_label>  (1230) 
3

>  <cluster_rank>  (1230) 
887

>  <N_interactions>  (1230) 
3

>  <∆∆G>  (1230) 
-6.254499

>  <comRMSD>  (1230) 
0.934228

>  <ROCS_TanimotoCombo>  (1230) 
0.298

>  <ROCS_ShapeTanimoto>  (1230) 
0.145

>  <ROCS_ColorTanimoto>  (1230) 
0.152

$$$$
EN300_318985
     RDKit          3D

 15 15  0  0  0  0  0  0  0  0999 V2000
   34.7414   12.2477    3.5215 C   0  0  0  0  0  0  0  0  0  0  0  0
   33.7084   11.9928    4.4602 O   0  0  0  0  0  0  0  0  0  0  0  0
   33.9159   10.9413    5.3010 C   0  0  0  0  0  0  0  0  0  0  0  0
   34.9548   10.3016    5.2435 O   0  0  0  0  0  0  0  0  0  0  0  0
   32.9206   10.5880    6.2182 C   0  0  0  0  0  0  0  0  0  0  0  0
   32.6990    9.2526    6.4341 C   0  0  0  0  0  0  0  0  0  0  0  0
   31.7363    8.8340    7.3211 C   0  0  0  0  0  0  0  0  0  0  0  0
   30.9026    9.7378    8.0748 C   0  0  0  0  0  0  0  0  0  0  0  0
   31.1519   11.0916    7.8277 C   0  0  0  0  0  0  0  0  0  0  0  0
   30.3416   12.0061    8.5465 N   0  0  0  0  0  0  0  0  0  0  0  0
   30.3360   13.6373    8.2165 S   0  0  0  0  0  6  0  0  0  0  0  0
   28.7968   14.1254    8.9657 C   0  0  0  0  0  0  0  0  0  0  0  0
   31.4332   14.3054    8.8910 O   0  0  0  0  0  0  0  0  0  0  0  0
   30.1570   13.6376    6.7813 O   0  0  0  0  0  0  0  0  0  0  0  0
   32.1411   11.5246    6.9203 C   0  0  0  0  0  0  0  0  0  0  0  0
  1  2  1  0
  2  3  1  0
  3  4  2  0
  3  5  1  0
  5  6  2  0
  6  7  1  0
  7  8  2  0
  8  9  1  0
  9 10  1  0
 10 11  1  0
 11 12  1  0
 11 13  2  0
 11 14  2  0
  9 15  2  0
 15  5  1  0
A    1
 C1 
A    2
 O1 
A    3
 C2 
A    4
 O2 
A    5
 C3 
A    6
 C4 
A    7
 C5 
A    8
 C6 
A    9
 C7 
A   10
 N1 
A   11
 S1 
A   12
 C8 
A   13
 O3 
A   14
 O4 
A   15
 C9 
M  END
>  <ref_pdb>  (1231) 
Ax0310a

>  <ref_mols>  (1231) 
Ax0446a,Ax1080a,Ax0812a,Ax0719a,Ax1140a,Ax0528a,Ax0310a

>  <original SMILES>  (1231) 
COC(=O)c1cccc(NS(C)(=O)=O)c1

>  <rationale>  (1231) 
info info set:sulfonimide_whole;hbond:S87+S125; 

>  <experiment>  (1231) 
sulfonimide_whole

>  <cluster_label>  (1231) 
3

>  <cluster_rank>  (1231) 
888

>  <N_interactions>  (1231) 
2

>  <∆∆G>  (1231) 
-7.03458

>  <comRMSD>  (1231) 
0.436839

>  <ROCS_TanimotoCombo>  (1231) 
0.333

>  <ROCS_ShapeTanimoto>  (1231) 
0.191

>  <ROCS_ColorTanimoto>  (1231) 
0.142

$$$$
EN300_26621911
     RDKit          3D

 12 12  0  0  0  0  0  0  0  0999 V2000
   29.8760    8.6340    8.2042 C   0  0  0  0  0  0  0  0  0  0  0  0
   30.9649    9.3862    7.6626 N   0  0  0  0  0  0  0  0  0  0  0  0
   32.0346    8.7646    7.0806 N   0  0  0  0  0  0  0  0  0  0  0  0
   32.7780    9.8317    6.7845 C   0  0  0  0  0  0  0  0  0  0  0  0
   32.2364   11.1561    7.1748 C   0  0  0  0  0  0  0  0  0  0  0  0
   32.8223   12.7241    7.0887 S   0  0  0  0  0  6  0  0  0  0  0  0
   31.4975   13.6139    7.5041 N   0  0  0  0  0  0  0  0  0  0  0  0
   33.6888   12.8242    8.2491 O   0  0  0  0  0  0  0  0  0  0  0  0
   33.2439   13.0134    5.7456 O   0  0  0  0  0  0  0  0  0  0  0  0
   31.0530   10.7253    7.6790 C   0  0  0  0  0  0  0  0  0  0  0  0
   30.1380   11.8545    8.1432 C   0  0  0  0  0  0  0  0  0  0  0  0
   29.2785   12.5795    6.7511 Cl  0  0  0  0  0  0  0  0  0  0  0  0
  1  2  1  0
  2  3  1  0
  3  4  2  0
  4  5  1  0
  5  6  1  0
  6  7  1  0
  6  8  2  0
  6  9  2  0
  5 10  2  0
 10 11  1  0
 11 12  1  0
 10  2  1  0
A    1
 C1 
A    2
 N1 
A    3
 N2 
A    4
 C2 
A    5
 C3 
A    6
 S1 
A    7
 N3 
A    8
 O1 
A    9
 O2 
A   10
 C4 
A   11
 C5 
A   12
CL1 
M  END
>  <ref_pdb>  (1232) 
Ax0310a

>  <ref_mols>  (1232) 
Ax0446a,Ax1080a,Ax0812a,Ax0719a,Ax1140a,Ax0528a,Ax0310a

>  <original SMILES>  (1232) 
Cn1ncc(S(N)(=O)=O)c1CCl

>  <rationale>  (1232) 
info info set:sulfonimide_joint;hbond:S87+G127; 

>  <experiment>  (1232) 
sulfonimide_joint

>  <cluster_label>  (1232) 
3

>  <cluster_rank>  (1232) 
889

>  <N_interactions>  (1232) 
2

>  <∆∆G>  (1232) 
-3.095541

>  <comRMSD>  (1232) 
0.837712

>  <ROCS_TanimotoCombo>  (1232) 
0.313

>  <ROCS_ShapeTanimoto>  (1232) 
0.143

>  <ROCS_ColorTanimoto>  (1232) 
0.17

$$$$
EN300_101822
     RDKit          3D

 11 11  0  0  0  0  0  0  0  0999 V2000
   35.1125   10.7654    4.3545 C   0  0  0  0  0  0  0  0  0  0  0  0
   34.2244    9.6530    4.6214 N   0  0  0  0  0  0  0  0  0  0  0  0
   34.9369    8.4048    4.6709 C   0  0  0  0  0  0  0  0  0  0  0  0
   33.2579    9.9697    5.6217 C   0  0  0  0  0  0  0  0  0  0  0  0
   33.0025   11.4767    5.7902 C   0  0  0  0  0  0  0  0  0  0  0  0
   32.0300   12.0142    6.7399 C   0  0  0  0  0  0  0  0  0  0  0  0
   31.2938   10.9292    7.5420 C   0  0  0  0  0  0  0  0  0  0  0  0
   30.3312   11.2943    8.4726 N   0  0  0  0  0  0  0  0  0  0  0  0
   31.6483    9.5840    7.2810 C   0  0  0  0  0  0  0  0  0  0  0  0
   30.9393    8.6421    8.0537 N   0  0  0  0  0  0  0  0  0  0  0  0
   32.5674    9.0975    6.3888 N   0  0  0  0  0  0  0  0  0  0  0  0
  1  2  1  0
  2  3  1  0
  2  4  1  0
  4  5  2  0
  5  6  1  0
  6  7  2  0
  7  8  1  0
  7  9  1  0
  9 10  1  0
  9 11  2  0
 11  4  1  0
A    1
 C1 
A    2
 N1 
A    3
 C2 
A    4
 C3 
A    5
 C4 
A    6
 C5 
A    7
 C6 
A    8
 N2 
A    9
 C7 
A   10
 N3 
A   11
 N4 
M  END
>  <ref_pdb>  (1233) 
Ax0310a

>  <ref_mols>  (1233) 
Ax0446a,Ax1080a,Ax0812a,Ax0719a,Ax1140a,Ax0528a,Ax0310a

>  <original SMILES>  (1233) 
CN(C)c1ccc(N)c(N)n1

>  <rationale>  (1233) 
info info set:bb_densepocket2;hbond:S105+S125; hydroph_interaction:P107; 

>  <experiment>  (1233) 
bb_densepocket2

>  <cluster_label>  (1233) 
3

>  <cluster_rank>  (1233) 
890

>  <N_interactions>  (1233) 
3

>  <∆∆G>  (1233) 
-3.26346

>  <comRMSD>  (1233) 
0.646454

>  <ROCS_TanimotoCombo>  (1233) 
0.616

>  <ROCS_ShapeTanimoto>  (1233) 
0.221

>  <ROCS_ColorTanimoto>  (1233) 
0.394

$$$$
EN300_37139262
     RDKit          3D

 15 16  0  0  0  0  0  0  0  0999 V2000
   30.7325    8.6077    8.7158 C   0  0  0  0  0  0  0  0  0  0  0  0
   31.1984    9.6688    8.0482 N   0  0  0  0  0  0  0  0  0  0  0  0
   30.5207   10.8819    8.4121 C   0  0  0  0  0  0  0  0  0  0  0  0
   31.0081   12.1229    7.7193 C   0  0  0  0  0  0  0  0  0  0  0  0
   30.2524   13.6707    8.0860 S   0  0  0  0  0  6  0  0  0  0  0  0
   28.9779   13.5227    9.1496 N   0  0  0  0  0  0  0  0  0  0  0  0
   31.2180   14.4672    8.8082 O   0  0  0  0  0  0  0  0  0  0  0  0
   29.6046   14.0585    6.8642 O   0  0  0  0  0  0  0  0  0  0  0  0
   32.1317   11.4233    6.8343 C   0  0  0  0  0  0  0  0  0  0  0  0
   33.1020   12.0223    5.8343 C   0  0  0  0  0  0  0  0  0  0  0  0
   33.3274   13.8050    5.2909 Br  0  0  0  0  0  0  0  0  0  0  0  0
   34.0094   11.0556    5.1843 C   0  0  0  0  0  0  0  0  0  0  0  0
   33.8419    9.5689    5.6050 C   0  0  0  0  0  0  0  0  0  0  0  0
   32.9454    9.0435    6.5209 C   0  0  0  0  0  0  0  0  0  0  0  0
   32.1571   10.0287    7.0749 C   0  0  0  0  0  0  0  0  0  0  0  0
  1  2  1  0
  2  3  1  0
  3  4  2  0
  4  5  1  0
  5  6  1  0
  5  7  2  0
  5  8  2  0
  4  9  1  0
  9 10  2  0
 10 11  1  0
 10 12  1  0
 12 13  2  0
 13 14  1  0
 14 15  2  0
 15  2  1  0
 15  9  1  0
A    1
 C1 
A    2
 N1 
A    3
 C2 
A    4
 C3 
A    5
 S1 
A    6
 N2 
A    7
 O1 
A    8
 O2 
A    9
 C4 
A   10
 C5 
A   11
BR1 
A   12
 C6 
A   13
 C7 
A   14
 C8 
A   15
 C9 
M  END
>  <ref_pdb>  (1234) 
Ax0310a

>  <ref_mols>  (1234) 
Ax0446a,Ax1080a,Ax0812a,Ax0719a,Ax1140a,Ax0528a,Ax0310a

>  <original SMILES>  (1234) 
Cn1cc(S(N)(=O)=O)c2c(Br)cccc21

>  <rationale>  (1234) 
info info set:sulfonimide_whole;hbond:S87+S125; 

>  <experiment>  (1234) 
sulfonimide_whole

>  <cluster_label>  (1234) 
3

>  <cluster_rank>  (1234) 
891

>  <N_interactions>  (1234) 
2

>  <∆∆G>  (1234) 
-6.985967

>  <comRMSD>  (1234) 
0.952904

>  <ROCS_TanimotoCombo>  (1234) 
0.329

>  <ROCS_ShapeTanimoto>  (1234) 
0.178

>  <ROCS_ColorTanimoto>  (1234) 
0.151

$$$$
EN300_23627321
     RDKit          3D

 14 14  0  0  0  0  0  0  0  0999 V2000
   28.7483   13.0459    7.9288 C   0  0  0  0  0  0  0  0  0  0  0  0
   30.0199   12.5914    7.4403 O   0  0  0  0  0  0  0  0  0  0  0  0
   30.4097   11.3842    7.9337 C   0  0  0  0  0  0  0  0  0  0  0  0
   29.9694   10.8284    8.8727 O   0  0  0  0  0  0  0  0  0  0  0  0
   31.4757   10.7052    7.1785 C   0  0  0  0  0  0  0  0  0  0  0  0
   32.3433   11.5428    6.2941 C   0  0  0  0  0  0  0  0  0  0  0  0
   33.5373   11.0478    5.3889 C   0  0  0  0  0  0  0  0  0  0  0  0
   34.4609   11.8800    4.4614 B   0  0  0  0  0  0  0  0  0  0  0  0
   34.1595   13.2879    4.3409 O   0  0  0  0  0  0  0  0  0  0  0  0
   35.1918   11.1582    3.4166 O   0  0  0  0  0  0  0  0  0  0  0  0
   33.5127    9.4913    5.6993 C   0  0  0  0  0  0  0  0  0  0  0  0
   32.6693    8.7142    6.5585 N   0  0  0  0  0  0  0  0  0  0  0  0
   31.6330    9.3541    7.3121 C   0  0  0  0  0  0  0  0  0  0  0  0
   30.7926    8.6047    8.1729 N   0  0  0  0  0  0  0  0  0  0  0  0
  1  2  1  0
  2  3  1  0
  3  4  2  0
  3  5  1  0
  5  6  2  0
  6  7  1  0
  7  8  1  0
  8  9  1  0
  8 10  1  0
  7 11  2  0
 11 12  1  0
 12 13  2  0
 13 14  1  0
 13  5  1  0
A    1
 C1 
A    2
 O1 
A    3
 C2 
A    4
 O2 
A    5
 C3 
A    6
 C4 
A    7
 C5 
A    8
 B1 
A    9
 O3 
A   10
 O4 
A   11
 C6 
A   12
 N1 
A   13
 C7 
A   14
 N2 
M  END
>  <ref_pdb>  (1235) 
Ax0310a

>  <ref_mols>  (1235) 
Ax0446a,Ax1080a,Ax0812a,Ax0719a,Ax1140a,Ax0528a,Ax0310a

>  <original SMILES>  (1235) 
COC(=O)c1cc(B(O)O)cnc1N

>  <rationale>  (1235) 
info info set:bb_densepocket2;hbond:S105; hydroph_interaction:P107; 

>  <experiment>  (1235) 
bb_densepocket2

>  <cluster_label>  (1235) 
3

>  <cluster_rank>  (1235) 
892

>  <N_interactions>  (1235) 
2

>  <∆∆G>  (1235) 
-3.515688

>  <comRMSD>  (1235) 
0.531899

>  <ROCS_TanimotoCombo>  (1235) 
0.623

>  <ROCS_ShapeTanimoto>  (1235) 
0.25

>  <ROCS_ColorTanimoto>  (1235) 
0.373

$$$$
EN300_192459
     RDKit          3D

 13 13  0  0  0  0  0  0  0  0999 V2000
   28.0844   12.8013    7.3462 C   0  0  0  0  0  0  0  0  0  0  0  0
   28.9846   13.2475    8.0021 C   0  0  0  0  0  0  0  0  0  0  0  0
   30.2430   12.7348    7.5210 O   0  0  0  0  0  0  0  0  0  0  0  0
   30.5432   11.4793    7.9337 C   0  0  0  0  0  0  0  0  0  0  0  0
   30.0383   10.8775    8.8189 O   0  0  0  0  0  0  0  0  0  0  0  0
   31.5705   10.8632    7.1490 C   0  0  0  0  0  0  0  0  0  0  0  0
   32.4494   11.5173    6.3240 C   0  0  0  0  0  0  0  0  0  0  0  0
   33.3884   10.8708    5.6018 N   0  0  0  0  0  0  0  0  0  0  0  0
   33.4225    9.5445    5.7300 C   0  0  0  0  0  0  0  0  0  0  0  0
   34.3530    8.8556    4.9927 N   0  0  0  0  0  0  0  0  0  0  0  0
   32.6157    8.8332    6.5160 N   0  0  0  0  0  0  0  0  0  0  0  0
   31.7102    9.5198    7.2047 C   0  0  0  0  0  0  0  0  0  0  0  0
   30.9030    8.7690    7.9922 O   0  0  0  0  0  0  0  0  0  0  0  0
  1  2  1  0
  2  3  1  0
  3  4  1  0
  4  5  2  0
  4  6  1  0
  6  7  2  0
  7  8  1  0
  8  9  2  0
  9 10  1  0
  9 11  1  0
 11 12  2  0
 12 13  1  0
 12  6  1  0
A    1
 C1 
A    2
 C2 
A    3
 O1 
A    4
 C3 
A    5
 O2 
A    6
 C4 
A    7
 C5 
A    8
 N1 
A    9
 C6 
A   10
 N2 
A   11
 N3 
A   12
 C7 
A   13
 O3 
M  END
>  <ref_pdb>  (1236) 
Ax0310a

>  <ref_mols>  (1236) 
Ax0446a,Ax1080a,Ax0812a,Ax0719a,Ax1140a,Ax0528a,Ax0310a

>  <original SMILES>  (1236) 
CCOC(=O)c1cnc(N)nc1O

>  <rationale>  (1236) 
info info set:bb_densepocket2;hbond:S105; 

>  <experiment>  (1236) 
bb_densepocket2

>  <cluster_label>  (1236) 
3

>  <cluster_rank>  (1236) 
893

>  <N_interactions>  (1236) 
2

>  <∆∆G>  (1236) 
-3.112186

>  <comRMSD>  (1236) 
0.608379

>  <ROCS_TanimotoCombo>  (1236) 
0.621

>  <ROCS_ShapeTanimoto>  (1236) 
0.241

>  <ROCS_ColorTanimoto>  (1236) 
0.38

$$$$
EN300_7286809
     RDKit          3D

 10 11  0  0  0  0  0  0  0  0999 V2000
   34.8391    8.6843    5.0312 N   0  0  0  0  0  0  0  0  0  0  0  0
   34.4763   10.0755    5.2546 C   0  0  0  0  0  0  0  0  0  0  0  0
   33.3693   10.3536    6.2917 C   0  0  1  0  0  0  0  0  0  0  0  0
   32.6207   11.3277    5.4239 C   0  0  0  0  0  0  0  0  0  0  0  0
   31.3653   11.1651    6.2253 C   0  0  0  0  0  0  0  0  0  0  0  0
   31.6063   11.1354    7.6059 C   0  0  1  0  0  0  0  0  0  0  0  0
   30.6381   11.9701    8.2943 N   0  0  0  0  0  0  0  0  0  0  0  0
   31.5534    9.5810    7.6316 C   0  0  0  0  0  0  0  0  0  0  0  0
   32.5588    9.1815    6.6689 O   0  0  0  0  0  0  0  0  0  0  0  0
   32.9797   11.6522    7.1694 C   0  0  0  0  0  0  0  0  0  0  0  0
  1  2  1  0
  3  2  1  6
  3  4  1  0
  4  5  1  0
  5  6  1  0
  6  7  1  1
  6  8  1  0
  8  9  1  0
  6 10  1  0
  9  3  1  0
 10  3  1  0
A    1
 N1 
A    2
 C1 
A    3
 C2 
A    4
 C3 
A    5
 C4 
A    6
 C5 
A    7
 N2 
A    8
 C6 
A    9
 O1 
A   10
 C7 
M  END
>  <ref_pdb>  (1237) 
Ax0310a

>  <ref_mols>  (1237) 
Ax0446a,Ax1080a,Ax0812a,Ax0719a,Ax1140a,Ax0528a,Ax0310a

>  <original SMILES>  (1237) 
NC[C@@]12CC[C@@](N)(CO1)C2

>  <rationale>  (1237) 
info info set:bb_densepocket;hbond:S105+S125+G127; hydroph_interaction:P107; 

>  <experiment>  (1237) 
bb_densepocket

>  <cluster_label>  (1237) 
3

>  <cluster_rank>  (1237) 
894

>  <N_interactions>  (1237) 
4

>  <∆∆G>  (1237) 
-0.469441

>  <comRMSD>  (1237) 
0.798671

>  <ROCS_TanimotoCombo>  (1237) 
0.7

>  <ROCS_ShapeTanimoto>  (1237) 
0.201

>  <ROCS_ColorTanimoto>  (1237) 
0.499

$$$$
EN300_175312
     RDKit          3D

 10 10  0  0  0  0  0  0  0  0999 V2000
   29.5570    8.2382    8.4507 C   0  0  0  0  0  0  0  0  0  0  0  0
   30.8624    8.9086    8.6937 C   0  0  0  0  0  0  0  0  0  0  0  0
   31.4461    9.8826    7.6411 C   0  0  0  0  0  0  0  0  0  0  0  0
   32.3888    9.1995    6.8945 N   0  0  0  0  0  0  0  0  0  0  0  0
   33.0965    9.7831    5.9028 C   0  0  0  0  0  0  0  0  0  0  0  0
   34.1440    9.0876    5.0969 C   0  0  0  0  0  0  0  0  0  0  0  0
   32.8159   11.2304    5.6133 C   0  0  0  0  0  0  0  0  0  0  0  0
   31.7797   11.9352    6.4428 C   0  0  0  0  0  0  0  0  0  0  0  0
   31.1318   11.2303    7.4356 C   0  0  0  0  0  0  0  0  0  0  0  0
   30.1922   11.8903    8.1899 O   0  0  0  0  0  0  0  0  0  0  0  0
  1  2  1  0
  2  3  1  0
  3  4  2  0
  4  5  1  0
  5  6  1  0
  5  7  2  0
  7  8  1  0
  8  9  2  0
  9 10  1  0
  9  3  1  0
A    1
 C1 
A    2
 C2 
A    3
 C3 
A    4
 N1 
A    5
 C4 
A    6
 C5 
A    7
 C6 
A    8
 C7 
A    9
 C8 
A   10
 O1 
M  END
>  <ref_pdb>  (1238) 
Ax0310a

>  <ref_mols>  (1238) 
Ax0446a,Ax1080a,Ax0812a,Ax0719a,Ax1140a,Ax0528a,Ax0310a

>  <original SMILES>  (1238) 
CCc1nc(C)ccc1O

>  <rationale>  (1238) 
info info set:bb_densepocket2;hbond:S125; hydroph_interaction:P107+V124; 

>  <experiment>  (1238) 
bb_densepocket2

>  <cluster_label>  (1238) 
3

>  <cluster_rank>  (1238) 
895

>  <N_interactions>  (1238) 
3

>  <∆∆G>  (1238) 
-4.69398

>  <comRMSD>  (1238) 
0.555293

>  <ROCS_TanimotoCombo>  (1238) 
0.611

>  <ROCS_ShapeTanimoto>  (1238) 
0.199

>  <ROCS_ColorTanimoto>  (1238) 
0.412

$$$$
EN300_744827
     RDKit          3D

 16 17  0  0  0  0  0  0  0  0999 V2000
   35.0628   10.9466    2.2043 C   0  0  0  0  0  0  0  0  0  0  0  0
   34.3581   10.6334    3.5188 C   0  0  0  0  0  0  0  0  0  0  0  0
   34.8509    9.4067    4.1909 C   0  0  0  0  0  0  0  0  0  0  0  0
   34.2069    8.9981    5.5137 C   0  0  0  0  0  0  0  0  0  0  0  0
   33.0767    9.8825    6.0413 C   0  0  0  0  0  0  0  0  0  0  0  0
   32.4124    9.6994    7.0865 O   0  0  0  0  0  0  0  0  0  0  0  0
   31.4841   10.7176    7.2015 C   0  0  0  0  0  0  0  0  0  0  0  0
   30.4811   10.8053    8.3265 C   0  0  0  0  0  0  0  0  0  0  0  0
   29.8682   11.7618    8.7151 O   0  0  0  0  0  0  0  0  0  0  0  0
   30.5349    9.2920    8.7157 C   0  0  0  0  0  0  0  0  0  0  0  0
   31.1241    8.2351    7.9423 C   0  0  0  0  0  0  0  0  0  0  0  0
   29.0412    9.3688    8.4826 C   0  0  0  0  0  0  0  0  0  0  0  0
   29.7445    8.6665    9.7955 C   0  0  0  0  0  0  0  0  0  0  0  0
   31.6524   11.5502    6.1624 C   0  0  0  0  0  0  0  0  0  0  0  0
   32.6716   11.0148    5.3823 C   0  0  0  0  0  0  0  0  0  0  0  0
   33.3431   11.4078    4.0685 C   0  0  0  0  0  0  0  0  0  0  0  0
  1  2  1  0
  2  3  2  0
  3  4  1  0
  4  5  2  0
  5  6  1  0
  6  7  1  0
  7  8  1  0
  8  9  2  0
  8 10  1  0
 10 11  1  0
 10 12  1  0
 10 13  1  0
  7 14  2  0
 14 15  1  0
 15 16  2  0
 16  2  1  0
 15  5  1  0
A    1
 C1 
A    2
 C2 
A    3
 C3 
A    4
 C4 
A    5
 C5 
A    6
 O1 
A    7
 C6 
A    8
 C7 
A    9
 O2 
A   10
 C8 
A   11
 C9 
A   12
 C10
A   13
 C11
A   14
 C12
A   15
 C13
A   16
 C14
M  END
>  <ref_pdb>  (1239) 
Ax0310a

>  <ref_mols>  (1239) 
Ax0446a,Ax1080a,Ax0812a,Ax0719a,Ax1140a,Ax0528a,Ax0310a

>  <original SMILES>  (1239) 
Cc1ccc2oc(C(=O)C(C)(C)C)cc2c1

>  <rationale>  (1239) 
info info set:bb_densepocket2;hydroph_interaction:P107+V124; 

>  <experiment>  (1239) 
bb_densepocket2

>  <cluster_label>  (1239) 
3

>  <cluster_rank>  (1239) 
896

>  <N_interactions>  (1239) 
2

>  <∆∆G>  (1239) 
-6.621088

>  <comRMSD>  (1239) 
0.848115

>  <ROCS_TanimotoCombo>  (1239) 
0.607

>  <ROCS_ShapeTanimoto>  (1239) 
0.219

>  <ROCS_ColorTanimoto>  (1239) 
0.388

$$$$
Z425750170
     RDKit          3D

 15 15  0  0  0  0  0  0  0  0999 V2000
   30.6691    8.5740    7.8493 C   0  0  0  0  0  0  0  0  0  0  0  0
   31.3141    9.8563    7.6490 C   0  0  0  0  0  0  0  0  0  0  0  0
   30.7617   10.8994    8.3025 C   0  0  0  0  0  0  0  0  0  0  0  0
   31.4250   12.0881    8.2102 C   0  0  0  0  0  0  0  0  0  0  0  0
   32.5826   12.2067    7.4984 C   0  0  0  0  0  0  0  0  0  0  0  0
   33.3069   13.6850    7.6403 S   0  0  0  0  0  6  0  0  0  0  0  0
   32.3587   14.3100    8.5259 O   0  0  0  0  0  0  0  0  0  0  0  0
   33.7463   14.1378    6.3435 O   0  0  0  0  0  0  0  0  0  0  0  0
   34.6205   13.3788    8.6431 N   0  0  0  0  0  0  0  0  0  0  0  0
   35.9995   13.8070    8.3014 C   0  0  0  0  0  0  0  0  0  0  0  0
   37.1463   13.2160    9.0858 C   0  0  0  0  0  0  0  0  0  0  0  0
   38.0639   14.1423    9.6350 O   0  0  0  0  0  0  0  0  0  0  0  0
   33.0929   11.1849    6.7797 C   0  0  0  0  0  0  0  0  0  0  0  0
   32.4749   10.0037    6.8408 C   0  0  0  0  0  0  0  0  0  0  0  0
   33.0123    8.9865    6.1455 C   0  0  0  0  0  0  0  0  0  0  0  0
  1  2  1  0
  2  3  2  0
  3  4  1  0
  4  5  2  0
  5  6  1  0
  6  7  2  0
  6  8  2  0
  6  9  1  0
  9 10  1  0
 10 11  1  0
 11 12  1  0
  5 13  1  0
 13 14  2  0
 14 15  1  0
 14  2  1  0
A    1
 C1 
A    2
 C2 
A    3
 C3 
A    4
 C4 
A    5
 C5 
A    6
 S1 
A    7
 O1 
A    8
 O2 
A    9
 N1 
A   10
 C6 
A   11
 C7 
A   12
 O3 
A   13
 C8 
A   14
 C9 
A   15
 C10
M  END
>  <ref_pdb>  (1240) 
Ax0310a

>  <ref_mols>  (1240) 
Ax0446a,Ax1080a,Ax0812a,Ax0719a,Ax1140a,Ax0528a,Ax0310a

>  <original SMILES>  (1240) 
Cc1ccc(S(=O)(=O)NCCO)cc1C

>  <rationale>  (1240) 
info info set:3d;hbond:S87+G127+E85; 

>  <experiment>  (1240) 
3d

>  <cluster_label>  (1240) 
3

>  <cluster_rank>  (1240) 
897

>  <N_interactions>  (1240) 
3

>  <∆∆G>  (1240) 
-5.033645

>  <comRMSD>  (1240) 
0.78539

>  <ROCS_TanimotoCombo>  (1240) 
0.313

>  <ROCS_ShapeTanimoto>  (1240) 
0.174

>  <ROCS_ColorTanimoto>  (1240) 
0.138

$$$$
EN300_7425769
     RDKit          3D

 10 10  0  0  0  0  0  0  0  0999 V2000
   35.0319   14.3655    7.8875 N   0  0  0  0  0  0  0  0  0  0  0  0
   33.9831   13.5996    6.8029 S   0  0  0  0  0  6  0  0  0  0  0  0
   33.4647   14.5731    5.9127 O   0  0  0  0  0  0  0  0  0  0  0  0
   34.7325   12.5307    6.2105 O   0  0  0  0  0  0  0  0  0  0  0  0
   32.6960   12.9316    7.8394 C   0  0  0  0  0  0  0  0  0  0  0  0
   32.2424   11.7184    7.2761 C   0  0  0  0  0  0  0  0  0  0  0  0
   32.7709   11.0784    6.2988 N   0  0  0  0  0  0  0  0  0  0  0  0
   31.9406    9.9330    6.1398 O   0  0  0  0  0  0  0  0  0  0  0  0
   31.3492    9.6791    7.4187 C   0  0  0  0  0  0  0  0  0  0  0  0
   30.9796   11.0604    7.8499 C   0  0  0  0  0  0  0  0  0  0  0  0
  1  2  1  0
  2  3  2  0
  2  4  2  0
  2  5  1  0
  5  6  1  0
  6  7  2  0
  7  8  1  0
  8  9  1  0
  9 10  1  0
 10  6  1  0
A    1
 N1 
A    2
 S1 
A    3
 O1 
A    4
 O2 
A    5
 C1 
A    6
 C2 
A    7
 N2 
A    8
 O3 
A    9
 C3 
A   10
 C4 
M  END
>  <ref_pdb>  (1241) 
Ax0310a

>  <ref_mols>  (1241) 
Ax0446a,Ax1080a,Ax0812a,Ax0719a,Ax1140a,Ax0528a,Ax0310a

>  <original SMILES>  (1241) 
NS(=O)(=O)CC1=NOCC1

>  <rationale>  (1241) 
info info set:sulfonimide_joint;hbond:G127+E85; 

>  <experiment>  (1241) 
sulfonimide_joint

>  <cluster_label>  (1241) 
3

>  <cluster_rank>  (1241) 
898

>  <N_interactions>  (1241) 
3

>  <∆∆G>  (1241) 
-1.779884

>  <comRMSD>  (1241) 
0.914155

>  <ROCS_TanimotoCombo>  (1241) 
0.305

>  <ROCS_ShapeTanimoto>  (1241) 
0.143

>  <ROCS_ColorTanimoto>  (1241) 
0.162

$$$$
EN300_7489962
     RDKit          3D

 15 15  0  0  0  0  0  0  0  0999 V2000
   33.1761   12.0718    3.9346 N   0  0  0  0  0  0  0  0  0  0  0  0
   34.0169   11.8613    5.3723 S   0  0  0  0  0  6  0  0  0  0  0  0
   35.0841   10.9383    5.0615 O   0  0  0  0  0  0  0  0  0  0  0  0
   34.2527   13.1667    5.9338 O   0  0  0  0  0  0  0  0  0  0  0  0
   32.8123   11.0380    6.3707 C   0  0  0  0  0  0  0  0  0  0  0  0
   32.7431    9.5851    6.3858 C   0  0  0  0  0  0  0  0  0  0  0  0
   31.8056    8.9430    7.1781 C   0  0  0  0  0  0  0  0  0  0  0  0
   30.8330    9.6932    8.0268 C   0  0  0  0  0  0  0  0  0  0  0  0
   30.9519   11.0477    7.9565 C   0  0  0  0  0  0  0  0  0  0  0  0
   31.9015   11.7229    7.1689 C   0  0  0  0  0  0  0  0  0  0  0  0
   31.8025   13.2083    7.3133 O   0  0  0  0  0  0  0  0  0  0  0  0
   32.1015   13.7973    8.8165 S   0  0  0  0  0  6  0  0  0  0  0  0
   32.0641   15.1524    9.2849 O   0  0  0  0  0  0  0  0  0  0  0  0
   33.2190   13.0121    9.2825 O   0  0  0  0  0  0  0  0  0  0  0  0
   30.7458   13.3709    9.4981 F   0  0  0  0  0  0  0  0  0  0  0  0
  1  2  1  0
  2  3  2  0
  2  4  2  0
  2  5  1  0
  5  6  2  0
  6  7  1  0
  7  8  2  0
  8  9  1  0
  9 10  2  0
 10 11  1  0
 11 12  1  0
 12 13  2  0
 12 14  2  0
 12 15  1  0
 10  5  1  0
A    1
 N1 
A    2
 S1 
A    3
 O1 
A    4
 O2 
A    5
 C1 
A    6
 C2 
A    7
 C3 
A    8
 C4 
A    9
 C5 
A   10
 C6 
A   11
 O3 
A   12
 S2 
A   13
 O4 
A   14
 O5 
A   15
 F1 
M  END
>  <ref_pdb>  (1242) 
Ax0310a

>  <ref_mols>  (1242) 
Ax0446a,Ax1080a,Ax0812a,Ax0719a,Ax1140a,Ax0528a,Ax0310a

>  <original SMILES>  (1242) 
NS(=O)(=O)c1ccccc1OS(=O)(=O)F

>  <rationale>  (1242) 
info info set:sulfonimide_whole;

>  <experiment>  (1242) 
sulfonimide_whole

>  <cluster_label>  (1242) 
3

>  <cluster_rank>  (1242) 
899

>  <N_interactions>  (1242) 
0

>  <∆∆G>  (1242) 
-3.898222

>  <comRMSD>  (1242) 
0.357116

>  <ROCS_TanimotoCombo>  (1242) 
0.348

>  <ROCS_ShapeTanimoto>  (1242) 
0.2

>  <ROCS_ColorTanimoto>  (1242) 
0.148

$$$$
EN300_7492298
     RDKit          3D

 14 14  0  0  0  0  0  0  0  0999 V2000
   28.9793   13.3685    8.7295 C   0  0  0  0  0  0  0  0  0  0  0  0
   29.9569   12.7871    7.8841 N   0  0  0  0  0  0  0  0  0  0  0  0
   30.4677   11.4468    8.0444 C   0  0  0  0  0  0  0  0  0  0  0  0
   30.0430   10.4894    8.9880 O   0  0  0  0  0  0  0  0  0  0  0  0
   31.5159   10.7983    7.2446 C   0  0  0  0  0  0  0  0  0  0  0  0
   32.4622   11.5684    6.3527 C   0  0  0  0  0  0  0  0  0  0  0  0
   33.5360   10.8802    5.5320 C   0  0  0  0  0  0  0  0  0  0  0  0
   34.5264   11.6527    4.6139 B   0  0  0  0  0  0  0  0  0  0  0  0
   34.5075   13.1088    4.7077 O   0  0  0  0  0  0  0  0  0  0  0  0
   35.3788   10.9739    3.6446 O   0  0  0  0  0  0  0  0  0  0  0  0
   33.5541    9.3898    5.6885 C   0  0  0  0  0  0  0  0  0  0  0  0
   32.7019    8.7519    6.4918 N   0  0  0  0  0  0  0  0  0  0  0  0
   31.7583    9.2725    7.2368 C   0  0  0  0  0  0  0  0  0  0  0  0
   30.9076    8.5127    8.0793 N   0  0  0  0  0  0  0  0  0  0  0  0
  1  2  1  0
  2  3  1  0
  3  4  2  0
  3  5  1  0
  5  6  2  0
  6  7  1  0
  7  8  1  0
  8  9  1  0
  8 10  1  0
  7 11  2  0
 11 12  1  0
 12 13  2  0
 13 14  1  0
 13  5  1  0
A    1
 C1 
A    2
 N1 
A    3
 C2 
A    4
 O1 
A    5
 C3 
A    6
 C4 
A    7
 C5 
A    8
 B1 
A    9
 O2 
A   10
 O3 
A   11
 C6 
A   12
 N2 
A   13
 C7 
A   14
 N3 
M  END
>  <ref_pdb>  (1243) 
Ax0310a

>  <ref_mols>  (1243) 
Ax0446a,Ax1080a,Ax0812a,Ax0719a,Ax1140a,Ax0528a,Ax0310a

>  <original SMILES>  (1243) 
CNC(=O)c1cc(B(O)O)cnc1N

>  <rationale>  (1243) 
info info set:bb_densepocket2;hbond:S105; 

>  <experiment>  (1243) 
bb_densepocket2

>  <cluster_label>  (1243) 
3

>  <cluster_rank>  (1243) 
900

>  <N_interactions>  (1243) 
1

>  <∆∆G>  (1243) 
-2.331135

>  <comRMSD>  (1243) 
0.532666

>  <ROCS_TanimotoCombo>  (1243) 
0.64

>  <ROCS_ShapeTanimoto>  (1243) 
0.247

>  <ROCS_ColorTanimoto>  (1243) 
0.393

$$$$
EN300_1458411
     RDKit          3D

 18 18  0  0  0  0  0  0  0  0999 V2000
   29.3493    7.5838    8.9525 C   0  0  0  0  0  0  0  0  0  0  0  0
   30.3505    8.4983    9.4934 C   0  0  0  0  0  0  0  0  0  0  0  0
   31.2962    8.6889    8.5177 O   0  0  0  0  0  0  0  0  0  0  0  0
   31.1036    9.9320    8.1192 C   0  0  0  0  0  0  0  0  0  0  0  0
   30.3497   10.7308    8.6231 O   0  0  0  0  0  0  0  0  0  0  0  0
   31.9632   10.1994    6.9994 C   0  0  0  0  0  0  0  0  0  0  0  0
   32.7739    9.1976    6.5057 N   0  0  0  0  0  0  0  0  0  0  0  0
   33.4790    9.6277    5.5208 C   0  0  0  0  0  0  0  0  0  0  0  0
   34.3521    8.8513    4.8672 N   0  0  0  0  0  0  0  0  0  0  0  0
   33.2115   11.2633    5.1178 S   0  0  0  0  0  0  0  0  0  0  0  0
   32.0448   11.4002    6.3796 C   0  0  0  0  0  0  0  0  0  0  0  0
   31.3054   12.7262    6.6482 C   0  0  0  0  0  0  0  0  0  0  0  0
   31.5842   13.5147    5.5766 F   0  0  0  0  0  0  0  0  0  0  0  0
   31.8950   13.3570    7.7127 F   0  0  0  0  0  0  0  0  0  0  0  0
   29.7889   12.7585    6.9101 C   0  0  0  0  0  0  0  0  0  0  0  0
   29.4047   13.8329    7.6291 F   0  0  0  0  0  0  0  0  0  0  0  0
   29.0818   12.8637    5.7911 F   0  0  0  0  0  0  0  0  0  0  0  0
   29.3248   11.6894    7.5793 F   0  0  0  0  0  0  0  0  0  0  0  0
  1  2  1  0
  2  3  1  0
  3  4  1  0
  4  5  2  0
  4  6  1  0
  6  7  1  0
  7  8  2  0
  8  9  1  0
  8 10  1  0
 10 11  1  0
 11 12  1  0
 12 13  1  0
 12 14  1  0
 12 15  1  0
 15 16  1  0
 15 17  1  0
 15 18  1  0
 11  6  2  0
A    1
 C1 
A    2
 C2 
A    3
 O1 
A    4
 C3 
A    5
 O2 
A    6
 C4 
A    7
 N1 
A    8
 C5 
A    9
 N2 
A   10
 S1 
A   11
 C6 
A   12
 C7 
A   13
 F1 
A   14
 F2 
A   15
 C8 
A   16
 F3 
A   17
 F4 
A   18
 F5 
M  END
>  <ref_pdb>  (1244) 
Ax0310a

>  <ref_mols>  (1244) 
Ax0446a,Ax1080a,Ax0812a,Ax0719a,Ax1140a,Ax0528a,Ax0310a

>  <original SMILES>  (1244) 
CCOC(=O)c1nc(N)sc1C(F)(F)C(F)(F)F

>  <rationale>  (1244) 
info info set:bb_densepocket2;hbond:S105; hydroph_interaction:V124+D109; 

>  <experiment>  (1244) 
bb_densepocket2

>  <cluster_label>  (1244) 
3

>  <cluster_rank>  (1244) 
901

>  <N_interactions>  (1244) 
3

>  <∆∆G>  (1244) 
-1.083284

>  <comRMSD>  (1244) 
0.808066

>  <ROCS_TanimotoCombo>  (1244) 
0.619

>  <ROCS_ShapeTanimoto>  (1244) 
0.253

>  <ROCS_ColorTanimoto>  (1244) 
0.367

$$$$
EN300_383987
     RDKit          3D

 14 14  0  0  0  0  0  0  0  0999 V2000
   33.9710    8.9064    5.6929 C   0  0  0  0  0  0  0  0  0  0  0  0
   32.8064    8.6209    6.4365 O   0  0  0  0  0  0  0  0  0  0  0  0
   32.1406    9.6990    6.8891 C   0  0  0  0  0  0  0  0  0  0  0  0
   31.1717    9.6126    7.8923 C   0  0  0  0  0  0  0  0  0  0  0  0
   30.5438   10.7674    8.2909 C   0  0  0  0  0  0  0  0  0  0  0  0
   30.9546   12.0470    7.6193 C   0  0  0  0  0  0  0  0  0  0  0  0
   30.2102   13.5813    8.0589 S   0  0  0  0  0  6  0  0  0  0  0  0
   28.8923   13.2756    9.0132 N   0  0  0  0  0  0  0  0  0  0  0  0
   29.5627   14.0890    6.8768 O   0  0  0  0  0  0  0  0  0  0  0  0
   31.1529   14.3551    8.8480 O   0  0  0  0  0  0  0  0  0  0  0  0
   31.9116   12.1081    6.6354 C   0  0  0  0  0  0  0  0  0  0  0  0
   32.5134   10.9286    6.2571 C   0  0  0  0  0  0  0  0  0  0  0  0
   33.5401   11.0003    5.1740 C   0  0  0  0  0  0  0  0  0  0  0  0
   34.8978   10.9667    5.6062 O   0  0  0  0  0  0  0  0  0  0  0  0
  1  2  1  0
  2  3  1  0
  3  4  2  0
  4  5  1  0
  5  6  2  0
  6  7  1  0
  7  8  1  0
  7  9  2  0
  7 10  2  0
  6 11  1  0
 11 12  2  0
 12 13  1  0
 13 14  1  0
 12  3  1  0
A    1
 C1 
A    2
 O1 
A    3
 C2 
A    4
 C3 
A    5
 C4 
A    6
 C5 
A    7
 S1 
A    8
 N1 
A    9
 O2 
A   10
 O3 
A   11
 C6 
A   12
 C7 
A   13
 C8 
A   14
 O4 
M  END
>  <ref_pdb>  (1245) 
Ax0310a

>  <ref_mols>  (1245) 
Ax0446a,Ax1080a,Ax0812a,Ax0719a,Ax1140a,Ax0528a,Ax0310a

>  <original SMILES>  (1245) 
COc1ccc(S(N)(=O)=O)cc1CO

>  <rationale>  (1245) 
info info set:sulfonimide_whole;hbond:S87+S125; hydroph_interaction:P107; 

>  <experiment>  (1245) 
sulfonimide_whole

>  <cluster_label>  (1245) 
3

>  <cluster_rank>  (1245) 
902

>  <N_interactions>  (1245) 
3

>  <∆∆G>  (1245) 
-4.017239

>  <comRMSD>  (1245) 
0.7784

>  <ROCS_TanimotoCombo>  (1245) 
0.339

>  <ROCS_ShapeTanimoto>  (1245) 
0.191

>  <ROCS_ColorTanimoto>  (1245) 
0.148

$$$$
EN300_1664746
     RDKit          3D

 13 13  0  0  0  0  0  0  0  0999 V2000
   34.4411   12.8281    6.1758 N   0  0  0  0  0  0  0  0  0  0  0  0
   33.6059   11.8740    5.4696 C   0  0  0  0  0  0  0  0  0  0  0  0
   32.5943   11.2409    6.4338 C   0  0  0  0  0  0  0  0  0  0  0  0
   32.6457    9.7184    6.4232 C   0  0  0  0  0  0  0  0  0  0  0  0
   31.8324    8.9110    7.2118 C   0  0  0  0  0  0  0  0  0  0  0  0
   30.8136    9.6048    8.1391 C   0  0  0  0  0  0  0  0  0  0  0  0
   30.8021   11.0097    8.1135 C   0  0  0  0  0  0  0  0  0  0  0  0
   31.6944   11.8971    7.2691 C   0  0  0  0  0  0  0  0  0  0  0  0
   31.5344   13.2728    7.4100 C   0  0  0  0  0  0  0  0  0  0  0  0
   32.2619   13.8424    8.9822 S   0  0  0  0  0  6  0  0  0  0  0  0
   30.9238   13.8167    9.9874 N   0  0  0  0  0  0  0  0  0  0  0  0
   32.5091   15.2261    9.2387 O   0  0  0  0  0  0  0  0  0  0  0  0
   33.3442   12.9631    9.3262 O   0  0  0  0  0  0  0  0  0  0  0  0
  1  2  1  0
  2  3  1  0
  3  4  2  0
  4  5  1  0
  5  6  2  0
  6  7  1  0
  7  8  2  0
  8  9  1  0
  9 10  1  0
 10 11  1  0
 10 12  2  0
 10 13  2  0
  8  3  1  0
A    1
 N1 
A    2
 C1 
A    3
 C2 
A    4
 C3 
A    5
 C4 
A    6
 C5 
A    7
 C6 
A    8
 C7 
A    9
 C8 
A   10
 S1 
A   11
 N2 
A   12
 O1 
A   13
 O2 
M  END
>  <ref_pdb>  (1246) 
Ax0310a

>  <ref_mols>  (1246) 
Ax0446a,Ax1080a,Ax0812a,Ax0719a,Ax1140a,Ax0528a,Ax0310a

>  <original SMILES>  (1246) 
NCc1ccccc1CS(N)(=O)=O

>  <rationale>  (1246) 
info info set:sulfonimide_whole;hbond:S87+S125+G127; 

>  <experiment>  (1246) 
sulfonimide_whole

>  <cluster_label>  (1246) 
3

>  <cluster_rank>  (1246) 
903

>  <N_interactions>  (1246) 
4

>  <∆∆G>  (1246) 
-6.195992

>  <comRMSD>  (1246) 
0.32133

>  <ROCS_TanimotoCombo>  (1246) 
0.296

>  <ROCS_ShapeTanimoto>  (1246) 
0.165

>  <ROCS_ColorTanimoto>  (1246) 
0.132

$$$$
EN300_283804
     RDKit          3D

 13 13  0  0  0  0  0  0  0  0999 V2000
   34.8617   14.8673    8.8301 N   0  0  0  0  0  0  0  0  0  0  0  0
   33.5425   13.8683    8.5938 S   0  0  0  0  0  6  0  0  0  0  0  0
   34.0209   12.7109    9.2115 O   0  0  0  0  0  0  0  0  0  0  0  0
   32.3588   14.5429    9.0875 O   0  0  0  0  0  0  0  0  0  0  0  0
   33.5029   13.5750    6.8223 C   0  0  0  0  0  0  0  0  0  0  0  0
   32.1182   13.1888    6.3301 C   0  0  0  0  0  0  0  0  0  0  0  0
   32.0493   11.7089    6.6481 C   0  0  0  0  0  0  0  0  0  0  0  0
   32.9937   10.9536    5.8045 C   0  0  0  0  0  0  0  0  0  0  0  0
   33.0773    9.4488    5.9727 C   0  0  0  0  0  0  0  0  0  0  0  0
   32.1301    8.8874    7.0437 C   0  0  0  0  0  0  0  0  0  0  0  0
   31.2983    9.7313    7.7572 C   0  0  0  0  0  0  0  0  0  0  0  0
   30.2407    8.8644    9.0071 Br  0  0  0  0  0  0  0  0  0  0  0  0
   31.2447   11.0973    7.5784 C   0  0  0  0  0  0  0  0  0  0  0  0
  1  2  1  0
  2  3  2  0
  2  4  2  0
  2  5  1  0
  5  6  1  0
  6  7  1  0
  7  8  2  0
  8  9  1  0
  9 10  2  0
 10 11  1  0
 11 12  1  0
 11 13  2  0
 13  7  1  0
A    1
 N1 
A    2
 S1 
A    3
 O1 
A    4
 O2 
A    5
 C1 
A    6
 C2 
A    7
 C3 
A    8
 C4 
A    9
 C5 
A   10
 C6 
A   11
 C7 
A   12
BR1 
A   13
 C8 
M  END
>  <ref_pdb>  (1247) 
Ax0310a

>  <ref_mols>  (1247) 
Ax0446a,Ax1080a,Ax0812a,Ax0719a,Ax1140a,Ax0528a,Ax0310a

>  <original SMILES>  (1247) 
NS(=O)(=O)CCc1cccc(Br)c1

>  <rationale>  (1247) 
info info set:sulfonimide_whole;hbond:S87+G127+E85; hydroph_interaction:P107; 

>  <experiment>  (1247) 
sulfonimide_whole

>  <cluster_label>  (1247) 
3

>  <cluster_rank>  (1247) 
904

>  <N_interactions>  (1247) 
4

>  <∆∆G>  (1247) 
-5.044147

>  <comRMSD>  (1247) 
0.642524

>  <ROCS_TanimotoCombo>  (1247) 
0.328

>  <ROCS_ShapeTanimoto>  (1247) 
0.181

>  <ROCS_ColorTanimoto>  (1247) 
0.147

$$$$
Z139940296
     RDKit          3D

 14 14  0  0  0  0  0  0  0  0999 V2000
   29.9722   15.4705    9.2865 C   0  0  0  0  0  0  0  0  0  0  0  0
   30.1032   13.9974    9.3392 C   0  0  0  0  0  0  0  0  0  0  0  0
   29.2051   13.1756    8.4443 C   0  0  0  0  0  0  0  0  0  0  0  0
   29.8820   12.4407    7.6235 N   0  0  0  0  0  0  0  0  0  0  0  0
   30.4456   11.2452    8.0006 C   0  0  0  0  0  0  0  0  0  0  0  0
   30.1657   10.5901    8.9625 O   0  0  0  0  0  0  0  0  0  0  0  0
   31.5046   10.6152    7.1359 C   0  0  0  0  0  0  0  0  0  0  0  0
   32.0699   11.5504    6.0748 C   0  0  0  0  0  0  0  0  0  0  0  0
   33.1468   10.9165    5.1781 C   0  0  0  0  0  0  0  0  0  0  0  0
   33.4404    9.5275    5.4968 C   0  0  0  0  0  0  0  0  0  0  0  0
   32.8376    8.7459    6.5331 N   0  0  0  0  0  0  0  0  0  0  0  0
   31.9139    9.3193    7.3012 C   0  0  0  0  0  0  0  0  0  0  0  0
   31.2990    8.2412    8.5752 S   0  0  0  0  0  0  0  0  0  0  0  0
   29.5491    8.1947    8.6061 C   0  0  0  0  0  0  0  0  0  0  0  0
  1  2  2  0
  2  3  1  0
  3  4  1  0
  4  5  1  0
  5  6  2  0
  5  7  1  0
  7  8  2  0
  8  9  1  0
  9 10  2  0
 10 11  1  0
 11 12  2  0
 12 13  1  0
 13 14  1  0
 12  7  1  0
A    1
 C1 
A    2
 C2 
A    3
 C3 
A    4
 N1 
A    5
 C4 
A    6
 O1 
A    7
 C5 
A    8
 C6 
A    9
 C7 
A   10
 C8 
A   11
 N2 
A   12
 C9 
A   13
 S1 
A   14
 C10
M  END
>  <ref_pdb>  (1248) 
Ax0310a

>  <ref_mols>  (1248) 
Ax0446a,Ax1080a,Ax0812a,Ax0719a,Ax1140a,Ax0528a,Ax0310a

>  <original SMILES>  (1248) 
C=CCNC(=O)c1cccnc1SC

>  <rationale>  (1248) 
info info set:screening_pocket;hydroph_interaction:P107+Y90; 

>  <experiment>  (1248) 
screening_pocket

>  <cluster_label>  (1248) 
3

>  <cluster_rank>  (1248) 
905

>  <N_interactions>  (1248) 
2

>  <∆∆G>  (1248) 
-3.616784

>  <comRMSD>  (1248) 
0.560903

>  <ROCS_TanimotoCombo>  (1248) 
0.637

>  <ROCS_ShapeTanimoto>  (1248) 
0.217

>  <ROCS_ColorTanimoto>  (1248) 
0.42

$$$$
EN300_2008446
     RDKit          3D

 14 14  0  0  0  0  0  0  0  0999 V2000
   28.5590   13.7168    8.4989 C   0  0  0  0  0  0  0  0  0  0  0  0
   30.2671   13.5493    8.0364 S   0  0  0  0  0  6  0  0  0  0  0  0
   31.0697   14.4627    8.8200 O   0  0  0  0  0  0  0  0  0  0  0  0
   30.3401   13.4585    6.5945 O   0  0  0  0  0  0  0  0  0  0  0  0
   30.6793   12.0472    8.5378 N   0  0  0  0  0  0  0  0  0  0  0  0
   30.9531   11.0328    7.6374 C   0  0  2  0  0  0  0  0  0  0  0  0
   30.8058    9.5824    8.1324 C   0  0  0  0  0  0  0  0  0  0  0  0
   31.9026    8.7806    7.7538 O   0  0  0  0  0  0  0  0  0  0  0  0
   32.2666   11.3692    6.9523 C   0  0  0  0  0  0  0  0  0  0  0  0
   32.9846   12.5187    7.2924 C   0  0  0  0  0  0  0  0  0  0  0  0
   34.2856   12.7527    6.4992 C   0  0  0  0  0  0  0  0  0  0  0  0
   34.6957   11.8540    5.5172 C   0  0  0  0  0  0  0  0  0  0  0  0
   33.9107   10.7383    5.2635 C   0  0  0  0  0  0  0  0  0  0  0  0
   32.7202   10.4820    5.9536 C   0  0  0  0  0  0  0  0  0  0  0  0
  1  2  1  0
  2  3  2  0
  2  4  2  0
  2  5  1  0
  5  6  1  0
  6  7  1  1
  7  8  1  0
  6  9  1  0
  9 10  2  0
 10 11  1  0
 11 12  2  0
 12 13  1  0
 13 14  2  0
 14  9  1  0
A    1
 C1 
A    2
 S1 
A    3
 O1 
A    4
 O2 
A    5
 N1 
A    6
 C2 
A    7
 C3 
A    8
 O3 
A    9
 C4 
A   10
 C5 
A   11
 C6 
A   12
 C7 
A   13
 C8 
A   14
 C9 
M  END
>  <ref_pdb>  (1249) 
Ax0310a

>  <ref_mols>  (1249) 
Ax0446a,Ax1080a,Ax0812a,Ax0719a,Ax1140a,Ax0528a,Ax0310a

>  <original SMILES>  (1249) 
CS(=O)(=O)N[C@H](CO)c1ccccc1

>  <rationale>  (1249) 
info info set:sulfonimide_whole;hbond:S87+S105+S125+G127; hydroph_interaction:P107; 

>  <experiment>  (1249) 
sulfonimide_whole

>  <cluster_label>  (1249) 
3

>  <cluster_rank>  (1249) 
906

>  <N_interactions>  (1249) 
5

>  <∆∆G>  (1249) 
-6.199967

>  <comRMSD>  (1249) 
0.512611

>  <ROCS_TanimotoCombo>  (1249) 
0.327

>  <ROCS_ShapeTanimoto>  (1249) 
0.193

>  <ROCS_ColorTanimoto>  (1249) 
0.134

$$$$
Z1251413950
     RDKit          3D

 14 15  0  0  0  0  0  0  0  0999 V2000
   30.1445   13.4638    6.4558 O   0  0  0  0  0  0  0  0  0  0  0  0
   30.8249   12.5002    6.1987 C   0  0  0  0  0  0  0  0  0  0  0  0
   31.7041   11.8527    7.1698 C   0  0  0  0  0  0  0  0  0  0  0  0
   32.3146   12.9937    8.0013 C   0  0  0  0  0  0  0  0  0  0  0  0
   31.3887   13.6845    8.9614 C   0  0  0  0  0  0  0  0  0  0  0  0
   31.9176   14.7805    9.7410 C   0  0  0  0  0  0  0  0  0  0  0  0
   33.3511   15.2901    9.6573 C   0  0  0  0  0  0  0  0  0  0  0  0
   34.3048   14.5650    8.6681 C   0  0  0  0  0  0  0  0  0  0  0  0
   33.6655   13.4030    7.8694 C   0  0  0  0  0  0  0  0  0  0  0  0
   32.7952   11.0624    6.3619 C   0  0  0  0  0  0  0  0  0  0  0  0
   32.6768    9.5249    6.3990 C   0  0  0  0  0  0  0  0  0  0  0  0
   32.1024    8.9533    7.5181 O   0  0  0  0  0  0  0  0  0  0  0  0
   30.9506    9.4305    8.0454 C   0  0  0  0  0  0  0  0  0  0  0  0
   30.7325   10.9580    7.9834 C   0  0  0  0  0  0  0  0  0  0  0  0
  1  2  1  0
  2  3  1  0
  3  4  1  0
  4  5  2  0
  5  6  1  0
  6  7  2  0
  7  8  1  0
  8  9  2  0
  3 10  1  0
 10 11  1  0
 11 12  1  0
 12 13  1  0
 13 14  1  0
 14  3  1  0
  9  4  1  0
A    1
 O1 
A    2
 C1 
A    3
 C2 
A    4
 C3 
A    5
 C4 
A    6
 C5 
A    7
 C6 
A    8
 C7 
A    9
 C8 
A   10
 C9 
A   11
 C10
A   12
 O2 
A   13
 C11
A   14
 C12
M  END
>  <ref_pdb>  (1250) 
Ax0310a

>  <ref_mols>  (1250) 
Ax0446a,Ax1080a,Ax0812a,Ax0719a,Ax1140a,Ax0528a,Ax0310a

>  <original SMILES>  (1250) 
OCC1(c2ccccc2)CCOCC1

>  <rationale>  (1250) 
info info set:3d;hbond:S87; hydroph_interaction:T126+V84; 

>  <experiment>  (1250) 
3d

>  <cluster_label>  (1250) 
3

>  <cluster_rank>  (1250) 
907

>  <N_interactions>  (1250) 
3

>  <∆∆G>  (1250) 
-4.174658

>  <comRMSD>  (1250) 
0.459093

>  <ROCS_TanimotoCombo>  (1250) 
0.291

>  <ROCS_ShapeTanimoto>  (1250) 
0.19

>  <ROCS_ColorTanimoto>  (1250) 
0.102

$$$$
EN300_65209
     RDKit          3D

 16 17  0  0  0  0  0  0  0  0999 V2000
   34.4918    8.7632    5.4403 C   0  0  0  0  0  0  0  0  0  0  0  0
   33.4289    9.6426    5.8045 C   0  0  1  0  0  0  0  0  0  0  0  0
   32.7277    9.3071    6.9960 O   0  0  0  0  0  0  0  0  0  0  0  0
   31.8456   10.2834    7.2699 C   0  0  0  0  0  0  0  0  0  0  0  0
   30.5536    9.7396    8.0089 C   0  0  0  0  0  0  0  0  0  0  0  0
   29.8061   10.9461    8.1298 C   0  0  0  0  0  0  0  0  0  0  0  0
   30.1211   12.2232    7.7283 C   0  0  0  0  0  0  0  0  0  0  0  0
   28.8895   13.4455    8.0370 S   0  0  0  0  0  6  0  0  0  0  0  0
   29.2161   13.9963    9.5894 N   0  0  0  0  0  0  0  0  0  0  0  0
   29.0361   14.5444    7.1291 O   0  0  0  0  0  0  0  0  0  0  0  0
   27.6996   12.6638    8.0579 O   0  0  0  0  0  0  0  0  0  0  0  0
   31.2518   12.6024    7.1284 C   0  0  0  0  0  0  0  0  0  0  0  0
   32.1293   11.6122    6.8970 C   0  0  0  0  0  0  0  0  0  0  0  0
   33.3157   11.9530    6.2780 N   0  0  0  0  0  0  0  0  0  0  0  0
   34.0552   10.9980    5.7030 C   0  0  0  0  0  0  0  0  0  0  0  0
   35.1272   11.2248    5.1517 O   0  0  0  0  0  0  0  0  0  0  0  0
  2  1  1  1
  2  3  1  0
  3  4  1  0
  4  5  2  0
  5  6  1  0
  6  7  2  0
  7  8  1  0
  8  9  1  0
  8 10  2  0
  8 11  2  0
  7 12  1  0
 12 13  2  0
 13 14  1  0
 14 15  1  0
 15 16  2  0
 15  2  1  0
 13  4  1  0
A    1
 C1 
A    2
 C2 
A    3
 O1 
A    4
 C3 
A    5
 C4 
A    6
 C5 
A    7
 C6 
A    8
 S1 
A    9
 N1 
A   10
 O2 
A   11
 O3 
A   12
 C7 
A   13
 C8 
A   14
 N2 
A   15
 C9 
A   16
 O4 
M  END
>  <ref_pdb>  (1251) 
Ax0310a

>  <ref_mols>  (1251) 
Ax0446a,Ax1080a,Ax0812a,Ax0719a,Ax1140a,Ax0528a,Ax0310a

>  <original SMILES>  (1251) 
C[C@H]1Oc2ccc(S(N)(=O)=O)cc2NC1=O

>  <rationale>  (1251) 
info info set:sulfonimide_whole;hbond:S87+S125+G127; 

>  <experiment>  (1251) 
sulfonimide_whole

>  <cluster_label>  (1251) 
3

>  <cluster_rank>  (1251) 
908

>  <N_interactions>  (1251) 
3

>  <∆∆G>  (1251) 
-3.860769

>  <comRMSD>  (1251) 
0.959828

>  <ROCS_TanimotoCombo>  (1251) 
0.33

>  <ROCS_ShapeTanimoto>  (1251) 
0.213

>  <ROCS_ColorTanimoto>  (1251) 
0.118

$$$$
EN300_214751
     RDKit          3D

 15 15  0  0  0  0  0  0  0  0999 V2000
   28.5133   14.2487    9.3168 C   0  0  0  0  0  0  0  0  0  0  0  0
   29.2827   13.1666    8.9461 N   0  0  0  0  0  0  0  0  0  0  0  0
   30.6050   13.4539    7.9924 S   0  0  0  0  0  6  0  0  0  0  0  0
   29.9041   13.8678    6.8004 O   0  0  0  0  0  0  0  0  0  0  0  0
   31.5367   14.2527    8.7460 O   0  0  0  0  0  0  0  0  0  0  0  0
   31.4022   11.9670    7.5442 C   0  0  0  0  0  0  0  0  0  0  0  0
   30.6727   10.6929    7.6465 C   0  0  0  0  0  0  0  0  0  0  0  0
   29.4950   10.7223    8.0857 F   0  0  0  0  0  0  0  0  0  0  0  0
   31.2603    9.5052    7.2597 C   0  0  0  0  0  0  0  0  0  0  0  0
   32.4962    9.4206    6.7526 C   0  0  0  0  0  0  0  0  0  0  0  0
   33.2487   10.5554    6.6419 C   0  0  0  0  0  0  0  0  0  0  0  0
   32.8364   11.8319    7.0196 C   0  0  0  0  0  0  0  0  0  0  0  0
   33.7287   12.9332    6.9301 N   0  0  0  0  0  4  0  0  0  0  0  0
   34.1987   13.1611    8.0601 O   0  0  0  0  0  0  0  0  0  0  0  0
   33.5992   13.7252    6.0024 O   0  0  0  0  0  1  0  0  0  0  0  0
  1  2  1  0
  2  3  1  0
  3  4  2  0
  3  5  2  0
  3  6  1  0
  6  7  2  0
  7  8  1  0
  7  9  1  0
  9 10  2  0
 10 11  1  0
 11 12  2  0
 12 13  1  0
 13 14  2  0
 13 15  1  0
 12  6  1  0
M  CHG  2  13   1  15  -1
A    1
 C1 
A    2
 N1 
A    3
 S1 
A    4
 O1 
A    5
 O2 
A    6
 C2 
A    7
 C3 
A    8
 F1 
A    9
 C4 
A   10
 C5 
A   11
 C6 
A   12
 C7 
A   13
 N2 
A   14
 O3 
A   15
 O4 
M  END
>  <ref_pdb>  (1252) 
Ax0310a

>  <ref_mols>  (1252) 
Ax0446a,Ax1080a,Ax0812a,Ax0719a,Ax1140a,Ax0528a,Ax0310a

>  <original SMILES>  (1252) 
CNS(=O)(=O)c1c(F)cccc1[N+](=O)[O-]

>  <rationale>  (1252) 
info info set:sulfonimide_whole;hbond:S87; 

>  <experiment>  (1252) 
sulfonimide_whole

>  <cluster_label>  (1252) 
3

>  <cluster_rank>  (1252) 
909

>  <N_interactions>  (1252) 
1

>  <∆∆G>  (1252) 
-2.145782

>  <comRMSD>  (1252) 
0.631307

>  <ROCS_TanimotoCombo>  (1252) 
0.347

>  <ROCS_ShapeTanimoto>  (1252) 
0.202

>  <ROCS_ColorTanimoto>  (1252) 
0.145

$$$$
Z2054555786
     RDKit          3D

 18 19  0  0  0  0  0  0  0  0999 V2000
   34.8376   14.6500    8.9443 N   0  0  0  0  0  0  0  0  0  0  0  0
   33.7429   14.1637    8.2819 C   0  0  0  0  0  0  0  0  0  0  0  0
   32.4799   14.1157    8.9651 O   0  0  0  0  0  0  0  0  0  0  0  0
   33.9416   13.7256    6.8088 C   0  0  2  0  0  0  0  0  0  0  0  0
   34.7546   14.6594    5.9363 C   0  0  0  0  0  0  0  0  0  0  0  0
   34.1554   14.7248    4.6870 C   0  0  1  0  0  0  0  0  0  0  0  0
   34.8156   13.9150    3.8403 F   0  0  0  0  0  0  0  0  0  0  0  0
   32.8463   14.2442    4.6768 C   0  0  0  0  0  0  0  0  0  0  0  0
   32.7250   13.4549    5.9446 N   0  0  0  0  0  0  0  0  0  0  0  0
   32.8627   12.2161    5.4640 C   0  0  0  0  0  0  0  0  0  0  0  0
   32.2210   11.2049    6.3581 C   0  0  0  0  0  0  0  0  0  0  0  0
   31.1791   11.5313    7.2223 C   0  0  0  0  0  0  0  0  0  0  0  0
   30.6096   10.5786    8.0484 C   0  0  0  0  0  0  0  0  0  0  0  0
   31.0756    9.2852    8.0142 C   0  0  0  0  0  0  0  0  0  0  0  0
   30.5453    8.3619    8.8058 F   0  0  0  0  0  0  0  0  0  0  0  0
   32.1122    8.9802    7.1387 C   0  0  0  0  0  0  0  0  0  0  0  0
   32.6896    9.9315    6.3118 C   0  0  0  0  0  0  0  0  0  0  0  0
   33.9849    9.5154    5.2459 Cl  0  0  0  0  0  0  0  0  0  0  0  0
  1  2  1  0
  2  3  2  0
  4  2  1  1
  4  5  1  0
  5  6  1  0
  6  7  1  6
  6  8  1  0
  8  9  1  0
  9 10  1  0
 10 11  1  0
 11 12  2  0
 12 13  1  0
 13 14  2  0
 14 15  1  0
 14 16  1  0
 16 17  2  0
 17 18  1  0
  9  4  1  0
 17 11  1  0
A    1
 N1 
A    2
 C1 
A    3
 O1 
A    4
 C2 
A    5
 C3 
A    6
 C4 
A    7
 F1 
A    8
 C5 
A    9
 N2 
A   10
 C6 
A   11
 C7 
A   12
 C8 
A   13
 C9 
A   14
 C10
A   15
 F2 
A   16
 C11
A   17
 C12
A   18
CL1 
M  END
>  <ref_pdb>  (1253) 
Ax0310a

>  <ref_mols>  (1253) 
Ax0446a,Ax1080a,Ax0812a,Ax0719a,Ax1140a,Ax0528a,Ax0310a

>  <original SMILES>  (1253) 
NC(=O)[C@@H]1C[C@@H](F)CN1Cc1ccc(F)cc1Cl

>  <rationale>  (1253) 
info info set:3d;hbond:S87; hydroph_interaction:P107; 

>  <experiment>  (1253) 
3d

>  <cluster_label>  (1253) 
3

>  <cluster_rank>  (1253) 
910

>  <N_interactions>  (1253) 
2

>  <∆∆G>  (1253) 
-3.467152

>  <comRMSD>  (1253) 
0.884492

>  <ROCS_TanimotoCombo>  (1253) 
0.303

>  <ROCS_ShapeTanimoto>  (1253) 
0.192

>  <ROCS_ColorTanimoto>  (1253) 
0.112

$$$$
EN300_1081173
     RDKit          3D

 16 17  0  0  0  0  0  0  0  0999 V2000
   28.3455   13.6765    8.9074 C   0  0  0  0  0  0  0  0  0  0  0  0
   29.7701   13.4739    8.4837 C   0  0  0  0  0  0  0  0  0  0  0  0
   29.7856   12.3719    7.5722 O   0  0  0  0  0  0  0  0  0  0  0  0
   30.4032   11.2368    8.0127 C   0  0  0  0  0  0  0  0  0  0  0  0
   30.1183   10.5802    8.9708 O   0  0  0  0  0  0  0  0  0  0  0  0
   31.5121   10.8245    7.1283 C   0  0  0  0  0  0  0  0  0  0  0  0
   32.2279   11.9203    6.2632 C   0  0  0  0  0  0  0  0  0  0  0  0
   33.2968   11.0701    5.4784 C   0  0  0  0  0  0  0  0  0  0  0  0
   34.1260   11.8953    4.5599 C   0  0  0  0  0  0  0  0  0  0  0  0
   35.1609   11.0751    3.7868 C   0  0  0  0  0  0  0  0  0  0  0  0
   35.2907    9.7127    3.9461 C   0  0  0  0  0  0  0  0  0  0  0  0
   34.4501    9.0704    4.8430 C   0  0  0  0  0  0  0  0  0  0  0  0
   33.4677    9.6824    5.6099 C   0  0  0  0  0  0  0  0  0  0  0  0
   32.7391    8.9222    6.4316 N   0  0  0  0  0  0  0  0  0  0  0  0
   31.7893    9.4892    7.1675 C   0  0  0  0  0  0  0  0  0  0  0  0
   31.0454    8.6702    8.0242 N   0  0  0  0  0  0  0  0  0  0  0  0
  1  2  1  0
  2  3  1  0
  3  4  1  0
  4  5  2  0
  4  6  1  0
  6  7  2  0
  7  8  1  0
  8  9  2  0
  9 10  1  0
 10 11  2  0
 11 12  1  0
 12 13  2  0
 13 14  1  0
 14 15  2  0
 15 16  1  0
 15  6  1  0
 13  8  1  0
A    1
 C1 
A    2
 C2 
A    3
 O1 
A    4
 C3 
A    5
 O2 
A    6
 C4 
A    7
 C5 
A    8
 C6 
A    9
 C7 
A   10
 C8 
A   11
 C9 
A   12
 C10
A   13
 C11
A   14
 N1 
A   15
 C12
A   16
 N2 
M  END
>  <ref_pdb>  (1254) 
Ax0310a

>  <ref_mols>  (1254) 
Ax0446a,Ax1080a,Ax0812a,Ax0719a,Ax1140a,Ax0528a,Ax0310a

>  <original SMILES>  (1254) 
CCOC(=O)c1cc2ccccc2nc1N

>  <rationale>  (1254) 
info info set:bb_densepocket2;hbond:S105; hydroph_interaction:P107; 

>  <experiment>  (1254) 
bb_densepocket2

>  <cluster_label>  (1254) 
3

>  <cluster_rank>  (1254) 
911

>  <N_interactions>  (1254) 
2

>  <∆∆G>  (1254) 
-3.954585

>  <comRMSD>  (1254) 
0.548626

>  <ROCS_TanimotoCombo>  (1254) 
0.615

>  <ROCS_ShapeTanimoto>  (1254) 
0.279

>  <ROCS_ColorTanimoto>  (1254) 
0.336

$$$$
EN300_237017
     RDKit          3D

 14 16  0  0  0  0  0  0  0  0999 V2000
   30.3220    8.7225    8.8348 Br  0  0  0  0  0  0  0  0  0  0  0  0
   30.7082   10.3041    7.9001 C   0  0  0  0  0  0  0  0  0  0  0  0
   29.8889   11.5506    8.1542 C   0  0  0  0  0  0  0  0  0  0  0  0
   30.0224   12.9701    7.4840 C   0  0  0  0  0  0  0  0  0  0  0  0
   31.2247   12.7297    6.5114 C   0  0  0  0  0  0  0  0  0  0  0  0
   32.0015   11.4449    6.3242 C   0  0  0  0  0  0  0  0  0  0  0  0
   33.3140   11.2036    5.2686 S   0  0  0  0  0  0  0  0  0  0  0  0
   33.4298    9.5837    5.7804 C   0  0  0  0  0  0  0  0  0  0  0  0
   34.3643    8.7424    5.2952 N   0  0  0  0  0  0  0  0  0  0  0  0
   35.1694    9.1427    4.3126 C   0  0  0  0  0  0  0  0  0  0  0  0
   34.9083    8.8171    3.0510 C   0  0  0  0  0  0  0  0  0  0  0  0
   36.0306    8.0259    3.4978 C   0  0  0  0  0  0  0  0  0  0  0  0
   32.5532    9.2217    6.6804 N   0  0  0  0  0  0  0  0  0  0  0  0
   31.7381   10.2834    6.9962 C   0  0  0  0  0  0  0  0  0  0  0  0
  1  2  1  0
  2  3  2  0
  3  4  1  0
  4  5  2  0
  5  6  1  0
  6  7  1  0
  7  8  1  0
  8  9  1  0
  9 10  1  0
 10 11  1  0
 11 12  1  0
  8 13  2  0
 13 14  1  0
 14  2  1  0
 14  6  2  0
 12 10  1  0
A    1
BR1 
A    2
 C1 
A    3
 C2 
A    4
 C3 
A    5
 C4 
A    6
 C5 
A    7
 S1 
A    8
 C6 
A    9
 N1 
A   10
 C7 
A   11
 C8 
A   12
 C9 
A   13
 N2 
A   14
 C10
M  END
>  <ref_pdb>  (1255) 
Ax0310a

>  <ref_mols>  (1255) 
Ax0446a,Ax1080a,Ax0812a,Ax0719a,Ax1140a,Ax0528a,Ax0310a

>  <original SMILES>  (1255) 
Brc1cccc2sc(NC3CC3)nc12

>  <rationale>  (1255) 
info info set:bb_densepocket2;hbond:S105; hydroph_interaction:P107; 

>  <experiment>  (1255) 
bb_densepocket2

>  <cluster_label>  (1255) 
3

>  <cluster_rank>  (1255) 
912

>  <N_interactions>  (1255) 
2

>  <∆∆G>  (1255) 
-4.099258

>  <comRMSD>  (1255) 
0.56014

>  <ROCS_TanimotoCombo>  (1255) 
0.61

>  <ROCS_ShapeTanimoto>  (1255) 
0.232

>  <ROCS_ColorTanimoto>  (1255) 
0.378

$$$$
EN300_103080
     RDKit          3D

 14 14  0  0  0  0  0  0  0  0999 V2000
   30.6712   13.7514    9.6142 C   0  0  0  0  0  0  0  0  0  0  0  0
   32.2984   13.8550    8.9489 S   0  0  0  0  0  6  0  0  0  0  0  0
   33.3155   12.8818    9.2292 O   0  0  0  0  0  0  0  0  0  0  0  0
   32.5692   15.2267    9.2424 O   0  0  0  0  0  0  0  0  0  0  0  0
   31.7269   13.3684    7.4443 N   0  0  0  0  0  0  0  0  0  0  0  0
   31.8537   11.8981    7.2365 C   0  0  0  0  0  0  0  0  0  0  0  0
   30.9743   11.1184    8.0138 C   0  0  0  0  0  0  0  0  0  0  0  0
   30.9251    9.7196    8.0120 C   0  0  0  0  0  0  0  0  0  0  0  0
   31.9016    9.0468    7.0909 C   0  0  0  0  0  0  0  0  0  0  0  0
   32.7689    9.7980    6.3061 C   0  0  0  0  0  0  0  0  0  0  0  0
   33.6256    9.1675    5.4893 F   0  0  0  0  0  0  0  0  0  0  0  0
   32.7672   11.3129    6.3597 C   0  0  0  0  0  0  0  0  0  0  0  0
   33.6401   12.0544    5.5736 C   0  0  0  0  0  0  0  0  0  0  0  0
   34.4303   12.9587    6.4019 N   0  0  0  0  0  0  0  0  0  0  0  0
  1  2  1  0
  2  3  2  0
  2  4  2  0
  2  5  1  0
  5  6  1  0
  6  7  2  0
  7  8  1  0
  8  9  2  0
  9 10  1  0
 10 11  1  0
 10 12  2  0
 12 13  1  0
 13 14  1  0
 12  6  1  0
A    1
 C1 
A    2
 S1 
A    3
 O1 
A    4
 O2 
A    5
 N1 
A    6
 C2 
A    7
 C3 
A    8
 C4 
A    9
 C5 
A   10
 C6 
A   11
 F1 
A   12
 C7 
A   13
 C8 
A   14
 N2 
M  END
>  <ref_pdb>  (1256) 
Ax0310a

>  <ref_mols>  (1256) 
Ax0446a,Ax1080a,Ax0812a,Ax0719a,Ax1140a,Ax0528a,Ax0310a

>  <original SMILES>  (1256) 
CS(=O)(=O)Nc1cccc(F)c1CN

>  <rationale>  (1256) 
info info set:sulfonimide_whole;hbond:S87+G127; 

>  <experiment>  (1256) 
sulfonimide_whole

>  <cluster_label>  (1256) 
3

>  <cluster_rank>  (1256) 
913

>  <N_interactions>  (1256) 
4

>  <∆∆G>  (1256) 
-5.086157

>  <comRMSD>  (1256) 
0.403734

>  <ROCS_TanimotoCombo>  (1256) 
0.299

>  <ROCS_ShapeTanimoto>  (1256) 
0.171

>  <ROCS_ColorTanimoto>  (1256) 
0.128

$$$$
EN300_20838600
     RDKit          3D

 15 15  0  0  0  0  0  0  0  0999 V2000
   28.9563   13.1868    8.9315 N   0  0  0  0  0  0  0  0  0  0  0  0
   30.2250   13.6226    7.9091 S   0  0  0  0  0  6  0  0  0  0  0  0
   29.5465   14.1330    6.7500 O   0  0  0  0  0  0  0  0  0  0  0  0
   31.0997   14.4014    8.7678 O   0  0  0  0  0  0  0  0  0  0  0  0
   31.1180   12.1829    7.4124 C   0  0  0  0  0  0  0  0  0  0  0  0
   30.6161   11.0120    8.1068 C   0  0  0  0  0  0  0  0  0  0  0  0
   31.2047    9.6376    7.8546 C   0  0  0  0  0  0  0  0  0  0  0  0
   30.5018    8.2079    8.7925 Br  0  0  0  0  0  0  0  0  0  0  0  0
   32.3778    9.5826    6.7977 C   0  0  0  0  0  0  0  0  0  0  0  0
   32.9763    8.4787    6.4759 F   0  0  0  0  0  0  0  0  0  0  0  0
   32.7829   10.9306    6.1616 C   0  0  0  0  0  0  0  0  0  0  0  0
   33.8658   10.8469    5.1904 N   0  0  0  0  0  4  0  0  0  0  0  0
   33.6723   10.1347    4.2001 O   0  0  0  0  0  0  0  0  0  0  0  0
   34.9724   11.2828    5.5008 O   0  0  0  0  0  1  0  0  0  0  0  0
   32.2357   12.1476    6.4141 C   0  0  0  0  0  0  0  0  0  0  0  0
  1  2  1  0
  2  3  2  0
  2  4  2  0
  2  5  1  0
  5  6  2  0
  6  7  1  0
  7  8  1  0
  7  9  2  0
  9 10  1  0
  9 11  1  0
 11 12  1  0
 12 13  2  0
 12 14  1  0
 11 15  2  0
 15  5  1  0
M  CHG  2  12   1  14  -1
A    1
 N1 
A    2
 S1 
A    3
 O1 
A    4
 O2 
A    5
 C1 
A    6
 C2 
A    7
 C3 
A    8
BR1 
A    9
 C4 
A   10
 F1 
A   11
 C5 
A   12
 N2 
A   13
 O3 
A   14
 O4 
A   15
 C6 
M  END
>  <ref_pdb>  (1257) 
Ax0310a

>  <ref_mols>  (1257) 
Ax0446a,Ax1080a,Ax0812a,Ax0719a,Ax1140a,Ax0528a,Ax0310a

>  <original SMILES>  (1257) 
NS(=O)(=O)c1cc(Br)c(F)c([N+](=O)[O-])c1

>  <rationale>  (1257) 
info info set:sulfonimide_whole;halogenbond:S105; hbond:S87+S125; 

>  <experiment>  (1257) 
sulfonimide_whole

>  <cluster_label>  (1257) 
3

>  <cluster_rank>  (1257) 
914

>  <N_interactions>  (1257) 
3

>  <∆∆G>  (1257) 
-2.206174

>  <comRMSD>  (1257) 
0.633919

>  <ROCS_TanimotoCombo>  (1257) 
0.332

>  <ROCS_ShapeTanimoto>  (1257) 
0.198

>  <ROCS_ColorTanimoto>  (1257) 
0.134

$$$$
EN300_696438
     RDKit          3D

 13 13  0  0  0  0  0  0  0  0999 V2000
   29.9939   13.1797    6.6163 C   0  0  0  0  0  0  0  0  0  0  0  0
   31.3337   13.0627    6.1039 O   0  0  0  0  0  0  0  0  0  0  0  0
   31.8256   11.8065    6.2376 C   0  0  0  0  0  0  0  0  0  0  0  0
   32.9811   11.4074    5.2893 C   0  0  0  0  0  0  0  0  0  0  0  0
   33.4337    9.9547    5.5311 C   0  0  0  0  0  0  0  0  0  0  0  0
   34.5736    9.5406    4.6021 C   0  0  0  0  0  0  0  0  0  0  0  0
   32.9191    9.1395    6.4288 N   0  0  0  0  0  0  0  0  0  0  0  0
   31.9380    9.6208    7.1796 C   0  0  0  0  0  0  0  0  0  0  0  0
   31.4430    8.7933    8.0960 N   0  0  0  0  0  0  0  0  0  0  0  0
   30.1475    9.1620    8.4965 C   0  0  0  0  0  0  0  0  0  0  0  0
   29.9081    8.4212    9.6778 C   0  0  0  0  0  0  0  0  0  0  0  0
   29.1954    8.0397    8.5618 C   0  0  0  0  0  0  0  0  0  0  0  0
   31.3780   10.8800    7.1313 C   0  0  0  0  0  0  0  0  0  0  0  0
  1  2  1  0
  2  3  1  0
  3  4  2  0
  4  5  1  0
  5  6  1  0
  5  7  2  0
  7  8  1  0
  8  9  1  0
  9 10  1  0
 10 11  1  0
 10 12  1  0
  8 13  2  0
 13  3  1  0
A    1
 C1 
A    2
 O1 
A    3
 C2 
A    4
 C3 
A    5
 C4 
A    6
 C5 
A    7
 N1 
A    8
 C6 
A    9
 N2 
A   10
 C7 
A   11
 C8 
A   12
 C9 
A   13
 C10
M  END
>  <ref_pdb>  (1258) 
Ax0310a

>  <ref_mols>  (1258) 
Ax0446a,Ax1080a,Ax0812a,Ax0719a,Ax1140a,Ax0528a,Ax0310a

>  <original SMILES>  (1258) 
COc1cc(C)nc(NC(C)C)c1

>  <rationale>  (1258) 
info info set:bb_densepocket2;hbond:S105; hydroph_interaction:P107+V124+D109; 

>  <experiment>  (1258) 
bb_densepocket2

>  <cluster_label>  (1258) 
3

>  <cluster_rank>  (1258) 
915

>  <N_interactions>  (1258) 
4

>  <∆∆G>  (1258) 
-5.75537

>  <comRMSD>  (1258) 
0.66834

>  <ROCS_TanimotoCombo>  (1258) 
0.612

>  <ROCS_ShapeTanimoto>  (1258) 
0.219

>  <ROCS_ColorTanimoto>  (1258) 
0.394

$$$$
Z362783848
     RDKit          3D

 13 13  0  0  0  0  0  0  0  0999 V2000
   28.7967   16.3459    8.0193 N   0  0  0  0  0  0  0  0  0  0  0  0
   28.7440   15.2520    7.7476 C   0  0  0  0  0  0  0  0  0  0  0  0
   28.7397   13.8077    7.4559 C   0  0  0  0  0  0  0  0  0  0  0  0
   29.3188   13.2041    8.6562 C   0  0  0  0  0  0  0  0  0  0  0  0
   30.6228   12.5221    8.3448 C   0  0  0  0  0  0  0  0  0  0  0  0
   30.6835   11.3227    8.4745 O   0  0  0  0  0  0  0  0  0  0  0  0
   31.5297   10.7317    7.6235 C   0  0  0  0  0  0  0  0  0  0  0  0
   32.4911   11.5032    6.7108 C   0  0  0  0  0  0  0  0  0  0  0  0
   33.4104   10.7711    5.7935 C   0  0  0  0  0  0  0  0  0  0  0  0
   33.2438    9.2611    5.9151 C   0  0  0  0  0  0  0  0  0  0  0  0
   32.3040    8.5868    6.8126 N   0  0  0  0  0  0  0  0  0  0  0  0
   31.5113    9.3263    7.5994 C   0  0  0  0  0  0  0  0  0  0  0  0
   30.6565    8.6196    8.4050 N   0  0  0  0  0  0  0  0  0  0  0  0
  1  2  3  0
  2  3  1  0
  3  4  1  0
  4  5  1  0
  5  6  1  0
  6  7  1  0
  7  8  2  0
  8  9  1  0
  9 10  2  0
 10 11  1  0
 11 12  2  0
 12 13  1  0
 12  7  1  0
A    1
 N1 
A    2
 C1 
A    3
 C2 
A    4
 C3 
A    5
 C4 
A    6
 O1 
A    7
 C5 
A    8
 C6 
A    9
 C7 
A   10
 C8 
A   11
 N2 
A   12
 C9 
A   13
 N3 
M  END
>  <ref_pdb>  (1259) 
Ax0310a

>  <ref_mols>  (1259) 
Ax0446a,Ax1080a,Ax0812a,Ax0719a,Ax1140a,Ax0528a,Ax0310a

>  <original SMILES>  (1259) 
N#CCCCOc1cccnc1N

>  <rationale>  (1259) 
info info set:screening_pocket;hbond:S105+Y90; 

>  <experiment>  (1259) 
screening_pocket

>  <cluster_label>  (1259) 
3

>  <cluster_rank>  (1259) 
916

>  <N_interactions>  (1259) 
2

>  <∆∆G>  (1259) 
-1.921418

>  <comRMSD>  (1259) 
0.753002

>  <ROCS_TanimotoCombo>  (1259) 
0.643

>  <ROCS_ShapeTanimoto>  (1259) 
0.209

>  <ROCS_ColorTanimoto>  (1259) 
0.434

$$$$
EN300_195407
     RDKit          3D

 18 18  0  0  0  0  0  0  0  0999 V2000
   28.9413   13.1853    8.8900 N   0  0  0  0  0  0  0  0  0  0  0  0
   30.2092   13.6281    7.9081 S   0  0  0  0  0  6  0  0  0  0  0  0
   31.0987   14.4017    8.7483 O   0  0  0  0  0  0  0  0  0  0  0  0
   29.5267   14.1100    6.7434 O   0  0  0  0  0  0  0  0  0  0  0  0
   31.0269   12.1283    7.4653 C   0  0  0  0  0  0  0  0  0  0  0  0
   30.4874   11.0291    8.2162 C   0  0  0  0  0  0  0  0  0  0  0  0
   31.0283    9.7225    8.0099 C   0  0  0  0  0  0  0  0  0  0  0  0
   30.5725    8.6416    8.7293 C   0  0  0  0  0  0  0  0  0  0  0  0
   31.5739    7.8629    8.8960 F   0  0  0  0  0  0  0  0  0  0  0  0
   30.2568    8.9262    9.9712 F   0  0  0  0  0  0  0  0  0  0  0  0
   29.5014    7.9634    8.3186 F   0  0  0  0  0  0  0  0  0  0  0  0
   32.0656    9.5988    7.0498 C   0  0  0  0  0  0  0  0  0  0  0  0
   32.5928   10.6895    6.3058 C   0  0  0  0  0  0  0  0  0  0  0  0
   33.7299   10.5246    5.2636 C   0  0  0  0  0  0  0  0  0  0  0  0
   33.3709   10.9258    4.0185 F   0  0  0  0  0  0  0  0  0  0  0  0
   34.8310   11.2745    5.5205 F   0  0  0  0  0  0  0  0  0  0  0  0
   34.1626    9.2454    5.1351 F   0  0  0  0  0  0  0  0  0  0  0  0
   32.0540   11.9726    6.5330 C   0  0  0  0  0  0  0  0  0  0  0  0
  1  2  1  0
  2  3  2  0
  2  4  2  0
  2  5  1  0
  5  6  2  0
  6  7  1  0
  7  8  1  0
  8  9  1  0
  8 10  1  0
  8 11  1  0
  7 12  2  0
 12 13  1  0
 13 14  1  0
 14 15  1  0
 14 16  1  0
 14 17  1  0
 13 18  2  0
 18  5  1  0
A    1
 N1 
A    2
 S1 
A    3
 O1 
A    4
 O2 
A    5
 C1 
A    6
 C2 
A    7
 C3 
A    8
 C4 
A    9
 F1 
A   10
 F2 
A   11
 F3 
A   12
 C5 
A   13
 C6 
A   14
 C7 
A   15
 F4 
A   16
 F5 
A   17
 F6 
A   18
 C8 
M  END
>  <ref_pdb>  (1260) 
Ax0310a

>  <ref_mols>  (1260) 
Ax0446a,Ax1080a,Ax0812a,Ax0719a,Ax1140a,Ax0528a,Ax0310a

>  <original SMILES>  (1260) 
NS(=O)(=O)c1cc(C(F)(F)F)cc(C(F)(F)F)c1

>  <rationale>  (1260) 
info info set:sulfonimide_whole;halogenbond:S105; hbond:S87+S125; hydroph_interaction:P107; 

>  <experiment>  (1260) 
sulfonimide_whole

>  <cluster_label>  (1260) 
3

>  <cluster_rank>  (1260) 
917

>  <N_interactions>  (1260) 
4

>  <∆∆G>  (1260) 
-0.779654

>  <comRMSD>  (1260) 
0.605603

>  <ROCS_TanimotoCombo>  (1260) 
0.329

>  <ROCS_ShapeTanimoto>  (1260) 
0.213

>  <ROCS_ColorTanimoto>  (1260) 
0.116

$$$$
EN300_276920
     RDKit          3D

 12 12  0  0  0  0  0  0  0  0999 V2000
   28.9703   13.2144    8.9239 N   0  0  0  0  0  0  0  0  0  0  0  0
   30.2920   13.4823    7.9445 S   0  0  0  0  0  6  0  0  0  0  0  0
   31.2168   14.2624    8.7517 O   0  0  0  0  0  0  0  0  0  0  0  0
   29.6877   13.9673    6.7269 O   0  0  0  0  0  0  0  0  0  0  0  0
   31.0271   11.9466    7.5683 C   0  0  0  0  0  0  0  0  0  0  0  0
   30.5548   10.7361    8.2480 C   0  0  0  0  0  0  0  0  0  0  0  0
   31.0900    9.5446    7.9774 N   0  0  0  0  0  0  0  0  0  0  0  0
   32.0860    9.4690    7.0264 C   0  0  0  0  0  0  0  0  0  0  0  0
   32.5027    8.3570    6.8527 O   0  0  0  0  0  0  0  0  0  0  0  0
   32.6302   10.5043    6.3094 C   0  0  0  0  0  0  0  0  0  0  0  0
   33.8812   10.2457    5.1598 Cl  0  0  0  0  0  0  0  0  0  0  0  0
   32.0761   11.7851    6.6054 C   0  0  0  0  0  0  0  0  0  0  0  0
  1  2  1  0
  2  3  2  0
  2  4  2  0
  2  5  1  0
  5  6  2  0
  6  7  1  0
  7  8  1  0
  8  9  2  0
  8 10  1  0
 10 11  1  0
 10 12  2  0
 12  5  1  0
A    1
 N1 
A    2
 S1 
A    3
 O1 
A    4
 O2 
A    5
 C1 
A    6
 C2 
A    7
 N2 
A    8
 C3 
A    9
 O3 
A   10
 C4 
A   11
CL1 
A   12
 C5 
M  END
>  <ref_pdb>  (1261) 
Ax0310a

>  <ref_mols>  (1261) 
Ax0446a,Ax1080a,Ax0812a,Ax0719a,Ax1140a,Ax0528a,Ax0310a

>  <original SMILES>  (1261) 
NS(=O)(=O)c1c[nH]c(=O)c(Cl)c1

>  <rationale>  (1261) 
info info set:sulfonimide_whole;hbond:S87+S125; 

>  <experiment>  (1261) 
sulfonimide_whole

>  <cluster_label>  (1261) 
3

>  <cluster_rank>  (1261) 
918

>  <N_interactions>  (1261) 
2

>  <∆∆G>  (1261) 
-3.460764

>  <comRMSD>  (1261) 
0.452283

>  <ROCS_TanimotoCombo>  (1261) 
0.332

>  <ROCS_ShapeTanimoto>  (1261) 
0.179

>  <ROCS_ColorTanimoto>  (1261) 
0.152

$$$$
Z199511268
     RDKit          3D

 15 15  0  0  0  0  0  0  0  0999 V2000
   27.8377   14.9885    8.2879 C   0  0  0  0  0  0  0  0  0  0  0  0
   28.3451   13.6079    7.9842 C   0  0  0  0  0  0  0  0  0  0  0  0
   29.2085   13.1685    9.0663 N   0  0  0  0  0  0  0  0  0  0  0  0
   30.7598   13.6708    8.9518 S   0  0  0  0  0  6  0  0  0  0  0  0
   31.4679   13.7936   10.1931 O   0  0  0  0  0  0  0  0  0  0  0  0
   30.4085   14.8571    8.3543 O   0  0  0  0  0  0  0  0  0  0  0  0
   31.4266   12.4426    7.8408 C   0  0  0  0  0  0  0  0  0  0  0  0
   32.2099   12.8093    6.6571 C   0  0  0  0  0  0  0  0  0  0  0  0
   32.7737   11.7078    5.7459 C   0  0  0  0  0  0  0  0  0  0  0  0
   32.5222   10.2137    6.0828 C   0  0  0  0  0  0  0  0  0  0  0  0
   32.9995    9.2226    5.3480 F   0  0  0  0  0  0  0  0  0  0  0  0
   31.7643   10.0775    7.2139 C   0  0  0  0  0  0  0  0  0  0  0  0
   31.5363    8.7647    7.5120 O   0  0  0  0  0  0  0  0  0  0  0  0
   30.5481    8.5598    8.5162 C   0  0  0  0  0  0  0  0  0  0  0  0
   31.2353   11.0859    8.0475 C   0  0  0  0  0  0  0  0  0  0  0  0
  1  2  1  0
  2  3  1  0
  3  4  1  0
  4  5  2  0
  4  6  2  0
  4  7  1  0
  7  8  2  0
  8  9  1  0
  9 10  2  0
 10 11  1  0
 10 12  1  0
 12 13  1  0
 13 14  1  0
 12 15  2  0
 15  7  1  0
A    1
 C1 
A    2
 C2 
A    3
 N1 
A    4
 S1 
A    5
 O1 
A    6
 O2 
A    7
 C3 
A    8
 C4 
A    9
 C5 
A   10
 C6 
A   11
 F1 
A   12
 C7 
A   13
 O3 
A   14
 C8 
A   15
 C9 
M  END
>  <ref_pdb>  (1262) 
Ax0310a

>  <ref_mols>  (1262) 
Ax0446a,Ax1080a,Ax0812a,Ax0719a,Ax1140a,Ax0528a,Ax0310a

>  <original SMILES>  (1262) 
CCNS(=O)(=O)c1ccc(F)c(OC)c1

>  <rationale>  (1262) 
info info set:3d;halogenbond:S105; hbond:S87; hydroph_interaction:P107+Y89; 

>  <experiment>  (1262) 
3d

>  <cluster_label>  (1262) 
3

>  <cluster_rank>  (1262) 
919

>  <N_interactions>  (1262) 
4

>  <∆∆G>  (1262) 
-6.055789

>  <comRMSD>  (1262) 
0.884628

>  <ROCS_TanimotoCombo>  (1262) 
0.293

>  <ROCS_ShapeTanimoto>  (1262) 
0.17

>  <ROCS_ColorTanimoto>  (1262) 
0.123

$$$$
EN300_20952249
     RDKit          3D

 14 15  0  0  0  0  0  0  0  0999 V2000
   33.2871   14.1076    6.2864 N   0  0  0  0  0  0  0  0  0  0  0  0
   32.0886   13.3383    7.1977 S   0  0  0  0  0  6  0  0  0  0  0  0
   30.8043   13.4495    6.5257 O   0  0  0  0  0  0  0  0  0  0  0  0
   32.2948   13.5402    8.6134 O   0  0  0  0  0  0  0  0  0  0  0  0
   32.7342   11.8895    6.6510 C   0  0  0  0  0  0  0  0  0  0  0  0
   33.8552   11.9523    5.7578 C   0  0  0  0  0  0  0  0  0  0  0  0
   34.4168   10.6742    5.2645 C   0  0  0  0  0  0  0  0  0  0  0  0
   33.8719    9.2358    5.6541 C   0  0  0  0  0  0  0  0  0  0  0  0
   32.7827    9.5291    6.5434 C   0  0  0  0  0  0  0  0  0  0  0  0
   32.0020    8.5867    7.1606 N   0  0  0  0  0  0  0  0  0  0  0  0
   31.0628    9.1480    7.9210 C   0  0  0  0  0  0  0  0  0  0  0  0
   30.1926    8.6429    8.6035 O   0  0  0  0  0  0  0  0  0  0  0  0
   31.1694   10.4943    7.8636 O   0  0  0  0  0  0  0  0  0  0  0  0
   32.2550   10.7172    7.0001 C   0  0  0  0  0  0  0  0  0  0  0  0
  1  2  1  0
  2  3  2  0
  2  4  2  0
  2  5  1  0
  5  6  2  0
  6  7  1  0
  7  8  2  0
  8  9  1  0
  9 10  1  0
 10 11  2  0
 11 12  1  0
 11 13  1  0
 13 14  1  0
 14  5  1  0
 14  9  2  0
A    1
 N1 
A    2
 S1 
A    3
 O1 
A    4
 O2 
A    5
 C1 
A    6
 C2 
A    7
 C3 
A    8
 C4 
A    9
 C5 
A   10
 N2 
A   11
 C6 
A   12
 O3 
A   13
 O4 
A   14
 C7 
M  END
>  <ref_pdb>  (1263) 
Ax0310a

>  <ref_mols>  (1263) 
Ax0446a,Ax1080a,Ax0812a,Ax0719a,Ax1140a,Ax0528a,Ax0310a

>  <original SMILES>  (1263) 
NS(=O)(=O)c1cccc2nc(O)oc12

>  <rationale>  (1263) 
info info set:sulfonimide_whole;hbond:S87+S105+G127; 

>  <experiment>  (1263) 
sulfonimide_whole

>  <cluster_label>  (1263) 
3

>  <cluster_rank>  (1263) 
920

>  <N_interactions>  (1263) 
3

>  <∆∆G>  (1263) 
-0.892764

>  <comRMSD>  (1263) 
0.755548

>  <ROCS_TanimotoCombo>  (1263) 
0.335

>  <ROCS_ShapeTanimoto>  (1263) 
0.201

>  <ROCS_ColorTanimoto>  (1263) 
0.133

$$$$
EN300_24496545
     RDKit          3D

  9  9  0  0  0  0  0  0  0  0999 V2000
   29.1439   12.4418    7.4872 C   0  0  0  0  0  0  0  0  0  0  0  0
   30.3754   11.9705    8.1029 N   0  0  0  0  0  0  0  0  0  0  0  0
   31.3204   11.2135    7.3697 C   0  0  0  0  0  0  0  0  0  0  0  0
   32.2959   11.8450    6.3908 C   0  0  0  0  0  0  0  0  0  0  0  0
   33.2076   11.0517    5.6894 C   0  0  0  0  0  0  0  0  0  0  0  0
   33.1923    9.5832    5.9304 C   0  0  0  0  0  0  0  0  0  0  0  0
   32.3415    9.0186    6.7906 N   0  0  0  0  0  0  0  0  0  0  0  0
   31.4672    9.8168    7.4562 C   0  0  0  0  0  0  0  0  0  0  0  0
   30.2545    8.7298    8.7349 I   0  0  0  0  0  0  0  0  0  0  0  0
  1  2  1  0
  2  3  1  0
  3  4  2  0
  4  5  1  0
  5  6  2  0
  6  7  1  0
  7  8  2  0
  8  9  1  0
  8  3  1  0
A    1
 C1 
A    2
 N1 
A    3
 C2 
A    4
 C3 
A    5
 C4 
A    6
 C5 
A    7
 N2 
A    8
 C6 
A    9
 I1 
M  END
>  <ref_pdb>  (1264) 
Ax0310a

>  <ref_mols>  (1264) 
Ax0446a,Ax1080a,Ax0812a,Ax0719a,Ax1140a,Ax0528a,Ax0310a

>  <original SMILES>  (1264) 
CNc1cccnc1I

>  <rationale>  (1264) 
info info set:bb_densepocket2;hbond:S125; 

>  <experiment>  (1264) 
bb_densepocket2

>  <cluster_label>  (1264) 
3

>  <cluster_rank>  (1264) 
921

>  <N_interactions>  (1264) 
1

>  <∆∆G>  (1264) 
-3.95132

>  <comRMSD>  (1264) 
0.454442

>  <ROCS_TanimotoCombo>  (1264) 
0.613

>  <ROCS_ShapeTanimoto>  (1264) 
0.193

>  <ROCS_ColorTanimoto>  (1264) 
0.421

$$$$
Z4507278303
     RDKit          3D

 22 24  0  0  0  0  0  0  0  0999 V2000
   31.5345   11.9694    8.3737 O   0  0  0  0  0  0  0  0  0  0  0  0
   30.6006   11.3008    8.0216 C   0  0  0  0  0  0  0  0  0  0  0  0
   29.4055   11.8274    7.7097 N   0  0  0  0  0  0  0  0  0  0  0  0
   29.2530   13.1712    7.9903 C   0  0  0  0  0  0  0  0  0  0  0  0
   28.4303   13.9543    7.2318 C   0  0  0  0  0  0  0  0  0  0  0  0
   28.2524   15.2558    7.4587 N   0  0  0  0  0  0  0  0  0  0  0  0
   28.9163   15.8061    8.4806 C   0  0  0  0  0  0  0  0  0  0  0  0
   29.7702   15.0874    9.3027 C   0  0  0  0  0  0  0  0  0  0  0  0
   30.4466   15.6218   10.3287 F   0  0  0  0  0  0  0  0  0  0  0  0
   29.9325   13.7658    9.0432 C   0  0  0  0  0  0  0  0  0  0  0  0
   30.8552    9.8545    7.8870 C   0  0  0  0  0  0  0  0  0  0  0  0
   32.0080    9.7995    6.9760 N   0  0  0  0  0  0  0  0  0  0  0  0
   32.5453   10.9340    6.4404 C   0  0  0  0  0  0  0  0  0  0  0  0
   33.6701   10.4117    5.5960 C   0  0  0  0  0  0  0  0  0  0  0  0
   34.6014   11.2982    4.7750 C   0  0  0  0  0  0  0  0  0  0  0  0
   35.1068   12.3200    5.5051 F   0  0  0  0  0  0  0  0  0  0  0  0
   35.6516   10.5881    4.2940 F   0  0  0  0  0  0  0  0  0  0  0  0
   33.9730   11.8465    3.7091 F   0  0  0  0  0  0  0  0  0  0  0  0
   33.6106    9.0441    5.7715 C   0  0  0  0  0  0  0  0  0  0  0  0
   32.6134    8.6642    6.6002 N   0  0  0  0  0  0  0  0  0  0  0  0
   30.6084    9.0532    9.1740 C   0  0  0  0  0  0  0  0  0  0  0  0
   29.9138    8.6726    8.0191 C   0  0  0  0  0  0  0  0  0  0  0  0
  1  2  2  0
  2  3  1  0
  3  4  1  0
  4  5  2  0
  5  6  1  0
  6  7  2  0
  7  8  1  0
  8  9  1  0
  8 10  2  0
  2 11  1  0
 11 12  1  0
 12 13  1  0
 13 14  2  0
 14 15  1  0
 15 16  1  0
 15 17  1  0
 15 18  1  0
 14 19  1  0
 19 20  2  0
 11 21  1  0
 21 22  1  0
 10  4  1  0
 22 11  1  0
 20 12  1  0
A    1
 O1 
A    2
 C1 
A    3
 N1 
A    4
 C2 
A    5
 C3 
A    6
 N2 
A    7
 C4 
A    8
 C5 
A    9
 F1 
A   10
 C6 
A   11
 C7 
A   12
 N3 
A   13
 C8 
A   14
 C9 
A   15
 C10
A   16
 F2 
A   17
 F3 
A   18
 F4 
A   19
 C11
A   20
 N4 
A   21
 C12
A   22
 C13
M  END
>  <ref_pdb>  (1265) 
Ax0310a

>  <ref_mols>  (1265) 
Ax0446a,Ax1080a,Ax0812a,Ax0719a,Ax1140a,Ax0528a,Ax0310a

>  <original SMILES>  (1265) 
O=C(Nc1cncc(F)c1)C1(n2cc(C(F)(F)F)cn2)CC1

>  <rationale>  (1265) 
info info set:screening_pocket;hbond:G127; hydroph_interaction:V124; pistack:H21; 

>  <experiment>  (1265) 
screening_pocket

>  <cluster_label>  (1265) 
3

>  <cluster_rank>  (1265) 
922

>  <N_interactions>  (1265) 
3

>  <∆∆G>  (1265) 
-0.369425

>  <comRMSD>  (1265) 
0.610737

>  <ROCS_TanimotoCombo>  (1265) 
0.632

>  <ROCS_ShapeTanimoto>  (1265) 
0.281

>  <ROCS_ColorTanimoto>  (1265) 
0.351

$$$$
Z4570550380
     RDKit          3D

 11 12  0  0  0  0  0  0  0  0999 V2000
   30.5638    8.7352    9.2338 C   0  0  0  0  0  0  0  0  0  0  0  0
   30.4870    9.8477    8.2142 C   0  0  2  0  0  0  0  0  0  0  0  0
   31.7144    9.8922    7.3098 C   0  0  0  0  0  0  0  0  0  0  0  0
   32.0706   11.3428    6.9167 C   0  0  0  0  0  0  0  0  0  0  0  0
   32.7234   11.5196    5.5579 C   0  0  0  0  0  0  0  0  0  0  0  0
   34.0258   11.9355    5.7093 C   0  0  0  0  0  0  0  0  0  0  0  0
   33.9403   12.7965    6.7878 C   0  0  0  0  0  0  0  0  0  0  0  0
   32.8220   12.4961    7.5932 C   0  0  0  0  0  0  0  0  0  0  0  0
   30.8462   11.9020    7.2101 C   0  0  0  0  0  0  0  0  0  0  0  0
   30.3135   12.8316    6.6374 O   0  0  0  0  0  0  0  0  0  0  0  0
   30.3042   11.1513    8.4040 N   0  0  0  0  0  0  0  0  0  0  0  0
  2  1  1  1
  2  3  1  0
  3  4  1  0
  4  5  1  0
  5  6  1  0
  6  7  1  0
  7  8  1  0
  4  9  1  0
  9 10  2  0
  9 11  1  0
 11  2  1  0
  8  4  1  0
A    1
 C1 
A    2
 C2 
A    3
 C3 
A    4
 C4 
A    5
 C5 
A    6
 C6 
A    7
 C7 
A    8
 C8 
A    9
 C9 
A   10
 O1 
A   11
 N1 
M  END
>  <ref_pdb>  (1266) 
Ax0310a

>  <ref_mols>  (1266) 
Ax0446a,Ax1080a,Ax0812a,Ax0719a,Ax1140a,Ax0528a,Ax0310a

>  <original SMILES>  (1266) 
C[C@@H]1CC2(CCCC2)C(=O)N1

>  <rationale>  (1266) 
info info set:3d;hbond:S125; hydroph_interaction:P107+V124; 

>  <experiment>  (1266) 
3d

>  <cluster_label>  (1266) 
3

>  <cluster_rank>  (1266) 
923

>  <N_interactions>  (1266) 
3

>  <∆∆G>  (1266) 
-2.809862

>  <comRMSD>  (1266) 
0.893904

>  <ROCS_TanimotoCombo>  (1266) 
0.282

>  <ROCS_ShapeTanimoto>  (1266) 
0.172

>  <ROCS_ColorTanimoto>  (1266) 
0.11

$$$$
EN300_1622328
     RDKit          3D

 10 10  0  0  0  0  0  0  0  0999 V2000
   29.7063    8.1879    8.4711 C   0  0  0  0  0  0  0  0  0  0  0  0
   30.9718    8.8845    8.6123 C   0  0  0  0  0  0  0  0  0  0  0  0
   31.5312    9.6590    7.6195 C   0  0  0  0  0  0  0  0  0  0  0  0
   32.4747    8.9980    6.8868 N   0  0  0  0  0  0  0  0  0  0  0  0
   33.1068    9.6821    5.9145 C   0  0  0  0  0  0  0  0  0  0  0  0
   34.1006    9.0826    5.1511 C   0  0  0  0  0  0  0  0  0  0  0  0
   32.7520   11.1239    5.6509 C   0  0  0  0  0  0  0  0  0  0  0  0
   31.7822   11.7250    6.4220 C   0  0  0  0  0  0  0  0  0  0  0  0
   31.1478   11.0080    7.4283 C   0  0  0  0  0  0  0  0  0  0  0  0
   30.1731   11.6914    8.1761 N   0  0  0  0  0  0  0  0  0  0  0  0
  1  2  1  0
  2  3  1  0
  3  4  2  0
  4  5  1  0
  5  6  1  0
  5  7  2  0
  7  8  1  0
  8  9  2  0
  9 10  1  0
  9  3  1  0
A    1
 C1 
A    2
 C2 
A    3
 C3 
A    4
 N1 
A    5
 C4 
A    6
 C5 
A    7
 C6 
A    8
 C7 
A    9
 C8 
A   10
 N2 
M  END
>  <ref_pdb>  (1267) 
Ax0310a

>  <ref_mols>  (1267) 
Ax0446a,Ax1080a,Ax0812a,Ax0719a,Ax1140a,Ax0528a,Ax0310a

>  <original SMILES>  (1267) 
CCc1nc(C)ccc1N

>  <rationale>  (1267) 
info info set:bb_densepocket2;hbond:S125; hydroph_interaction:P107+V124; 

>  <experiment>  (1267) 
bb_densepocket2

>  <cluster_label>  (1267) 
3

>  <cluster_rank>  (1267) 
924

>  <N_interactions>  (1267) 
3

>  <∆∆G>  (1267) 
-6.004767

>  <comRMSD>  (1267) 
0.489237

>  <ROCS_TanimotoCombo>  (1267) 
0.608

>  <ROCS_ShapeTanimoto>  (1267) 
0.198

>  <ROCS_ColorTanimoto>  (1267) 
0.41

$$$$
Z1541929387
     RDKit          3D

 20 22  0  0  0  0  0  0  0  0999 V2000
   31.4305   16.1320   10.8228 C   0  0  0  0  0  0  0  0  0  0  0  0
   31.8697   15.2323    9.8154 O   0  0  0  0  0  0  0  0  0  0  0  0
   30.9475   14.3746    9.2772 C   0  0  0  0  0  0  0  0  0  0  0  0
   31.3275   13.4981    8.2625 C   0  0  0  0  0  0  0  0  0  0  0  0
   29.9235   12.7765    7.4461 S   0  0  0  0  0  6  0  0  0  0  0  0
   29.7502   13.3869    6.1477 O   0  0  0  0  0  0  0  0  0  0  0  0
   28.8262   12.5949    8.3565 O   0  0  0  0  0  0  0  0  0  0  0  0
   30.6101   11.3134    7.1446 N   0  0  0  0  0  0  0  0  0  0  0  0
   30.6475   10.1843    8.0473 C   0  0  0  0  0  0  0  0  0  0  0  0
   31.8984    9.6745    7.4241 C   0  0  0  0  0  0  0  0  0  0  0  0
   32.8272   10.5541    6.6972 C   0  0  0  0  0  0  0  0  0  0  0  0
   33.4067   11.7949    6.9008 C   0  0  0  0  0  0  0  0  0  0  0  0
   34.4481   11.9742    5.8647 C   0  0  0  0  0  0  0  0  0  0  0  0
   35.2401   13.1684    5.5913 C   0  0  0  0  0  0  0  0  0  0  0  0
   36.1925   13.1541    4.5652 C   0  0  0  0  0  0  0  0  0  0  0  0
   36.3631   11.9795    3.8161 C   0  0  0  0  0  0  0  0  0  0  0  0
   35.5586   10.7731    4.0980 C   0  0  0  0  0  0  0  0  0  0  0  0
   34.6225   10.8232    5.1272 C   0  0  0  0  0  0  0  0  0  0  0  0
   33.6870    9.7706    5.6374 C   0  0  0  0  0  0  0  0  0  0  0  0
   31.6273   11.0970    6.0886 C   0  0  0  0  0  0  0  0  0  0  0  0
  1  2  1  0
  2  3  1  0
  3  4  1  0
  4  5  1  0
  5  6  2  0
  5  7  2  0
  5  8  1  0
  8  9  1  0
  9 10  1  0
 10 11  1  0
 11 12  1  0
 12 13  1  0
 13 14  2  0
 14 15  1  0
 15 16  2  0
 16 17  1  0
 17 18  2  0
 18 19  1  0
 11 20  1  0
 20  8  1  0
 19 11  1  0
 18 13  1  0
A    1
 C1 
A    2
 O1 
A    3
 C2 
A    4
 C3 
A    5
 S1 
A    6
 O2 
A    7
 O3 
A    8
 N1 
A    9
 C4 
A   10
 C5 
A   11
 C6 
A   12
 C7 
A   13
 C8 
A   14
 C9 
A   15
 C10
A   16
 C11
A   17
 C12
A   18
 C13
A   19
 C14
A   20
 C15
M  END
>  <ref_pdb>  (1268) 
Ax0310a

>  <ref_mols>  (1268) 
Ax0446a,Ax1080a,Ax0812a,Ax0719a,Ax1140a,Ax0528a,Ax0310a

>  <original SMILES>  (1268) 
COCCS(=O)(=O)N1CCC2(Cc3ccccc3C2)C1

>  <rationale>  (1268) 
info info set:3d;hbond:S87; 

>  <experiment>  (1268) 
3d

>  <cluster_label>  (1268) 
3

>  <cluster_rank>  (1268) 
925

>  <N_interactions>  (1268) 
1

>  <∆∆G>  (1268) 
-0.580229

>  <comRMSD>  (1268) 
0.730395

>  <ROCS_TanimotoCombo>  (1268) 
0.339

>  <ROCS_ShapeTanimoto>  (1268) 
0.205

>  <ROCS_ColorTanimoto>  (1268) 
0.134

$$$$
Z5348530741
     RDKit          3D

 16 17  0  0  0  0  0  0  0  0999 V2000
   28.2639   15.2687    8.3448 C   0  0  0  0  0  0  0  0  0  0  0  0
   29.2440   14.2096    8.5699 C   0  0  0  0  0  0  0  0  0  0  0  0
   30.7844   14.3795    9.3443 Cl  0  0  0  0  0  0  0  0  0  0  0  0
   28.8360   13.0453    8.1078 C   0  0  0  0  0  0  0  0  0  0  0  0
   29.8927   12.4958    7.3201 O   0  0  0  0  0  0  0  0  0  0  0  0
   30.4113   11.3988    7.8839 C   0  0  0  0  0  0  0  0  0  0  0  0
   30.1267   10.8365    8.8806 O   0  0  0  0  0  0  0  0  0  0  0  0
   31.4480   10.7421    7.1744 C   0  0  0  0  0  0  0  0  0  0  0  0
   31.5966    9.2909    7.3369 C   0  0  0  0  0  0  0  0  0  0  0  0
   32.4902    8.5298    6.7495 N   0  0  0  0  0  0  0  0  0  0  0  0
   33.2711    9.2724    5.9515 C   0  0  0  0  0  0  0  0  0  0  0  0
   34.3071    8.8137    5.1653 N   0  0  0  0  0  0  0  0  0  0  0  0
   34.9673    9.8746    4.4183 C   0  0  0  0  0  0  0  0  0  0  0  0
   34.2738   11.0106    4.7924 C   0  0  0  0  0  0  0  0  0  0  0  0
   33.2317   10.6390    5.7266 C   0  0  0  0  0  0  0  0  0  0  0  0
   32.3266   11.4145    6.3285 C   0  0  0  0  0  0  0  0  0  0  0  0
  1  2  2  0
  2  3  1  0
  2  4  1  0
  4  5  1  0
  5  6  1  0
  6  7  2  0
  6  8  1  0
  8  9  2  0
  9 10  1  0
 10 11  2  0
 11 12  1  0
 12 13  1  0
 13 14  2  0
 14 15  1  0
 15 16  2  0
 16  8  1  0
 15 11  1  0
A    1
 C1 
A    2
 C2 
A    3
CL1 
A    4
 C3 
A    5
 O1 
A    6
 C4 
A    7
 O2 
A    8
 C5 
A    9
 C6 
A   10
 N1 
A   11
 C7 
A   12
 N2 
A   13
 C8 
A   14
 C9 
A   15
 C10
A   16
 C11
M  END
>  <ref_pdb>  (1269) 
Ax0310a

>  <ref_mols>  (1269) 
Ax0446a,Ax1080a,Ax0812a,Ax0719a,Ax1140a,Ax0528a,Ax0310a

>  <original SMILES>  (1269) 
C=C(Cl)COC(=O)c1cnc2[nH]ccc2c1

>  <rationale>  (1269) 
info info set:screening_pocket;hbond:S105; hydroph_interaction:P107+Y89+Y90; 

>  <experiment>  (1269) 
screening_pocket

>  <cluster_label>  (1269) 
3

>  <cluster_rank>  (1269) 
926

>  <N_interactions>  (1269) 
4

>  <∆∆G>  (1269) 
-3.533654

>  <comRMSD>  (1269) 
0.417219

>  <ROCS_TanimotoCombo>  (1269) 
0.624

>  <ROCS_ShapeTanimoto>  (1269) 
0.264

>  <ROCS_ColorTanimoto>  (1269) 
0.36

$$$$
EN300_1988597
     RDKit          3D

 16 16  0  0  0  0  0  0  0  0999 V2000
   34.0269    8.9003    5.6622 C   0  0  0  0  0  0  0  0  0  0  0  0
   32.9278    8.6932    6.5257 O   0  0  0  0  0  0  0  0  0  0  0  0
   32.3435    9.8549    6.8483 C   0  0  0  0  0  0  0  0  0  0  0  0
   32.7566   11.0422    6.3141 C   0  0  0  0  0  0  0  0  0  0  0  0
   32.1219   12.1987    6.6838 C   0  0  0  0  0  0  0  0  0  0  0  0
   32.5730   13.3562    6.1248 O   0  0  0  0  0  0  0  0  0  0  0  0
   33.9254   13.1772    5.6622 C   0  0  0  0  0  0  0  0  0  0  0  0
   31.0638   12.1597    7.5905 C   0  0  0  0  0  0  0  0  0  0  0  0
   30.2343   13.6385    8.0537 S   0  0  0  0  0  6  0  0  0  0  0  0
   28.9410   13.3254    9.0368 N   0  0  0  0  0  0  0  0  0  0  0  0
   31.1437   14.4096    8.8852 O   0  0  0  0  0  0  0  0  0  0  0  0
   29.6334   14.1047    6.8346 O   0  0  0  0  0  0  0  0  0  0  0  0
   30.6611   10.9580    8.1203 C   0  0  0  0  0  0  0  0  0  0  0  0
   31.3082    9.8118    7.7485 C   0  0  0  0  0  0  0  0  0  0  0  0
   31.0271    8.5875    8.1965 O   0  0  0  0  0  0  0  0  0  0  0  0
   30.1298    8.6061    9.2388 C   0  0  0  0  0  0  0  0  0  0  0  0
  1  2  1  0
  2  3  1  0
  3  4  2  0
  4  5  1  0
  5  6  1  0
  6  7  1  0
  5  8  2  0
  8  9  1  0
  9 10  1  0
  9 11  2  0
  9 12  2  0
  8 13  1  0
 13 14  2  0
 14 15  1  0
 15 16  1  0
 14  3  1  0
A    1
 C1 
A    2
 O1 
A    3
 C2 
A    4
 C3 
A    5
 C4 
A    6
 O2 
A    7
 C5 
A    8
 C6 
A    9
 S1 
A   10
 N1 
A   11
 O3 
A   12
 O4 
A   13
 C7 
A   14
 C8 
A   15
 O5 
A   16
 C9 
M  END
>  <ref_pdb>  (1270) 
Ax0310a

>  <ref_mols>  (1270) 
Ax0446a,Ax1080a,Ax0812a,Ax0719a,Ax1140a,Ax0528a,Ax0310a

>  <original SMILES>  (1270) 
COc1cc(OC)c(S(N)(=O)=O)cc1OC

>  <rationale>  (1270) 
info info set:sulfonimide_whole;hbond:S87+S125; 

>  <experiment>  (1270) 
sulfonimide_whole

>  <cluster_label>  (1270) 
3

>  <cluster_rank>  (1270) 
927

>  <N_interactions>  (1270) 
2

>  <∆∆G>  (1270) 
-8.957472

>  <comRMSD>  (1270) 
0.940979

>  <ROCS_TanimotoCombo>  (1270) 
0.338

>  <ROCS_ShapeTanimoto>  (1270) 
0.208

>  <ROCS_ColorTanimoto>  (1270) 
0.13

$$$$
EN300_138959
     RDKit          3D

 14 15  0  0  0  0  0  0  0  0999 V2000
   34.9351    8.5455    5.0743 C   0  0  0  0  0  0  0  0  0  0  0  0
   34.4053    9.8311    5.3265 N   0  0  0  0  0  0  0  0  0  0  0  0
   35.1319   10.8883    4.8011 N   0  0  0  0  0  0  0  0  0  0  0  0
   34.3780   11.9001    5.1489 C   0  0  0  0  0  0  0  0  0  0  0  0
   33.1919   11.5177    5.8831 C   0  0  0  0  0  0  0  0  0  0  0  0
   32.1717   12.2848    6.3691 C   0  0  0  0  0  0  0  0  0  0  0  0
   31.1716   11.6162    7.0099 C   0  0  0  0  0  0  0  0  0  0  0  0
   29.8232   12.5553    7.5574 S   0  0  0  0  0  6  0  0  0  0  0  0
   30.3293   13.2757    8.9736 N   0  0  0  0  0  0  0  0  0  0  0  0
   29.6158   13.6301    6.6172 O   0  0  0  0  0  0  0  0  0  0  0  0
   28.7725   11.6509    7.8097 O   0  0  0  0  0  0  0  0  0  0  0  0
   31.2929   10.2112    7.1583 C   0  0  0  0  0  0  0  0  0  0  0  0
   32.3337    9.4047    6.6729 N   0  0  0  0  0  0  0  0  0  0  0  0
   33.2459   10.1622    6.0170 C   0  0  0  0  0  0  0  0  0  0  0  0
  1  2  1  0
  2  3  1  0
  3  4  2  0
  4  5  1  0
  5  6  2  0
  6  7  1  0
  7  8  1  0
  8  9  1  0
  8 10  2  0
  8 11  2  0
  7 12  2  0
 12 13  1  0
 13 14  2  0
 14  2  1  0
 14  5  1  0
A    1
 C1 
A    2
 N1 
A    3
 N2 
A    4
 C2 
A    5
 C3 
A    6
 C4 
A    7
 C5 
A    8
 S1 
A    9
 N3 
A   10
 O1 
A   11
 O2 
A   12
 C6 
A   13
 N4 
A   14
 C7 
M  END
>  <ref_pdb>  (1271) 
Ax0310a

>  <ref_mols>  (1271) 
Ax0446a,Ax1080a,Ax0812a,Ax0719a,Ax1140a,Ax0528a,Ax0310a

>  <original SMILES>  (1271) 
Cn1ncc2cc(S(N)(=O)=O)cnc21

>  <rationale>  (1271) 
info info set:sulfonimide_whole;hbond:S87+S125; 

>  <experiment>  (1271) 
sulfonimide_whole

>  <cluster_label>  (1271) 
3

>  <cluster_rank>  (1271) 
928

>  <N_interactions>  (1271) 
2

>  <∆∆G>  (1271) 
-3.765542

>  <comRMSD>  (1271) 
0.826866

>  <ROCS_TanimotoCombo>  (1271) 
0.333

>  <ROCS_ShapeTanimoto>  (1271) 
0.192

>  <ROCS_ColorTanimoto>  (1271) 
0.141

$$$$
EN300_744865
     RDKit          3D

 16 17  0  0  0  0  0  0  0  0999 V2000
   35.9357    8.5945    3.1876 C   0  0  0  0  0  0  0  0  0  0  0  0
   34.8645    9.3795    3.9363 C   0  0  0  0  0  0  0  0  0  0  0  0
   34.4135   10.6811    3.2482 C   0  0  0  0  0  0  0  0  0  0  0  0
   33.3464   11.4936    3.9762 C   0  0  0  0  0  0  0  0  0  0  0  0
   32.9018   10.8412    5.2634 C   0  0  0  0  0  0  0  0  0  0  0  0
   31.8661   11.4252    6.1524 C   0  0  0  0  0  0  0  0  0  0  0  0
   31.8124   10.3864    7.2274 C   0  0  0  0  0  0  0  0  0  0  0  0
   30.8824   10.5307    8.3684 C   0  0  0  0  0  0  0  0  0  0  0  0
   30.5865   11.6491    8.7470 O   0  0  0  0  0  0  0  0  0  0  0  0
   30.2626    9.3321    8.9517 C   0  0  0  0  0  0  0  0  0  0  0  0
   30.1953    8.5848    7.8271 C   0  0  0  0  0  0  0  0  0  0  0  0
   28.8309    9.4909    9.1781 C   0  0  0  0  0  0  0  0  0  0  0  0
   30.8776    8.1612    9.5775 C   0  0  0  0  0  0  0  0  0  0  0  0
   32.7095    9.3572    6.9780 O   0  0  0  0  0  0  0  0  0  0  0  0
   33.3596    9.6641    5.7873 C   0  0  0  0  0  0  0  0  0  0  0  0
   34.3494    8.9327    5.1508 C   0  0  0  0  0  0  0  0  0  0  0  0
  1  2  1  0
  2  3  2  0
  3  4  1  0
  4  5  2  0
  5  6  1  0
  6  7  2  0
  7  8  1  0
  8  9  2  0
  8 10  1  0
 10 11  1  0
 10 12  1  0
 10 13  1  0
  7 14  1  0
 14 15  1  0
 15 16  2  0
 16  2  1  0
 15  5  1  0
A    1
 C1 
A    2
 C2 
A    3
 C3 
A    4
 C4 
A    5
 C5 
A    6
 C6 
A    7
 C7 
A    8
 C8 
A    9
 O1 
A   10
 C9 
A   11
 C10
A   12
 C11
A   13
 C12
A   14
 O2 
A   15
 C13
A   16
 C14
M  END
>  <ref_pdb>  (1272) 
Ax0310a

>  <ref_mols>  (1272) 
Ax0446a,Ax1080a,Ax0812a,Ax0719a,Ax1140a,Ax0528a,Ax0310a

>  <original SMILES>  (1272) 
Cc1ccc2cc(C(=O)C(C)(C)C)oc2c1

>  <rationale>  (1272) 
info info set:bb_densepocket2;hbond:G127; hydroph_interaction:P107+V124; 

>  <experiment>  (1272) 
bb_densepocket2

>  <cluster_label>  (1272) 
3

>  <cluster_rank>  (1272) 
929

>  <N_interactions>  (1272) 
3

>  <∆∆G>  (1272) 
-3.878765

>  <comRMSD>  (1272) 
0.691134

>  <ROCS_TanimotoCombo>  (1272) 
0.607

>  <ROCS_ShapeTanimoto>  (1272) 
0.219

>  <ROCS_ColorTanimoto>  (1272) 
0.388

$$$$
Z2907560907
     RDKit          3D

 22 24  0  0  0  0  0  0  0  0999 V2000
   28.5592   12.4382    6.6723 C   0  0  0  0  0  0  0  0  0  0  0  0
   29.3307   12.2562    7.7756 N   0  0  0  0  0  0  0  0  0  0  0  0
   30.2698   11.2000    8.0287 C   0  0  0  0  0  0  0  0  0  0  0  0
   30.1514   10.2844    9.1267 O   0  0  0  0  0  0  0  0  0  0  0  0
   31.3213   10.8670    7.2106 C   0  0  0  0  0  0  0  0  0  0  0  0
   32.0722   11.6902    6.3917 C   0  0  0  0  0  0  0  0  0  0  0  0
   33.0969   11.1147    5.6317 C   0  0  0  0  0  0  0  0  0  0  0  0
   33.9126   11.9559    4.7406 C   0  0  0  0  0  0  0  0  0  0  0  0
   34.9980   11.3117    3.9275 C   0  0  0  0  0  0  0  0  0  0  0  0
   35.7630   12.0266    3.1003 F   0  0  0  0  0  0  0  0  0  0  0  0
   35.2173    9.7931    4.0611 C   0  0  0  0  0  0  0  0  0  0  0  0
   34.3739    9.1548    4.9419 C   0  0  0  0  0  0  0  0  0  0  0  0
   33.3559    9.7224    5.7096 C   0  0  0  0  0  0  0  0  0  0  0  0
   32.6581    8.8992    6.4966 N   0  0  0  0  0  0  0  0  0  0  0  0
   31.6671    9.4068    7.2393 C   0  0  0  0  0  0  0  0  0  0  0  0
   31.0012    8.4960    8.0118 O   0  0  0  0  0  0  0  0  0  0  0  0
   29.1536   13.4783    8.5939 C   0  0  0  0  0  0  0  0  0  0  0  0
   28.0689   13.5162    9.6741 C   0  0  0  0  0  0  0  0  0  0  0  0
   28.6068   14.6060    7.6735 C   0  0  0  0  0  0  0  0  0  0  0  0
   28.7824   15.8150    8.5580 C   0  0  0  0  0  0  0  0  0  0  0  0
   29.8919   15.2808    9.4526 C   0  0  0  0  0  0  0  0  0  0  0  0
   30.4311   14.0641    9.2257 C   0  0  0  0  0  0  0  0  0  0  0  0
  1  2  1  0
  2  3  1  0
  3  4  2  0
  3  5  1  0
  5  6  2  0
  6  7  1  0
  7  8  2  0
  8  9  1  0
  9 10  1  0
  9 11  2  0
 11 12  1  0
 12 13  2  0
 13 14  1  0
 14 15  2  0
 15 16  1  0
  2 17  1  0
 17 18  1  0
 17 19  1  0
 19 20  1  0
 20 21  1  0
 21 22  1  0
 15  5  1  0
 22 17  1  0
 13  7  1  0
A    1
 C1 
A    2
 N1 
A    3
 C2 
A    4
 O1 
A    5
 C3 
A    6
 C4 
A    7
 C5 
A    8
 C6 
A    9
 C7 
A   10
 F1 
A   11
 C8 
A   12
 C9 
A   13
 C10
A   14
 N2 
A   15
 C11
A   16
 O2 
A   17
 C12
A   18
 C13
A   19
 C14
A   20
 C15
A   21
 C16
A   22
 C17
M  END
>  <ref_pdb>  (1273) 
Ax0310a

>  <ref_mols>  (1273) 
Ax0446a,Ax1080a,Ax0812a,Ax0719a,Ax1140a,Ax0528a,Ax0310a

>  <original SMILES>  (1273) 
CN(C(=O)c1cc2cc(F)ccc2nc1O)C1(C)CCCC1

>  <rationale>  (1273) 
info info set:screening_pocket;hbond:S105; hydroph_interaction:P107+Y89+Y90; 

>  <experiment>  (1273) 
screening_pocket

>  <cluster_label>  (1273) 
3

>  <cluster_rank>  (1273) 
930

>  <N_interactions>  (1273) 
4

>  <∆∆G>  (1273) 
-6.455595

>  <comRMSD>  (1273) 
0.469116

>  <ROCS_TanimotoCombo>  (1273) 
0.624

>  <ROCS_ShapeTanimoto>  (1273) 
0.305

>  <ROCS_ColorTanimoto>  (1273) 
0.319

$$$$
EN300_251579
     RDKit          3D

  9  9  0  0  0  0  0  0  0  0999 V2000
   34.5044    9.3123    4.1602 C   0  0  0  0  0  0  0  0  0  0  0  0
   34.2152    8.8320    5.3914 N   0  0  0  0  0  0  0  0  0  0  0  0
   33.1874    9.4285    6.0608 C   0  0  0  0  0  0  0  0  0  0  0  0
   33.0922   10.9094    5.7689 C   0  0  0  0  0  0  0  0  0  0  0  0
   32.0007   11.7377    6.4490 C   0  0  0  0  0  0  0  0  0  0  0  0
   31.1240   10.8712    7.3819 C   0  0  0  0  0  0  0  0  0  0  0  0
   31.4025    9.4966    7.4961 C   0  0  0  0  0  0  0  0  0  0  0  0
   30.6331    8.7416    8.3108 O   0  0  0  0  0  0  0  0  0  0  0  0
   32.3519    8.7857    6.8996 N   0  0  0  0  0  0  0  0  0  0  0  0
  1  2  1  0
  2  3  1  0
  3  4  2  0
  4  5  1  0
  5  6  2  0
  6  7  1  0
  7  8  1  0
  7  9  2  0
  9  3  1  0
A    1
 C1 
A    2
 N1 
A    3
 C2 
A    4
 C3 
A    5
 C4 
A    6
 C5 
A    7
 C6 
A    8
 O1 
A    9
 N2 
M  END
>  <ref_pdb>  (1274) 
Ax0310a

>  <ref_mols>  (1274) 
Ax0446a,Ax1080a,Ax0812a,Ax0719a,Ax1140a,Ax0528a,Ax0310a

>  <original SMILES>  (1274) 
CNc1cccc(O)n1

>  <rationale>  (1274) 
info info set:bb_densepocket2;hbond:S105; hydroph_interaction:P107; 

>  <experiment>  (1274) 
bb_densepocket2

>  <cluster_label>  (1274) 
3

>  <cluster_rank>  (1274) 
931

>  <N_interactions>  (1274) 
2

>  <∆∆G>  (1274) 
-4.190092

>  <comRMSD>  (1274) 
0.286088

>  <ROCS_TanimotoCombo>  (1274) 
0.612

>  <ROCS_ShapeTanimoto>  (1274) 
0.187

>  <ROCS_ColorTanimoto>  (1274) 
0.424

$$$$
EN300_258582
     RDKit          3D

 13 13  0  0  0  0  0  0  0  0999 V2000
   35.4473   14.8289    7.2103 N   0  0  0  0  0  0  0  0  0  0  0  0
   34.2610   13.9057    6.4824 S   0  0  0  0  0  6  0  0  0  0  0  0
   34.9144   12.7573    5.9347 O   0  0  0  0  0  0  0  0  0  0  0  0
   33.4792   14.7073    5.6232 O   0  0  0  0  0  0  0  0  0  0  0  0
   33.3038   13.4467    7.8798 C   0  0  0  0  0  0  0  0  0  0  0  0
   32.5073   12.2334    7.6148 C   0  0  0  0  0  0  0  0  0  0  0  0
   33.2648   11.2392    6.8233 C   0  0  0  0  0  0  0  0  0  0  0  0
   32.6411   10.0746    6.5947 C   0  0  0  0  0  0  0  0  0  0  0  0
   33.5726    9.0120    5.6690 Cl  0  0  0  0  0  0  0  0  0  0  0  0
   31.2745    9.7806    7.1229 C   0  0  0  0  0  0  0  0  0  0  0  0
   30.6236   10.8125    7.8199 C   0  0  0  0  0  0  0  0  0  0  0  0
   31.2362   12.0307    8.0390 C   0  0  0  0  0  0  0  0  0  0  0  0
   30.3512   13.4648    8.9179 Br  0  0  0  0  0  0  0  0  0  0  0  0
  1  2  1  0
  2  3  2  0
  2  4  2  0
  2  5  1  0
  5  6  1  0
  6  7  2  0
  7  8  1  0
  8  9  1  0
  8 10  2  0
 10 11  1  0
 11 12  2  0
 12 13  1  0
 12  6  1  0
A    1
 N1 
A    2
 S1 
A    3
 O1 
A    4
 O2 
A    5
 C1 
A    6
 C2 
A    7
 C3 
A    8
 C4 
A    9
CL1 
A   10
 C5 
A   11
 C6 
A   12
 C7 
A   13
BR1 
M  END
>  <ref_pdb>  (1275) 
Ax0310a

>  <ref_mols>  (1275) 
Ax0446a,Ax1080a,Ax0812a,Ax0719a,Ax1140a,Ax0528a,Ax0310a

>  <original SMILES>  (1275) 
NS(=O)(=O)Cc1cc(Cl)ccc1Br

>  <rationale>  (1275) 
info info set:sulfonimide_joint;hbond:E85; 

>  <experiment>  (1275) 
sulfonimide_joint

>  <cluster_label>  (1275) 
3

>  <cluster_rank>  (1275) 
932

>  <N_interactions>  (1275) 
1

>  <∆∆G>  (1275) 
-1.008419

>  <comRMSD>  (1275) 
0.940904

>  <ROCS_TanimotoCombo>  (1275) 
0.32

>  <ROCS_ShapeTanimoto>  (1275) 
0.161

>  <ROCS_ColorTanimoto>  (1275) 
0.159

$$$$
Z826825048
     RDKit          3D

 14 15  0  0  0  0  0  0  0  0999 V2000
   31.1624   15.7427    9.8785 N   0  0  0  0  0  0  0  0  0  0  0  0
   31.2052   14.5291    9.2497 C   0  0  0  0  0  0  0  0  0  0  0  0
   32.5927   14.0451    8.8245 C   0  0  0  0  0  0  0  0  0  0  0  0
   32.6995   13.5063    7.4542 N   0  0  0  0  0  0  0  0  0  0  0  0
   31.6683   12.7082    6.9242 C   0  0  0  0  0  0  0  0  0  0  0  0
   30.6404   13.1426    6.4075 O   0  0  0  0  0  0  0  0  0  0  0  0
   31.7782   11.3431    6.9935 C   0  0  0  0  0  0  0  0  0  0  0  0
   32.6724   10.6146    6.2142 C   0  0  0  0  0  0  0  0  0  0  0  0
   32.6063    9.1545    6.4732 C   0  0  0  0  0  0  0  0  0  0  0  0
   31.5439    8.9770    7.5355 C   0  0  0  0  0  0  0  0  0  0  0  0
   30.8087   10.4112    8.0641 S   0  0  0  0  0  0  0  0  0  0  0  0
   34.0789   13.2507    7.1156 C   0  0  0  0  0  0  0  0  0  0  0  0
   34.6881   13.9100    6.1789 C   0  0  0  0  0  0  0  0  0  0  0  0
   34.6278   12.7285    5.6421 C   0  0  0  0  0  0  0  0  0  0  0  0
  1  2  3  0
  2  3  1  0
  3  4  1  0
  4  5  1  0
  5  6  2  0
  5  7  1  0
  7  8  2  0
  8  9  1  0
  9 10  2  0
 10 11  1  0
  4 12  1  0
 12 13  1  0
 13 14  1  0
 11  7  1  0
 14 12  1  0
A    1
 N1 
A    2
 C1 
A    3
 C2 
A    4
 N2 
A    5
 C3 
A    6
 O1 
A    7
 C4 
A    8
 C5 
A    9
 C6 
A   10
 C7 
A   11
 S1 
A   12
 C8 
A   13
 C9 
A   14
 C10
M  END
>  <ref_pdb>  (1276) 
Ax0310a

>  <ref_mols>  (1276) 
Ax0446a,Ax1080a,Ax0812a,Ax0719a,Ax1140a,Ax0528a,Ax0310a

>  <original SMILES>  (1276) 
N#CCN(C(=O)c1cccs1)C1CC1

>  <rationale>  (1276) 
info info set:3d;hbond:S87; hydroph_interaction:P107; 

>  <experiment>  (1276) 
3d

>  <cluster_label>  (1276) 
3

>  <cluster_rank>  (1276) 
933

>  <N_interactions>  (1276) 
3

>  <∆∆G>  (1276) 
-5.320988

>  <comRMSD>  (1276) 
0.847476

>  <ROCS_TanimotoCombo>  (1276) 
0.285

>  <ROCS_ShapeTanimoto>  (1276) 
0.176

>  <ROCS_ColorTanimoto>  (1276) 
0.109

$$$$
EN300_225065
     RDKit          3D

 14 15  0  0  0  0  0  0  0  0999 V2000
   28.8909   13.0375    8.9020 N   0  0  0  0  0  0  0  0  0  0  0  0
   30.2385   13.5047    8.0586 S   0  0  0  0  0  6  0  0  0  0  0  0
   29.5873   14.1103    6.9326 O   0  0  0  0  0  0  0  0  0  0  0  0
   31.1147   14.2203    8.9643 O   0  0  0  0  0  0  0  0  0  0  0  0
   31.0682   12.0502    7.4336 C   0  0  0  0  0  0  0  0  0  0  0  0
   30.9372   10.7781    7.9933 C   0  0  0  0  0  0  0  0  0  0  0  0
   31.7023    9.8877    7.2536 N   0  0  0  0  0  0  0  0  0  0  0  0
   32.2598   10.6649    6.2745 N   0  0  0  0  0  0  0  0  0  0  0  0
   33.1390   10.1715    5.2106 C   0  0  1  0  0  0  0  0  0  0  0  0
   33.3121   11.1557    4.0204 C   0  0  0  0  0  0  0  0  0  0  0  0
   34.8439   11.3641    3.8854 C   0  0  0  0  0  0  0  0  0  0  0  0
   35.3165   10.1538    4.4300 O   0  0  0  0  0  0  0  0  0  0  0  0
   34.5492   10.0337    5.5274 C   0  0  0  0  0  0  0  0  0  0  0  0
   31.8989   11.9616    6.3708 C   0  0  0  0  0  0  0  0  0  0  0  0
  1  2  1  0
  2  3  2  0
  2  4  2  0
  2  5  1  0
  5  6  1  0
  6  7  2  0
  7  8  1  0
  9  8  1  1
  9 10  1  0
 10 11  1  0
 11 12  1  0
 12 13  1  0
  8 14  1  0
 14  5  2  0
 13  9  1  0
A    1
 N1 
A    2
 S1 
A    3
 O1 
A    4
 O2 
A    5
 C1 
A    6
 C2 
A    7
 N2 
A    8
 N3 
A    9
 C3 
A   10
 C4 
A   11
 C5 
A   12
 O3 
A   13
 C6 
A   14
 C7 
M  END
>  <ref_pdb>  (1277) 
Ax0310a

>  <ref_mols>  (1277) 
Ax0446a,Ax1080a,Ax0812a,Ax0719a,Ax1140a,Ax0528a,Ax0310a

>  <original SMILES>  (1277) 
NS(=O)(=O)c1cnn([C@H]2CCOC2)c1

>  <rationale>  (1277) 
info info set:sulfonimide_whole;hbond:S87+S125; hydroph_interaction:P107; 

>  <experiment>  (1277) 
sulfonimide_whole

>  <cluster_label>  (1277) 
3

>  <cluster_rank>  (1277) 
934

>  <N_interactions>  (1277) 
3

>  <∆∆G>  (1277) 
-1.763852

>  <comRMSD>  (1277) 
0.810662

>  <ROCS_TanimotoCombo>  (1277) 
0.333

>  <ROCS_ShapeTanimoto>  (1277) 
0.186

>  <ROCS_ColorTanimoto>  (1277) 
0.147

$$$$
EN300_37086188
     RDKit          3D

 16 16  0  0  0  0  0  0  0  0999 V2000
   35.1184    8.3097    4.7754 C   0  0  0  0  0  0  0  0  0  0  0  0
   34.2421    8.7707    5.7896 O   0  0  0  0  0  0  0  0  0  0  0  0
   33.9381   10.0778    5.6746 C   0  0  0  0  0  0  0  0  0  0  0  0
   34.6630   10.8009    5.0162 O   0  0  0  0  0  0  0  0  0  0  0  0
   32.8220   10.6085    6.3094 C   0  0  0  0  0  0  0  0  0  0  0  0
   32.5976   11.9501    6.0945 C   0  0  0  0  0  0  0  0  0  0  0  0
   31.5322   12.6072    6.6604 C   0  0  0  0  0  0  0  0  0  0  0  0
   30.5347   11.9984    7.5381 C   0  0  0  0  0  0  0  0  0  0  0  0
   29.4445   12.7148    8.1057 N   0  0  0  0  0  0  0  0  0  0  0  0
   29.6694   14.3008    8.6610 S   0  0  0  0  0  6  0  0  0  0  0  0
   28.5958   14.3644   10.0754 C   0  0  0  0  0  0  0  0  0  0  0  0
   31.0545   14.4704    9.0428 O   0  0  0  0  0  0  0  0  0  0  0  0
   29.0753   15.1677    7.6606 O   0  0  0  0  0  0  0  0  0  0  0  0
   30.7536   10.5027    7.8089 C   0  0  0  0  0  0  0  0  0  0  0  0
   31.9575    9.8518    7.1290 C   0  0  0  0  0  0  0  0  0  0  0  0
   32.1951    8.5139    7.3238 O   0  0  0  0  0  0  0  0  0  0  0  0
  1  2  1  0
  2  3  1  0
  3  4  2  0
  3  5  1  0
  5  6  2  0
  6  7  1  0
  7  8  2  0
  8  9  1  0
  9 10  1  0
 10 11  1  0
 10 12  2  0
 10 13  2  0
  8 14  1  0
 14 15  2  0
 15 16  1  0
 15  5  1  0
A    1
 C1 
A    2
 O1 
A    3
 C2 
A    4
 O2 
A    5
 C3 
A    6
 C4 
A    7
 C5 
A    8
 C6 
A    9
 N1 
A   10
 S1 
A   11
 C7 
A   12
 O3 
A   13
 O4 
A   14
 C8 
A   15
 C9 
A   16
 O5 
M  END
>  <ref_pdb>  (1278) 
Ax0310a

>  <ref_mols>  (1278) 
Ax0446a,Ax1080a,Ax0812a,Ax0719a,Ax1140a,Ax0528a,Ax0310a

>  <original SMILES>  (1278) 
COC(=O)c1ccc(NS(C)(=O)=O)cc1O

>  <rationale>  (1278) 
info info set:sulfonimide_whole;hbond:S87+S105; 

>  <experiment>  (1278) 
sulfonimide_whole

>  <cluster_label>  (1278) 
3

>  <cluster_rank>  (1278) 
935

>  <N_interactions>  (1278) 
2

>  <∆∆G>  (1278) 
-5.394673

>  <comRMSD>  (1278) 
0.666057

>  <ROCS_TanimotoCombo>  (1278) 
0.339

>  <ROCS_ShapeTanimoto>  (1278) 
0.208

>  <ROCS_ColorTanimoto>  (1278) 
0.132

$$$$
Z801751982
     RDKit          3D

 14 15  0  0  0  0  0  0  0  0999 V2000
   34.7311   12.1410    5.4952 C   0  0  0  0  0  0  0  0  0  0  0  0
   34.0221   10.9158    5.3106 O   0  0  0  0  0  0  0  0  0  0  0  0
   32.9722   10.7386    6.1435 C   0  0  0  0  0  0  0  0  0  0  0  0
   32.7510    9.2570    6.4921 C   0  0  0  0  0  0  0  0  0  0  0  0
   31.5361    9.3381    7.4308 C   0  0  0  0  0  0  0  0  0  0  0  0
   30.8138   10.5654    7.8431 C   0  0  0  0  0  0  0  0  0  0  0  0
   31.1330   11.8217    7.4354 C   0  0  0  0  0  0  0  0  0  0  0  0
   30.3934   12.9302    7.8681 C   0  0  0  0  0  0  0  0  0  0  0  0
   30.7478   13.9203    8.9324 C   0  0  0  0  0  0  0  0  0  0  0  0
   29.6585   14.3420    9.7230 O   0  0  0  0  0  0  0  0  0  0  0  0
   32.1319   14.3537    9.0840 O   0  0  0  0  0  0  0  0  0  0  0  0
   29.9426   13.2413    6.3813 C   0  0  0  0  0  0  0  0  0  0  0  0
   28.9562   12.6715    7.3919 C   0  0  0  0  0  0  0  0  0  0  0  0
   32.2408   11.8826    6.5712 C   0  0  0  0  0  0  0  0  0  0  0  0
  1  2  1  0
  2  3  1  0
  3  4  2  0
  4  5  1  0
  5  6  2  0
  6  7  1  0
  7  8  1  0
  8  9  1  0
  9 10  2  0
  9 11  1  0
  8 12  1  0
 12 13  1  0
  7 14  2  0
 14  3  1  0
 13  8  1  0
A    1
 C1 
A    2
 O1 
A    3
 C2 
A    4
 C3 
A    5
 C4 
A    6
 C5 
A    7
 C6 
A    8
 C7 
A    9
 C8 
A   10
 O2 
A   11
 O3 
A   12
 C9 
A   13
 C10
A   14
 C11
M  END
>  <ref_pdb>  (1279) 
Ax0310a

>  <ref_mols>  (1279) 
Ax0446a,Ax1080a,Ax0812a,Ax0719a,Ax1140a,Ax0528a,Ax0310a

>  <original SMILES>  (1279) 
COc1cccc(C2(C(=O)O)CC2)c1

>  <rationale>  (1279) 
info info set:3d;hbond:S87; hydroph_interaction:P107; 

>  <experiment>  (1279) 
3d

>  <cluster_label>  (1279) 
3

>  <cluster_rank>  (1279) 
936

>  <N_interactions>  (1279) 
2

>  <∆∆G>  (1279) 
-5.062116

>  <comRMSD>  (1279) 
0.560181

>  <ROCS_TanimotoCombo>  (1279) 
0.302

>  <ROCS_ShapeTanimoto>  (1279) 
0.2

>  <ROCS_ColorTanimoto>  (1279) 
0.101

$$$$
Z57161640
     RDKit          3D

 20 22  0  0  0  0  0  0  0  0999 V2000
   32.0954   14.4370    9.2879 O   0  0  0  0  0  0  0  0  0  0  0  0
   30.9405   14.7849    9.5777 N   0  0  0  0  0  4  0  0  0  0  0  0
   30.7009   15.7893   10.2527 O   0  0  0  0  0  1  0  0  0  0  0  0
   29.9253   14.3763    8.6153 C   0  0  0  0  0  0  0  0  0  0  0  0
   28.5662   14.9088    8.7791 C   0  0  0  0  0  0  0  0  0  0  0  0
   27.5490   14.5266    7.8053 C   0  0  0  0  0  0  0  0  0  0  0  0
   27.8229   13.5851    6.6480 C   0  0  0  0  0  0  0  0  0  0  0  0
   29.1570   13.1718    6.6393 C   0  0  0  0  0  0  0  0  0  0  0  0
   30.1617   13.5350    7.5454 C   0  0  0  0  0  0  0  0  0  0  0  0
   31.4342   13.0120    7.2997 O   0  0  0  0  0  0  0  0  0  0  0  0
   31.5998   11.6567    7.2272 C   0  0  0  0  0  0  0  0  0  0  0  0
   30.7472   10.8303    7.8504 N   0  0  0  0  0  0  0  0  0  0  0  0
   31.0395    9.5420    7.7009 C   0  0  0  0  0  0  0  0  0  0  0  0
   32.0853    9.0570    6.9851 N   0  0  0  0  0  0  0  0  0  0  0  0
   32.8926    9.9314    6.3801 C   0  0  0  0  0  0  0  0  0  0  0  0
   34.0717    9.4159    5.5647 C   0  0  0  0  0  0  0  0  0  0  0  0
   35.0305   10.3821    4.8685 C   0  0  0  0  0  0  0  0  0  0  0  0
   34.7453   11.8653    5.0296 C   0  0  0  0  0  0  0  0  0  0  0  0
   33.5283   12.2738    5.8643 C   0  0  0  0  0  0  0  0  0  0  0  0
   32.6916   11.3060    6.4766 C   0  0  0  0  0  0  0  0  0  0  0  0
  1  2  2  0
  2  3  1  0
  2  4  1  0
  4  5  2  0
  5  6  1  0
  6  7  2  0
  7  8  1  0
  8  9  2  0
  9 10  1  0
 10 11  1  0
 11 12  2  0
 12 13  1  0
 13 14  2  0
 14 15  1  0
 15 16  2  0
 16 17  1  0
 17 18  2  0
 18 19  1  0
 19 20  2  0
  9  4  1  0
 20 11  1  0
 20 15  1  0
M  CHG  2   2   1   3  -1
A    1
 O1 
A    2
 N1 
A    3
 O2 
A    4
 C1 
A    5
 C2 
A    6
 C3 
A    7
 C4 
A    8
 C5 
A    9
 C6 
A   10
 O3 
A   11
 C7 
A   12
 N2 
A   13
 C8 
A   14
 N3 
A   15
 C9 
A   16
 C10
A   17
 C11
A   18
 C12
A   19
 C13
A   20
 C14
M  END
>  <ref_pdb>  (1280) 
Ax0310a

>  <ref_mols>  (1280) 
Ax0446a,Ax1080a,Ax0812a,Ax0719a,Ax1140a,Ax0528a,Ax0310a

>  <original SMILES>  (1280) 
O=[N+]([O-])c1ccccc1Oc1ncnc2ccccc12

>  <rationale>  (1280) 
info info set:screening_whole;hydroph_interaction:P107+Y89+Y90; 

>  <experiment>  (1280) 
screening_whole

>  <cluster_label>  (1280) 
3

>  <cluster_rank>  (1280) 
937

>  <N_interactions>  (1280) 
3

>  <∆∆G>  (1280) 
-5.907167

>  <comRMSD>  (1280) 
0.51882

>  <ROCS_TanimotoCombo>  (1280) 
0.454

>  <ROCS_ShapeTanimoto>  (1280) 
0.25

>  <ROCS_ColorTanimoto>  (1280) 
0.204

$$$$
EN300_2963191
     RDKit          3D

 11 11  0  0  0  0  0  0  0  0999 V2000
   35.1357    9.4985    4.5027 C   0  0  0  0  0  0  0  0  0  0  0  0
   34.0157    8.8347    5.1197 N   0  0  0  0  0  0  0  0  0  0  0  0
   33.1520    9.6294    5.9144 C   0  0  0  0  0  0  0  0  0  0  0  0
   33.3879   11.1268    5.8969 C   0  0  0  0  0  0  0  0  0  0  0  0
   32.4439   11.9735    6.7184 C   0  0  0  0  0  0  0  0  0  0  0  0
   31.2671   11.4119    7.5542 C   0  0  0  0  0  0  0  0  0  0  0  0
   30.3486   12.1290    8.3226 N   0  0  0  0  0  0  0  0  0  0  0  0
   31.3393    9.9003    7.3385 C   0  0  0  0  0  0  0  0  0  0  0  0
   30.2991    9.3134    8.0195 O   0  0  0  0  0  0  0  0  0  0  0  0
   30.5978    8.5050    9.1015 C   0  0  0  0  0  0  0  0  0  0  0  0
   32.1720    9.1066    6.6264 N   0  0  0  0  0  0  0  0  0  0  0  0
  1  2  1  0
  2  3  1  0
  3  4  2  0
  4  5  1  0
  5  6  2  0
  6  7  1  0
  6  8  1  0
  8  9  1  0
  9 10  1  0
  8 11  2  0
 11  3  1  0
A    1
 C1 
A    2
 N1 
A    3
 C2 
A    4
 C3 
A    5
 C4 
A    6
 C5 
A    7
 N2 
A    8
 C6 
A    9
 O1 
A   10
 C7 
A   11
 N3 
M  END
>  <ref_pdb>  (1281) 
Ax0310a

>  <ref_mols>  (1281) 
Ax0446a,Ax1080a,Ax0812a,Ax0719a,Ax1140a,Ax0528a,Ax0310a

>  <original SMILES>  (1281) 
CNc1ccc(N)c(OC)n1

>  <rationale>  (1281) 
info info set:bb_densepocket2;hbond:S105+S125; 

>  <experiment>  (1281) 
bb_densepocket2

>  <cluster_label>  (1281) 
3

>  <cluster_rank>  (1281) 
938

>  <N_interactions>  (1281) 
2

>  <∆∆G>  (1281) 
-4.657487

>  <comRMSD>  (1281) 
0.66815

>  <ROCS_TanimotoCombo>  (1281) 
0.616

>  <ROCS_ShapeTanimoto>  (1281) 
0.223

>  <ROCS_ColorTanimoto>  (1281) 
0.392

$$$$
Z1509535407
     RDKit          3D

 15 16  0  0  0  0  0  0  0  0999 V2000
   31.1435   14.3550    9.9130 O   0  0  0  0  0  0  0  0  0  0  0  0
   31.3660   13.8802    8.8119 C   0  0  0  0  0  0  0  0  0  0  0  0
   32.6079   13.9910    8.3194 O   0  0  0  0  0  0  0  0  0  0  0  0
   30.3489   13.1431    7.8897 C   0  0  0  0  0  0  0  0  0  0  0  0
   31.1772   11.8809    7.4073 C   0  0  0  0  0  0  0  0  0  0  0  0
   32.3425   12.0852    6.4279 C   0  0  0  0  0  0  0  0  0  0  0  0
   32.6576   13.3109    6.0140 F   0  0  0  0  0  0  0  0  0  0  0  0
   33.1562   10.9172    5.9087 C   0  0  0  0  0  0  0  0  0  0  0  0
   32.6409    9.5066    6.5067 C   0  0  0  0  0  0  0  0  0  0  0  0
   31.5800    9.4458    7.4003 C   0  0  0  0  0  0  0  0  0  0  0  0
   30.8500   10.4912    7.8769 C   0  0  0  0  0  0  0  0  0  0  0  0
   29.8938   10.2201    8.7268 F   0  0  0  0  0  0  0  0  0  0  0  0
   29.0011   12.8850    8.6706 C   0  0  0  0  0  0  0  0  0  0  0  0
   28.4147   13.3924    7.4311 C   0  0  0  0  0  0  0  0  0  0  0  0
   29.4955   13.9451    6.8738 C   0  0  0  0  0  0  0  0  0  0  0  0
  1  2  2  0
  2  3  1  0
  2  4  1  0
  4  5  1  0
  5  6  2  0
  6  7  1  0
  6  8  1  0
  8  9  2  0
  9 10  1  0
 10 11  2  0
 11 12  1  0
  4 13  1  0
 13 14  1  0
 14 15  1  0
 15  4  1  0
 11  5  1  0
A    1
 O1 
A    2
 C1 
A    3
 O2 
A    4
 C2 
A    5
 C3 
A    6
 C4 
A    7
 F1 
A    8
 C5 
A    9
 C6 
A   10
 C7 
A   11
 C8 
A   12
 F2 
A   13
 C9 
A   14
 C10
A   15
 C11
M  END
>  <ref_pdb>  (1282) 
Ax0310a

>  <ref_mols>  (1282) 
Ax0446a,Ax1080a,Ax0812a,Ax0719a,Ax1140a,Ax0528a,Ax0310a

>  <original SMILES>  (1282) 
O=C(O)C1(c2c(F)cccc2F)CCC1

>  <rationale>  (1282) 
info info set:3d;hbond:S87; 

>  <experiment>  (1282) 
3d

>  <cluster_label>  (1282) 
3

>  <cluster_rank>  (1282) 
939

>  <N_interactions>  (1282) 
1

>  <∆∆G>  (1282) 
-1.90851

>  <comRMSD>  (1282) 
0.731877

>  <ROCS_TanimotoCombo>  (1282) 
0.311

>  <ROCS_ShapeTanimoto>  (1282) 
0.212

>  <ROCS_ColorTanimoto>  (1282) 
0.099

$$$$
EN300_1295014
     RDKit          3D

 12 12  0  0  0  0  0  0  0  0999 V2000
   31.7060   13.0751    6.2617 C   0  0  0  0  0  0  0  0  0  0  0  0
   32.0729   11.6228    6.3449 C   0  0  0  0  0  0  0  0  0  0  0  0
   33.1564   11.2229    5.3583 C   0  0  0  0  0  0  0  0  0  0  0  0
   33.5063    9.7706    5.4589 C   0  0  0  0  0  0  0  0  0  0  0  0
   32.9473    8.9157    6.3024 N   0  0  0  0  0  0  0  0  0  0  0  0
   31.9961    9.3675    7.1313 C   0  0  0  0  0  0  0  0  0  0  0  0
   31.4708    8.4171    7.9619 O   0  0  0  0  0  0  0  0  0  0  0  0
   30.1501    8.7481    8.2956 C   0  0  0  0  0  0  0  0  0  0  0  0
   30.2721    9.0539    9.6382 C   0  0  0  0  0  0  0  0  0  0  0  0
   29.1951    7.6925    8.4661 C   0  0  0  0  0  0  0  0  0  0  0  0
   31.5088   10.7088    7.2133 C   0  0  0  0  0  0  0  0  0  0  0  0
   30.5599   11.1437    8.0557 N   0  0  0  0  0  0  0  0  0  0  0  0
  1  2  1  0
  2  3  2  0
  3  4  1  0
  4  5  2  0
  5  6  1  0
  6  7  1  0
  7  8  1  0
  8  9  1  0
  8 10  1  0
  6 11  2  0
 11 12  1  0
 11  2  1  0
A    1
 C1 
A    2
 C2 
A    3
 C3 
A    4
 C4 
A    5
 N1 
A    6
 C5 
A    7
 O1 
A    8
 C6 
A    9
 C7 
A   10
 C8 
A   11
 C9 
A   12
 N2 
M  END
>  <ref_pdb>  (1283) 
Ax0310a

>  <ref_mols>  (1283) 
Ax0446a,Ax1080a,Ax0812a,Ax0719a,Ax1140a,Ax0528a,Ax0310a

>  <original SMILES>  (1283) 
Cc1ccnc(OC(C)C)c1N

>  <rationale>  (1283) 
info info set:bb_densepocket2;hbond:S125; hydroph_interaction:P107+D109; 

>  <experiment>  (1283) 
bb_densepocket2

>  <cluster_label>  (1283) 
3

>  <cluster_rank>  (1283) 
940

>  <N_interactions>  (1283) 
3

>  <∆∆G>  (1283) 
-0.976898

>  <comRMSD>  (1283) 
0.678445

>  <ROCS_TanimotoCombo>  (1283) 
0.622

>  <ROCS_ShapeTanimoto>  (1283) 
0.209

>  <ROCS_ColorTanimoto>  (1283) 
0.413

$$$$
Z440604314
     RDKit          3D

 13 14  0  0  0  0  0  0  0  0999 V2000
   33.9112   10.3830    5.6035 C   0  0  0  0  0  0  0  0  0  0  0  0
   32.7796   10.1629    6.4727 N   0  0  0  0  0  0  0  0  0  0  0  0
   32.0563   11.1771    7.0411 C   0  0  0  0  0  0  0  0  0  0  0  0
   30.9571   10.6286    7.8748 C   0  0  0  0  0  0  0  0  0  0  0  0
   30.0044   11.4520    8.6123 N   0  0  0  0  0  0  0  0  0  0  0  0
   29.7960   12.8919    8.5991 C   0  0  0  0  0  0  0  0  0  0  0  0
   30.2299   13.5501    7.2721 C   0  0  0  0  0  0  0  0  0  0  0  0
   29.1795   14.5970    7.8631 C   0  0  0  0  0  0  0  0  0  0  0  0
   29.7996   15.5881    8.7016 O   0  0  0  0  0  0  0  0  0  0  0  0
   30.4729   15.1662    9.6049 C   0  0  0  0  0  0  0  0  0  0  0  0
   30.9112   13.7578    9.3386 C   0  0  0  0  0  0  0  0  0  0  0  0
   31.1767    9.2394    7.6915 C   0  0  0  0  0  0  0  0  0  0  0  0
   32.2752    8.9578    6.8427 N   0  0  0  0  0  0  0  0  0  0  0  0
  1  2  1  0
  2  3  1  0
  3  4  2  0
  4  5  1  0
  5  6  1  0
  6  7  1  0
  7  8  1  0
  8  9  1  0
  9 10  1  0
 10 11  1  0
  4 12  1  0
 12 13  2  0
 13  2  1  0
 11  6  1  0
A    1
 C1 
A    2
 N1 
A    3
 C2 
A    4
 C3 
A    5
 N2 
A    6
 C4 
A    7
 C5 
A    8
 C6 
A    9
 O1 
A   10
 C7 
A   11
 C8 
A   12
 C9 
A   13
 N3 
M  END
>  <ref_pdb>  (1284) 
Ax0310a

>  <ref_mols>  (1284) 
Ax0446a,Ax1080a,Ax0812a,Ax0719a,Ax1140a,Ax0528a,Ax0310a

>  <original SMILES>  (1284) 
Cn1cc(NC2CCOCC2)cn1

>  <rationale>  (1284) 
info info set:3d;hbond:S87+S125; 

>  <experiment>  (1284) 
3d

>  <cluster_label>  (1284) 
3

>  <cluster_rank>  (1284) 
941

>  <N_interactions>  (1284) 
2

>  <∆∆G>  (1284) 
-2.103208

>  <comRMSD>  (1284) 
0.940524

>  <ROCS_TanimotoCombo>  (1284) 
0.308

>  <ROCS_ShapeTanimoto>  (1284) 
0.174

>  <ROCS_ColorTanimoto>  (1284) 
0.134

$$$$
Z786223372
     RDKit          3D

 22 25  0  0  0  0  0  0  0  0999 V2000
   30.0724   10.6908    8.8973 O   0  0  0  0  0  0  0  0  0  0  0  0
   30.6003   11.3192    8.0424 C   0  0  0  0  0  0  0  0  0  0  0  0
   31.6427   10.6765    7.2190 C   0  0  0  0  0  0  0  0  0  0  0  0
   32.4510   11.6517    6.4423 C   0  0  0  0  0  0  0  0  0  0  0  0
   33.5436   11.0669    5.5594 C   0  0  0  0  0  0  0  0  0  0  0  0
   33.5575    9.5390    5.6856 C   0  0  0  0  0  0  0  0  0  0  0  0
   34.4526    8.8132    4.9822 N   0  0  0  0  0  0  0  0  0  0  0  0
   34.9221    9.2397    3.6924 C   0  0  0  0  0  0  0  0  0  0  0  0
   35.8928   10.2473    3.7371 C   0  0  0  0  0  0  0  0  0  0  0  0
   36.3248    8.8116    3.1604 C   0  0  0  0  0  0  0  0  0  0  0  0
   32.7549    8.7760    6.4430 N   0  0  0  0  0  0  0  0  0  0  0  0
   31.8228    9.3382    7.1889 C   0  0  0  0  0  0  0  0  0  0  0  0
   30.2847   12.6250    7.7065 N   0  0  0  0  0  0  0  0  0  0  0  0
   30.0872   13.5978    8.7626 C   0  0  0  0  0  0  0  0  0  0  0  0
   28.6012   13.7978    8.8507 C   0  0  0  0  0  0  0  0  0  0  0  0
   28.1247   14.1326    7.5886 C   0  0  0  0  0  0  0  0  0  0  0  0
   28.2731   13.2403    6.5546 C   0  0  0  0  0  0  0  0  0  0  0  0
   29.6292   12.9337    6.4290 C   0  0  0  0  0  0  0  0  0  0  0  0
   26.8483   14.6294    7.7987 O   0  0  0  0  0  0  0  0  0  0  0  0
   27.3059   15.4300    8.8936 C   0  0  0  0  0  0  0  0  0  0  0  0
   28.5521   15.9697    8.4359 C   0  0  0  0  0  0  0  0  0  0  0  0
   28.7991   15.3073    7.2309 O   0  0  0  0  0  0  0  0  0  0  0  0
  1  2  2  0
  2  3  1  0
  3  4  2  0
  4  5  1  0
  5  6  2  0
  6  7  1  0
  7  8  1  0
  8  9  1  0
  9 10  1  0
  6 11  1  0
 11 12  2  0
  2 13  1  0
 13 14  1  0
 14 15  1  0
 15 16  1  0
 16 17  1  0
 17 18  1  0
 16 19  1  0
 19 20  1  0
 20 21  1  0
 21 22  1  0
 12  3  1  0
 18 13  1  0
 10  8  1  0
 22 16  1  0
A    1
 O1 
A    2
 C1 
A    3
 C2 
A    4
 C3 
A    5
 C4 
A    6
 C5 
A    7
 N1 
A    8
 C6 
A    9
 C7 
A   10
 C8 
A   11
 N2 
A   12
 C9 
A   13
 N3 
A   14
 C10
A   15
 C11
A   16
 C12
A   17
 C13
A   18
 C14
A   19
 O2 
A   20
 C15
A   21
 C16
A   22
 O3 
M  END
>  <ref_pdb>  (1285) 
Ax0310a

>  <ref_mols>  (1285) 
Ax0446a,Ax1080a,Ax0812a,Ax0719a,Ax1140a,Ax0528a,Ax0310a

>  <original SMILES>  (1285) 
O=C(c1ccc(NC2CC2)nc1)N1CCC2(CC1)OCCO2

>  <rationale>  (1285) 
info info set:screening_pocket;hbond:S105; hydroph_interaction:P107; 

>  <experiment>  (1285) 
screening_pocket

>  <cluster_label>  (1285) 
3

>  <cluster_rank>  (1285) 
942

>  <N_interactions>  (1285) 
2

>  <∆∆G>  (1285) 
-1.746058

>  <comRMSD>  (1285) 
0.797573

>  <ROCS_TanimotoCombo>  (1285) 
0.634

>  <ROCS_ShapeTanimoto>  (1285) 
0.251

>  <ROCS_ColorTanimoto>  (1285) 
0.383

$$$$
Z401602462
     RDKit          3D

 13 13  0  0  0  0  0  0  0  0999 V2000
   34.9379   11.9957    5.5514 C   0  0  0  0  0  0  0  0  0  0  0  0
   34.2152   10.6944    5.3196 C   0  0  0  0  0  0  0  0  0  0  0  0
   33.7856   10.5377    3.8696 C   0  0  0  0  0  0  0  0  0  0  0  0
   33.0672   10.6008    6.1966 C   0  0  0  0  0  0  0  0  0  0  0  0
   32.4978    9.4381    6.7695 C   0  0  0  0  0  0  0  0  0  0  0  0
   31.3641    9.3836    7.6714 C   0  0  0  0  0  0  0  0  0  0  0  0
   30.6037   10.5848    8.1359 C   0  0  0  0  0  0  0  0  0  0  0  0
   31.1063   11.8949    7.5741 C   0  0  0  0  0  0  0  0  0  0  0  0
   30.3503   13.4366    7.9563 S   0  0  0  0  0  6  0  0  0  0  0  0
   29.0074   13.1603    8.9048 N   0  0  0  0  0  0  0  0  0  0  0  0
   29.7726   13.9071    6.7220 O   0  0  0  0  0  0  0  0  0  0  0  0
   31.2558   14.2352    8.7661 O   0  0  0  0  0  0  0  0  0  0  0  0
   32.3120   11.8898    6.6316 C   0  0  0  0  0  0  0  0  0  0  0  0
  1  2  1  0
  2  3  1  0
  2  4  1  0
  4  5  2  0
  5  6  1  0
  6  7  2  0
  7  8  1  0
  8  9  1  0
  9 10  1  0
  9 11  2  0
  9 12  2  0
  8 13  2  0
 13  4  1  0
A    1
 C1 
A    2
 C2 
A    3
 C3 
A    4
 C4 
A    5
 C5 
A    6
 C6 
A    7
 C7 
A    8
 C8 
A    9
 S1 
A   10
 N1 
A   11
 O1 
A   12
 O2 
A   13
 C9 
M  END
>  <ref_pdb>  (1286) 
Ax0310a

>  <ref_mols>  (1286) 
Ax0446a,Ax1080a,Ax0812a,Ax0719a,Ax1140a,Ax0528a,Ax0310a

>  <original SMILES>  (1286) 
CC(C)c1cccc(S(N)(=O)=O)c1

>  <rationale>  (1286) 
info info set:3d;hbond:S87+S125; hydroph_interaction:P107; 

>  <experiment>  (1286) 
3d

>  <cluster_label>  (1286) 
3

>  <cluster_rank>  (1286) 
943

>  <N_interactions>  (1286) 
3

>  <∆∆G>  (1286) 
-6.515442

>  <comRMSD>  (1286) 
0.625337

>  <ROCS_TanimotoCombo>  (1286) 
0.294

>  <ROCS_ShapeTanimoto>  (1286) 
0.18

>  <ROCS_ColorTanimoto>  (1286) 
0.113

$$$$
Z3799778374
     RDKit          3D

 27 31  0  0  0  0  0  0  0  0999 V2000
   36.3100   12.3965   10.5546 C   0  0  0  0  0  0  0  0  0  0  0  0
   35.1292   12.4542    9.7336 O   0  0  0  0  0  0  0  0  0  0  0  0
   34.7793   13.7115    9.1914 C   0  0  0  0  0  0  0  0  0  0  0  0
   33.3236   14.0280    9.2453 C   0  0  0  0  0  0  0  0  0  0  0  0
   32.6988   14.8972    9.9966 N   0  0  0  0  0  0  0  0  0  0  0  0
   31.3717   14.8420    9.6317 N   0  0  0  0  0  0  0  0  0  0  0  0
   31.2503   13.9382    8.6757 C   0  0  0  0  0  0  0  0  0  0  0  0
   29.8911   13.5749    7.9313 C   0  0  2  0  0  0  0  0  0  0  0  0
   29.9027   13.3856    6.3969 C   0  0  0  0  0  0  0  0  0  0  0  0
   28.7243   14.3636    6.2673 C   0  0  0  0  0  0  0  0  0  0  0  0
   28.8857   14.7694    7.7572 C   0  0  1  0  0  0  0  0  0  0  0  0
   27.7876   14.4848    8.7348 C   0  0  0  0  0  0  0  0  0  0  0  0
   27.7933   12.9825    8.8754 C   0  0  0  0  0  0  0  0  0  0  0  0
   29.1110   12.5126    8.5558 N   0  0  0  0  0  0  0  0  0  0  0  0
   29.4373   11.1955    8.3649 C   0  0  0  0  0  0  0  0  0  0  0  0
   28.6939   10.3025    8.7633 O   0  0  0  0  0  0  0  0  0  0  0  0
   30.6716   10.7755    7.6720 C   0  0  0  0  0  0  0  0  0  0  0  0
   31.0100    9.4500    7.7824 C   0  0  0  0  0  0  0  0  0  0  0  0
   32.1269    9.0245    7.1126 C   0  0  0  0  0  0  0  0  0  0  0  0
   32.8778    9.9346    6.3571 C   0  0  0  0  0  0  0  0  0  0  0  0
   34.0174    9.5813    5.6435 C   0  0  0  0  0  0  0  0  0  0  0  0
   34.7514   10.4434    4.9210 N   0  0  0  0  0  0  0  0  0  0  0  0
   34.3301   11.7218    4.9131 C   0  0  0  0  0  0  0  0  0  0  0  0
   33.2098   12.1650    5.5845 C   0  0  0  0  0  0  0  0  0  0  0  0
   32.4674   11.2653    6.3165 C   0  0  0  0  0  0  0  0  0  0  0  0
   31.3831   11.6794    6.9608 N   0  0  0  0  0  0  0  0  0  0  0  0
   32.4720   13.3595    8.3913 O   0  0  0  0  0  0  0  0  0  0  0  0
  1  2  1  0
  2  3  1  0
  3  4  1  0
  4  5  2  0
  5  6  1  0
  6  7  2  0
  8  7  1  1
  8  9  1  0
  9 10  1  0
 11 10  1  6
 11 12  1  0
 12 13  1  0
 13 14  1  0
 14 15  1  0
 15 16  2  0
 15 17  1  0
 17 18  2  0
 18 19  1  0
 19 20  2  0
 20 21  1  0
 21 22  2  0
 22 23  1  0
 23 24  2  0
 24 25  1  0
 25 26  2  0
  7 27  1  0
 27  4  1  0
 11  8  1  0
 26 17  1  0
 14  8  1  0
 25 20  1  0
A    1
 C1 
A    2
 O1 
A    3
 C2 
A    4
 C3 
A    5
 N1 
A    6
 N2 
A    7
 C4 
A    8
 C5 
A    9
 C6 
A   10
 C7 
A   11
 C8 
A   12
 C9 
A   13
 C10
A   14
 N3 
A   15
 C11
A   16
 O2 
A   17
 C12
A   18
 C13
A   19
 C14
A   20
 C15
A   21
 C16
A   22
 N4 
A   23
 C17
A   24
 C18
A   25
 C19
A   26
 N5 
A   27
 O3 
M  END
>  <ref_pdb>  (1287) 
Ax0310a

>  <ref_mols>  (1287) 
Ax0446a,Ax1080a,Ax0812a,Ax0719a,Ax1140a,Ax0528a,Ax0310a

>  <original SMILES>  (1287) 
COCc1nnc([C@]23CC[C@H]2CCN3C(=O)c2ccc3cnccc3n2)o1

>  <rationale>  (1287) 
info info set:screening_whole;hbond:S87+G127; 

>  <experiment>  (1287) 
screening_whole

>  <cluster_label>  (1287) 
3

>  <cluster_rank>  (1287) 
944

>  <N_interactions>  (1287) 
2

>  <∆∆G>  (1287) 
-4.091367

>  <comRMSD>  (1287) 
0.782507

>  <ROCS_TanimotoCombo>  (1287) 
0.46

>  <ROCS_ShapeTanimoto>  (1287) 
0.277

>  <ROCS_ColorTanimoto>  (1287) 
0.184

$$$$
EN300_7541797
     RDKit          3D

 14 14  0  0  0  0  0  0  0  0999 V2000
   29.1276   12.9579    8.7433 N   0  0  0  0  0  0  0  0  0  0  0  0
   30.5000   13.2517    7.8421 S   0  0  0  0  0  6  0  0  0  0  0  0
   31.3906   14.0281    8.6767 O   0  0  0  0  0  0  0  0  0  0  0  0
   29.9261   13.7455    6.6185 O   0  0  0  0  0  0  0  0  0  0  0  0
   31.2184   11.6667    7.4615 C   0  0  0  0  0  0  0  0  0  0  0  0
   30.7081   10.4877    8.1902 C   0  0  0  0  0  0  0  0  0  0  0  0
   31.2503    9.2384    7.9023 C   0  0  0  0  0  0  0  0  0  0  0  0
   32.2207    9.1739    6.9614 N   0  0  0  0  0  0  0  0  0  0  0  0
   32.6980   10.2747    6.2799 C   0  0  0  0  0  0  0  0  0  0  0  0
   33.7780   10.1621    5.2236 C   0  0  0  0  0  0  0  0  0  0  0  0
   35.0518   10.3171    5.5110 F   0  0  0  0  0  0  0  0  0  0  0  0
   33.7760    8.9794    4.5726 F   0  0  0  0  0  0  0  0  0  0  0  0
   33.5895   11.0930    4.2505 F   0  0  0  0  0  0  0  0  0  0  0  0
   32.2087   11.5418    6.5181 C   0  0  0  0  0  0  0  0  0  0  0  0
  1  2  1  0
  2  3  2  0
  2  4  2  0
  2  5  1  0
  5  6  2  0
  6  7  1  0
  7  8  2  0
  8  9  1  0
  9 10  1  0
 10 11  1  0
 10 12  1  0
 10 13  1  0
  9 14  2  0
 14  5  1  0
A    1
 N1 
A    2
 S1 
A    3
 O1 
A    4
 O2 
A    5
 C1 
A    6
 C2 
A    7
 C3 
A    8
 N2 
A    9
 C4 
A   10
 C5 
A   11
 F1 
A   12
 F2 
A   13
 F3 
A   14
 C6 
M  END
>  <ref_pdb>  (1288) 
Ax0310a

>  <ref_mols>  (1288) 
Ax0446a,Ax1080a,Ax0812a,Ax0719a,Ax1140a,Ax0528a,Ax0310a

>  <original SMILES>  (1288) 
NS(=O)(=O)c1ccnc(C(F)(F)F)c1

>  <rationale>  (1288) 
info info set:sulfonimide_whole;hbond:S87+S125; hydroph_interaction:P107; 

>  <experiment>  (1288) 
sulfonimide_whole

>  <cluster_label>  (1288) 
3

>  <cluster_rank>  (1288) 
945

>  <N_interactions>  (1288) 
3

>  <∆∆G>  (1288) 
-3.614669

>  <comRMSD>  (1288) 
0.572751

>  <ROCS_TanimotoCombo>  (1288) 
0.328

>  <ROCS_ShapeTanimoto>  (1288) 
0.192

>  <ROCS_ColorTanimoto>  (1288) 
0.136

$$$$
Z32015067
     RDKit          3D

 13 13  0  0  0  0  0  0  0  0999 V2000
   28.8376   15.5117    8.0843 C   0  0  0  0  0  0  0  0  0  0  0  0
   29.2690   14.2073    7.6356 N   0  0  0  0  0  0  0  0  0  0  0  0
   28.1554   13.3963    7.1075 C   0  0  0  0  0  0  0  0  0  0  0  0
   30.3443   13.5079    8.2032 C   0  0  0  0  0  0  0  0  0  0  0  0
   31.3343   14.0216    8.7313 O   0  0  0  0  0  0  0  0  0  0  0  0
   30.2444   12.1164    8.1411 C   0  0  0  0  0  0  0  0  0  0  0  0
   31.1870   11.4024    7.4341 C   0  0  0  0  0  0  0  0  0  0  0  0
   32.0422   12.0611    6.5401 C   0  0  0  0  0  0  0  0  0  0  0  0
   33.0688   11.1777    5.7702 C   0  0  0  0  0  0  0  0  0  0  0  0
   33.0923    9.6750    6.0158 C   0  0  0  0  0  0  0  0  0  0  0  0
   32.2098    9.1485    6.9186 C   0  0  0  0  0  0  0  0  0  0  0  0
   31.2397   10.0147    7.6528 C   0  0  0  0  0  0  0  0  0  0  0  0
   30.2417    9.1531    8.7485 Cl  0  0  0  0  0  0  0  0  0  0  0  0
  1  2  1  0
  2  3  1  0
  2  4  1  0
  4  5  2  0
  4  6  1  0
  6  7  1  0
  7  8  2  0
  8  9  1  0
  9 10  2  0
 10 11  1  0
 11 12  2  0
 12 13  1  0
 12  7  1  0
A    1
 C1 
A    2
 N1 
A    3
 C2 
A    4
 C3 
A    5
 O1 
A    6
 C4 
A    7
 C5 
A    8
 C6 
A    9
 C7 
A   10
 C8 
A   11
 C9 
A   12
 C10
A   13
CL1 
M  END
>  <ref_pdb>  (1289) 
Ax0310a

>  <ref_mols>  (1289) 
Ax0446a,Ax1080a,Ax0812a,Ax0719a,Ax1140a,Ax0528a,Ax0310a

>  <original SMILES>  (1289) 
CN(C)C(=O)Cc1ccccc1Cl

>  <rationale>  (1289) 
info info set:3d;hbond:S87; hydroph_interaction:P107; 

>  <experiment>  (1289) 
3d

>  <cluster_label>  (1289) 
3

>  <cluster_rank>  (1289) 
946

>  <N_interactions>  (1289) 
2

>  <∆∆G>  (1289) 
-9.218982

>  <comRMSD>  (1289) 
0.761485

>  <ROCS_TanimotoCombo>  (1289) 
0.282

>  <ROCS_ShapeTanimoto>  (1289) 
0.187

>  <ROCS_ColorTanimoto>  (1289) 
0.095

$$$$
EN300_6526635
     RDKit          3D

 13 14  0  0  0  0  0  0  0  0999 V2000
   30.4556   13.1665    8.9139 N   0  0  0  0  0  0  0  0  0  0  0  0
   30.0458   12.3685    7.5095 S   0  0  0  0  0  6  0  0  0  0  0  0
   28.7182   11.8261    7.6328 O   0  0  0  0  0  0  0  0  0  0  0  0
   30.2856   13.3232    6.4511 O   0  0  0  0  0  0  0  0  0  0  0  0
   31.1033   11.0364    7.2018 C   0  0  0  0  0  0  0  0  0  0  0  0
   31.0688    9.5738    7.6089 C   0  0  0  0  0  0  0  0  0  0  0  0
   32.1250    8.9119    7.0532 N   0  0  0  0  0  0  0  0  0  0  0  0
   32.7852    9.8926    6.3495 N   0  0  0  0  0  0  0  0  0  0  0  0
   32.2349   11.1251    6.4471 C   0  0  0  0  0  0  0  0  0  0  0  0
   32.9399   12.2372    5.7357 C   0  0  0  0  0  0  0  0  0  0  0  0
   34.3730   11.9693    5.8416 N   0  0  0  0  0  0  0  0  0  0  0  0
   34.7123   10.7313    5.1173 C   0  0  0  0  0  0  0  0  0  0  0  0
   33.9691    9.5947    5.5524 C   0  0  0  0  0  0  0  0  0  0  0  0
  1  2  1  0
  2  3  2  0
  2  4  2  0
  2  5  1  0
  5  6  1  0
  6  7  2  0
  7  8  1  0
  8  9  1  0
  9 10  1  0
 10 11  1  0
 11 12  1  0
 12 13  1  0
  9  5  2  0
 13  8  1  0
A    1
 N1 
A    2
 S1 
A    3
 O1 
A    4
 O2 
A    5
 C1 
A    6
 C2 
A    7
 N2 
A    8
 N3 
A    9
 C3 
A   10
 C4 
A   11
 N4 
A   12
 C5 
A   13
 C6 
M  END
>  <ref_pdb>  (1290) 
Ax0310a

>  <ref_mols>  (1290) 
Ax0446a,Ax1080a,Ax0812a,Ax0719a,Ax1140a,Ax0528a,Ax0310a

>  <original SMILES>  (1290) 
NS(=O)(=O)c1cnn2c1CNCC2

>  <rationale>  (1290) 
info info set:sulfonimide_whole;hbond:S125+G127; 

>  <experiment>  (1290) 
sulfonimide_whole

>  <cluster_label>  (1290) 
3

>  <cluster_rank>  (1290) 
947

>  <N_interactions>  (1290) 
2

>  <∆∆G>  (1290) 
-4.49235

>  <comRMSD>  (1290) 
0.684776

>  <ROCS_TanimotoCombo>  (1290) 
0.33

>  <ROCS_ShapeTanimoto>  (1290) 
0.196

>  <ROCS_ColorTanimoto>  (1290) 
0.134

$$$$
EN300_744841
     RDKit          3D

 16 17  0  0  0  0  0  0  0  0999 V2000
   31.0441    7.9910    7.9928 C   0  0  0  0  0  0  0  0  0  0  0  0
   30.1383    9.0114    8.3722 C   0  0  0  0  0  0  0  0  0  0  0  0
   28.7070    8.9443    8.3679 C   0  0  0  0  0  0  0  0  0  0  0  0
   30.2284    8.9286    9.7293 C   0  0  0  0  0  0  0  0  0  0  0  0
   30.7867   10.3258    8.0351 C   0  0  0  0  0  0  0  0  0  0  0  0
   30.4373   11.5283    8.6706 O   0  0  0  0  0  0  0  0  0  0  0  0
   31.8203   10.2862    6.9790 C   0  0  0  0  0  0  0  0  0  0  0  0
   31.9099   11.4108    6.0357 C   0  0  0  0  0  0  0  0  0  0  0  0
   33.0225   10.8825    5.1742 C   0  0  0  0  0  0  0  0  0  0  0  0
   33.5242   11.5477    4.0564 C   0  0  0  0  0  0  0  0  0  0  0  0
   32.8619   13.0540    3.6074 Cl  0  0  0  0  0  0  0  0  0  0  0  0
   34.6734   10.8166    3.3059 C   0  0  0  0  0  0  0  0  0  0  0  0
   35.0796    9.4636    3.9472 C   0  0  0  0  0  0  0  0  0  0  0  0
   34.4628    8.9644    5.0737 C   0  0  0  0  0  0  0  0  0  0  0  0
   33.4419    9.6627    5.6659 C   0  0  0  0  0  0  0  0  0  0  0  0
   32.7261    9.2772    6.7664 O   0  0  0  0  0  0  0  0  0  0  0  0
  1  2  1  0
  2  3  1  0
  2  4  1  0
  2  5  1  0
  5  6  2  0
  5  7  1  0
  7  8  2  0
  8  9  1  0
  9 10  2  0
 10 11  1  0
 10 12  1  0
 12 13  2  0
 13 14  1  0
 14 15  2  0
 15 16  1  0
 16  7  1  0
 15  9  1  0
A    1
 C1 
A    2
 C2 
A    3
 C3 
A    4
 C4 
A    5
 C5 
A    6
 O1 
A    7
 C6 
A    8
 C7 
A    9
 C8 
A   10
 C9 
A   11
CL1 
A   12
 C10
A   13
 C11
A   14
 C12
A   15
 C13
A   16
 O2 
M  END
>  <ref_pdb>  (1291) 
Ax0310a

>  <ref_mols>  (1291) 
Ax0446a,Ax1080a,Ax0812a,Ax0719a,Ax1140a,Ax0528a,Ax0310a

>  <original SMILES>  (1291) 
CC(C)(C)C(=O)c1cc2c(Cl)cccc2o1

>  <rationale>  (1291) 
info info set:bb_densepocket2;hbond:S125; hydroph_interaction:P107; 

>  <experiment>  (1291) 
bb_densepocket2

>  <cluster_label>  (1291) 
3

>  <cluster_rank>  (1291) 
948

>  <N_interactions>  (1291) 
2

>  <∆∆G>  (1291) 
-4.010507

>  <comRMSD>  (1291) 
0.818892

>  <ROCS_TanimotoCombo>  (1291) 
0.607

>  <ROCS_ShapeTanimoto>  (1291) 
0.219

>  <ROCS_ColorTanimoto>  (1291) 
0.388

$$$$
Z8645208818
     RDKit          3D

 23 26  0  0  0  0  0  0  0  0999 V2000
   28.5205   10.6579    8.3293 C   0  0  0  0  0  0  0  0  0  0  0  0
   28.7312    9.1562    8.5422 C   0  0  0  0  0  0  0  0  0  0  0  0
   29.5873    8.5323    7.6864 O   0  0  0  0  0  0  0  0  0  0  0  0
   30.7325    8.5238    8.2482 C   0  0  0  0  0  0  0  0  0  0  0  0
   31.0394    7.7934    9.1538 O   0  0  0  0  0  0  0  0  0  0  0  0
   31.5234    9.6108    7.6270 C   0  0  0  0  0  0  0  0  0  0  0  0
   31.1147   10.7367    8.0383 N   0  0  0  0  0  0  0  0  0  0  0  0
   31.7270   11.8497    7.6197 C   0  0  0  0  0  0  0  0  0  0  0  0
   31.1725   13.0192    8.1373 N   0  0  0  0  0  0  0  0  0  0  0  0
   31.8495   13.8904    8.9166 N   0  0  0  0  0  0  0  0  0  0  0  0
   30.9866   14.8756    9.2284 N   0  0  0  0  0  0  0  0  0  0  0  0
   29.7709   14.6183    8.6296 C   0  0  0  0  0  0  0  0  0  0  0  0
   28.5111   15.4868    8.7054 C   0  0  0  0  0  0  0  0  0  0  0  0
   27.3873   14.7653    7.8896 C   0  0  0  0  0  0  0  0  0  0  0  0
   27.5490   13.4848    7.1603 C   0  0  0  0  0  0  0  0  0  0  0  0
   28.8828   12.8182    7.2065 C   0  0  0  0  0  0  0  0  0  0  0  0
   29.8835   13.4211    7.9310 C   0  0  0  0  0  0  0  0  0  0  0  0
   32.8918   11.6816    6.6707 C   0  0  0  0  0  0  0  0  0  0  0  0
   33.9594   12.8003    5.9145 S   0  0  0  0  0  0  0  0  0  0  0  0
   34.8269   11.5787    5.1070 C   0  0  0  0  0  0  0  0  0  0  0  0
   34.2688   10.2435    5.4274 C   0  0  0  0  0  0  0  0  0  0  0  0
   33.1815   10.3657    6.3187 C   0  0  0  0  0  0  0  0  0  0  0  0
   32.5014    9.3184    6.7839 N   0  0  0  0  0  0  0  0  0  0  0  0
  1  2  1  0
  2  3  1  0
  3  4  1  0
  4  5  2  0
  4  6  1  0
  6  7  2  0
  7  8  1  0
  8  9  1  0
  9 10  1  0
 10 11  2  0
 11 12  1  0
 12 13  2  0
 13 14  1  0
 14 15  2  0
 15 16  1  0
 16 17  2  0
  8 18  2  0
 18 19  1  0
 19 20  1  0
 20 21  2  0
 21 22  1  0
 22 23  2  0
 23  6  1  0
 17  9  1  0
 22 18  1  0
 17 12  1  0
A    1
 C1 
A    2
 C2 
A    3
 O1 
A    4
 C3 
A    5
 O2 
A    6
 C4 
A    7
 N1 
A    8
 C5 
A    9
 N2 
A   10
 N3 
A   11
 N4 
A   12
 C6 
A   13
 C7 
A   14
 C8 
A   15
 C9 
A   16
 C10
A   17
 C11
A   18
 C12
A   19
 S1 
A   20
 C13
A   21
 C14
A   22
 C15
A   23
 N5 
M  END
>  <ref_pdb>  (1292) 
Ax0310a

>  <ref_mols>  (1292) 
Ax0446a,Ax1080a,Ax0812a,Ax0719a,Ax1140a,Ax0528a,Ax0310a

>  <original SMILES>  (1292) 
CCOC(=O)c1nc(-n2nnc3ccccc32)c2sccc2n1

>  <rationale>  (1292) 
info info set:screening_whole;hbond:S87+S105; hydroph_interaction:Y89+Y90; 

>  <experiment>  (1292) 
screening_whole

>  <cluster_label>  (1292) 
3

>  <cluster_rank>  (1292) 
949

>  <N_interactions>  (1292) 
4

>  <∆∆G>  (1292) 
-0.84898

>  <comRMSD>  (1292) 
0.903409

>  <ROCS_TanimotoCombo>  (1292) 
0.458

>  <ROCS_ShapeTanimoto>  (1292) 
0.266

>  <ROCS_ColorTanimoto>  (1292) 
0.191

$$$$
Z1999517695
     RDKit          3D

 15 17  0  0  0  0  0  0  0  0999 V2000
   32.1887   14.2944    9.1403 O   0  0  0  0  0  0  0  0  0  0  0  0
   31.9689   13.3658    8.3823 C   0  0  0  0  0  0  0  0  0  0  0  0
   30.6288   13.2352    7.7408 N   0  0  0  0  0  0  0  0  0  0  0  0
   30.2656   11.8549    7.8785 C   0  0  0  0  0  0  0  0  0  0  0  0
   28.8236   11.3255    8.3677 C   0  0  0  0  0  0  0  0  0  0  0  0
   28.9682    9.7566    8.4239 C   0  0  0  0  0  0  0  0  0  0  0  0
   29.9965    8.8375    8.1411 C   0  0  0  0  0  0  0  0  0  0  0  0
   29.6044    7.6017    8.3708 F   0  0  0  0  0  0  0  0  0  0  0  0
   31.2502    9.4172    7.6602 C   0  0  0  0  0  0  0  0  0  0  0  0
   31.3456   10.7839    7.5540 C   0  0  0  0  0  0  0  0  0  0  0  0
   32.5171   11.3899    7.1346 C   0  0  0  0  0  0  0  0  0  0  0  0
   33.3422   10.5693    6.2117 C   0  0  0  0  0  0  0  0  0  0  0  0
   34.0200   11.5980    5.5892 N   0  0  0  0  0  0  0  0  0  0  0  0
   32.7742   12.2246    5.7910 C   0  0  0  0  0  0  0  0  0  0  0  0
   32.9304   12.3990    8.1041 O   0  0  0  0  0  0  0  0  0  0  0  0
  1  2  2  0
  2  3  1  0
  3  4  1  0
  4  5  2  0
  5  6  1  0
  6  7  2  0
  7  8  1  0
  7  9  1  0
  9 10  2  0
 10 11  1  0
 11 12  1  0
 12 13  1  0
 13 14  1  0
 11 15  1  0
 15  2  1  0
 10  4  1  0
 14 11  1  0
A    1
 O1 
A    2
 C1 
A    3
 N1 
A    4
 C2 
A    5
 C3 
A    6
 C4 
A    7
 C5 
A    8
 F1 
A    9
 C6 
A   10
 C7 
A   11
 C8 
A   12
 C9 
A   13
 N2 
A   14
 C10
A   15
 O2 
M  END
>  <ref_pdb>  (1293) 
Ax0310a

>  <ref_mols>  (1293) 
Ax0446a,Ax1080a,Ax0812a,Ax0719a,Ax1140a,Ax0528a,Ax0310a

>  <original SMILES>  (1293) 
O=C1Nc2ccc(F)cc2C2(CNC2)O1

>  <rationale>  (1293) 
info info set:3d;hbond:S87; 

>  <experiment>  (1293) 
3d

>  <cluster_label>  (1293) 
3

>  <cluster_rank>  (1293) 
950

>  <N_interactions>  (1293) 
2

>  <∆∆G>  (1293) 
-0.992656

>  <comRMSD>  (1293) 
0.882211

>  <ROCS_TanimotoCombo>  (1293) 
0.294

>  <ROCS_ShapeTanimoto>  (1293) 
0.189

>  <ROCS_ColorTanimoto>  (1293) 
0.105

$$$$
EN300_6279544
     RDKit          3D

 12 12  0  0  0  0  0  0  0  0999 V2000
   29.9982   13.2561    6.7878 C   0  0  0  0  0  0  0  0  0  0  0  0
   30.8891   12.7714    7.7951 O   0  0  0  0  0  0  0  0  0  0  0  0
   31.2394   11.4793    7.6063 C   0  0  0  0  0  0  0  0  0  0  0  0
   30.4683   10.3976    7.9369 C   0  0  0  0  0  0  0  0  0  0  0  0
   30.9061    9.1153    7.6795 C   0  0  0  0  0  0  0  0  0  0  0  0
   32.0780    8.8609    7.0910 N   0  0  0  0  0  0  0  0  0  0  0  0
   32.8403    9.9482    6.7766 C   0  0  0  0  0  0  0  0  0  0  0  0
   32.4582   11.2504    7.0420 C   0  0  0  0  0  0  0  0  0  0  0  0
   33.4475   12.6425    6.7379 S   0  0  0  0  0  6  0  0  0  0  0  0
   34.8053   12.1149    5.9046 N   0  0  0  0  0  0  0  0  0  0  0  0
   32.8342   13.5622    5.8261 O   0  0  0  0  0  0  0  0  0  0  0  0
   33.9125   12.9953    8.0768 O   0  0  0  0  0  0  0  0  0  0  0  0
  1  2  1  0
  2  3  1  0
  3  4  2  0
  4  5  1  0
  5  6  2  0
  6  7  1  0
  7  8  2  0
  8  9  1  0
  9 10  1  0
  9 11  2  0
  9 12  2  0
  8  3  1  0
A    1
 C1 
A    2
 O1 
A    3
 C2 
A    4
 C3 
A    5
 C4 
A    6
 N1 
A    7
 C5 
A    8
 C6 
A    9
 S1 
A   10
 N2 
A   11
 O2 
A   12
 O3 
M  END
>  <ref_pdb>  (1294) 
Ax0310a

>  <ref_mols>  (1294) 
Ax0446a,Ax1080a,Ax0812a,Ax0719a,Ax1140a,Ax0528a,Ax0310a

>  <original SMILES>  (1294) 
COc1ccncc1S(N)(=O)=O

>  <rationale>  (1294) 
info info set:sulfonimide_joint;hbond:G127; 

>  <experiment>  (1294) 
sulfonimide_joint

>  <cluster_label>  (1294) 
3

>  <cluster_rank>  (1294) 
951

>  <N_interactions>  (1294) 
2

>  <∆∆G>  (1294) 
-4.45441

>  <comRMSD>  (1294) 
0.989389

>  <ROCS_TanimotoCombo>  (1294) 
0.306

>  <ROCS_ShapeTanimoto>  (1294) 
0.144

>  <ROCS_ColorTanimoto>  (1294) 
0.162

$$$$
Z1756320413
     RDKit          3D

 24 26  0  0  0  0  0  0  0  0999 V2000
   27.8624   12.8260    9.4816 C   0  0  0  0  0  0  0  0  0  0  0  0
   28.0321   11.6484    8.6393 N   0  0  0  0  0  0  0  0  0  0  0  0
   27.5473   12.0577    7.3758 C   0  0  0  0  0  0  0  0  0  0  0  0
   27.9075   13.4847    7.4898 C   0  0  0  0  0  0  0  0  0  0  0  0
   28.3813   14.2110    6.4233 C   0  0  0  0  0  0  0  0  0  0  0  0
   28.6584   15.4286    6.7950 N   0  0  0  0  0  0  0  0  0  0  0  0
   28.3616   15.4633    8.0768 N   0  0  0  0  0  0  0  0  0  0  0  0
   28.5876   16.6439    8.7485 C   0  0  0  0  0  0  0  0  0  0  0  0
   27.8855   14.3320    8.5676 C   0  0  0  0  0  0  0  0  0  0  0  0
   29.2277   10.9449    8.5762 C   0  0  0  0  0  0  0  0  0  0  0  0
   29.3369    9.8352    9.0671 O   0  0  0  0  0  0  0  0  0  0  0  0
   30.2686   11.6101    7.9725 N   0  0  0  0  0  0  0  0  0  0  0  0
   31.2896   11.0411    7.1979 C   0  0  0  0  0  0  0  0  0  0  0  0
   32.0401   11.7357    6.2596 C   0  0  0  0  0  0  0  0  0  0  0  0
   33.1200   10.9670    5.4761 C   0  0  0  0  0  0  0  0  0  0  0  0
   33.2911    9.5387    5.7746 C   0  0  0  0  0  0  0  0  0  0  0  0
   32.4734    8.9809    6.7373 C   0  0  0  0  0  0  0  0  0  0  0  0
   31.5249    9.6940    7.4129 C   0  0  0  0  0  0  0  0  0  0  0  0
   30.8073    9.0228    8.3209 F   0  0  0  0  0  0  0  0  0  0  0  0
   34.2477    8.7994    5.0970 N   0  0  0  0  0  0  0  0  0  0  0  0
   35.2148    9.3499    4.3114 C   0  0  0  0  0  0  0  0  0  0  0  0
   35.9653    8.6399    3.6413 O   0  0  0  0  0  0  0  0  0  0  0  0
   35.3303   10.8647    4.3186 C   0  0  0  0  0  0  0  0  0  0  0  0
   33.9942   11.5892    4.4312 C   0  0  0  0  0  0  0  0  0  0  0  0
  1  2  1  0
  2  3  1  0
  3  4  1  0
  4  5  1  0
  5  6  2  0
  6  7  1  0
  7  8  1  0
  7  9  1  0
  2 10  1  0
 10 11  2  0
 10 12  1  0
 12 13  1  0
 13 14  2  0
 14 15  1  0
 15 16  2  0
 16 17  1  0
 17 18  2  0
 18 19  1  0
 16 20  1  0
 20 21  1  0
 21 22  2  0
 21 23  1  0
 23 24  1  0
  9  4  2  0
 18 13  1  0
 24 15  1  0
A    1
 C1 
A    2
 N1 
A    3
 C2 
A    4
 C3 
A    5
 C4 
A    6
 N2 
A    7
 N3 
A    8
 C5 
A    9
 C6 
A   10
 C7 
A   11
 O1 
A   12
 N4 
A   13
 C8 
A   14
 C9 
A   15
 C10
A   16
 C11
A   17
 C12
A   18
 C13
A   19
 F1 
A   20
 N5 
A   21
 C14
A   22
 O2 
A   23
 C15
A   24
 C16
M  END
>  <ref_pdb>  (1295) 
Ax0310a

>  <ref_mols>  (1295) 
Ax0446a,Ax1080a,Ax0812a,Ax0719a,Ax1140a,Ax0528a,Ax0310a

>  <original SMILES>  (1295) 
CN(Cc1cnn(C)c1)C(=O)Nc1cc2c(cc1F)NC(=O)CC2

>  <rationale>  (1295) 
info info set:screening_pocket;hbond:S105; hydroph_interaction:P107; 

>  <experiment>  (1295) 
screening_pocket

>  <cluster_label>  (1295) 
3

>  <cluster_rank>  (1295) 
952

>  <N_interactions>  (1295) 
2

>  <∆∆G>  (1295) 
-2.918044

>  <comRMSD>  (1295) 
0.819127

>  <ROCS_TanimotoCombo>  (1295) 
0.638

>  <ROCS_ShapeTanimoto>  (1295) 
0.277

>  <ROCS_ColorTanimoto>  (1295) 
0.361

$$$$
EN300_43356305
     RDKit          3D

 24 26  0  0  0  0  0  0  0  0999 V2000
   36.1959   12.2496    3.2766 C   0  0  0  0  0  0  0  0  0  0  0  0
   35.8345   13.2080    4.4361 C   0  0  0  0  0  0  0  0  0  0  0  0
   37.0291   13.0659    5.3806 C   0  0  0  0  0  0  0  0  0  0  0  0
   35.6957   14.6633    3.9650 C   0  0  0  0  0  0  0  0  0  0  0  0
   34.5846   12.8812    5.0578 O   0  0  0  0  0  0  0  0  0  0  0  0
   34.3836   11.6317    5.4860 C   0  0  0  0  0  0  0  0  0  0  0  0
   35.1345   10.6829    5.2756 O   0  0  0  0  0  0  0  0  0  0  0  0
   33.2212   11.5434    6.1745 N   0  0  0  0  0  0  0  0  0  0  0  0
   32.6371   10.2174    6.2211 C   0  0  0  0  0  0  0  0  0  0  0  0
   31.5338   10.3491    7.2452 C   0  0  2  0  0  0  0  0  0  0  0  0
   31.0486    8.9611    7.7051 C   0  0  0  0  0  0  0  0  0  0  0  0
   31.4179    8.5969    9.0000 O   0  0  0  0  0  0  0  0  0  0  0  0
   30.4518   11.4021    6.8252 C   0  0  0  0  0  0  0  0  0  0  0  0
   31.2422   12.5105    7.2658 C   0  0  2  0  0  0  0  0  0  0  0  0
   30.3381   13.4174    7.7318 C   0  0  0  0  0  0  0  0  0  0  0  0
   30.5553   14.0747    8.9040 C   0  0  0  0  0  0  0  0  0  0  0  0
   31.6821   13.8679    9.5792 F   0  0  0  0  0  0  0  0  0  0  0  0
   29.6490   14.9815    9.4780 C   0  0  0  0  0  0  0  0  0  0  0  0
   28.3374   15.2166    8.6737 C   0  0  0  0  0  0  0  0  0  0  0  0
   28.1949   14.4897    7.4416 C   0  0  0  0  0  0  0  0  0  0  0  0
   29.1457   13.6623    7.0412 C   0  0  0  0  0  0  0  0  0  0  0  0
   28.9272   13.0242    5.8989 F   0  0  0  0  0  0  0  0  0  0  0  0
   32.3809   12.7817    6.2846 C   0  0  0  0  0  0  0  0  0  0  0  0
   31.6012   11.4778    8.2357 C   0  0  0  0  0  0  0  0  0  0  0  0
  1  2  1  0
  2  3  1  0
  2  4  1  0
  2  5  1  0
  5  6  1  0
  6  7  2  0
  6  8  1  0
  8  9  1  0
  9 10  1  0
 10 11  1  1
 11 12  1  0
 10 13  1  0
 13 14  1  0
 14 15  1  1
 15 16  2  0
 16 17  1  0
 16 18  1  0
 18 19  2  0
 19 20  1  0
 20 21  2  0
 21 22  1  0
 14 23  1  0
 14 24  1  0
 23  8  1  0
 24 10  1  0
 21 15  1  0
A    1
 C1 
A    2
 C2 
A    3
 C3 
A    4
 C4 
A    5
 O1 
A    6
 C5 
A    7
 O2 
A    8
 N1 
A    9
 C6 
A   10
 C7 
A   11
 C8 
A   12
 O3 
A   13
 C9 
A   14
 C10
A   15
 C11
A   16
 C12
A   17
 F1 
A   18
 C13
A   19
 C14
A   20
 C15
A   21
 C16
A   22
 F2 
A   23
 C17
A   24
 C18
M  END
>  <ref_pdb>  (1296) 
Ax0310a

>  <ref_mols>  (1296) 
Ax0446a,Ax1080a,Ax0812a,Ax0719a,Ax1140a,Ax0528a,Ax0310a

>  <original SMILES>  (1296) 
CC(C)(C)OC(=O)N1C[C@]2(CO)C[C@](c3c(F)cccc3F)(C1)C2

>  <rationale>  (1296) 
info info set:bb_whole;hbond:S105; hydroph_interaction:P107+Y89+Y90; 

>  <experiment>  (1296) 
bb_whole

>  <cluster_label>  (1296) 
3

>  <cluster_rank>  (1296) 
953

>  <N_interactions>  (1296) 
5

>  <∆∆G>  (1296) 
-0.506284

>  <comRMSD>  (1296) 
0.773695

>  <ROCS_TanimotoCombo>  (1296) 
0.41

>  <ROCS_ShapeTanimoto>  (1296) 
0.267

>  <ROCS_ColorTanimoto>  (1296) 
0.143

$$$$
Z960171294
     RDKit          3D

 16 17  0  0  0  0  0  0  0  0999 V2000
   36.0900    7.1029    4.6116 C   0  0  0  0  0  0  0  0  0  0  0  0
   35.0652    8.0944    4.0556 C   0  0  0  0  0  0  0  0  0  0  0  0
   34.9046    9.3163    4.6946 N   0  0  0  0  0  0  0  0  0  0  0  0
   33.8172    9.6812    5.4974 C   0  0  0  0  0  0  0  0  0  0  0  0
   33.1204    8.8306    6.3010 N   0  0  0  0  0  0  0  0  0  0  0  0
   32.0150    9.2558    7.1685 C   0  0  0  0  0  0  0  0  0  0  0  0
   31.6643   10.7452    7.1422 C   0  0  0  0  0  0  0  0  0  0  0  0
   30.5666   11.2175    8.0432 C   0  0  0  0  0  0  0  0  0  0  0  0
   30.1157   10.4163    8.8369 O   0  0  0  0  0  0  0  0  0  0  0  0
   30.2058   12.5574    7.8874 N   0  0  0  0  0  0  0  0  0  0  0  0
   29.0862   13.1210    8.3883 C   0  0  0  0  0  0  0  0  0  0  0  0
   29.0295   14.4414    8.8840 C   0  0  0  0  0  0  0  0  0  0  0  0
   28.2504   14.1728    7.5311 C   0  0  0  0  0  0  0  0  0  0  0  0
   32.3542   11.5959    6.3172 C   0  0  0  0  0  0  0  0  0  0  0  0
   33.4696   11.0341    5.4622 C   0  0  0  0  0  0  0  0  0  0  0  0
   34.3263   12.1165    4.4360 Cl  0  0  0  0  0  0  0  0  0  0  0  0
  1  2  1  0
  2  3  1  0
  3  4  1  0
  4  5  2  0
  5  6  1  0
  6  7  2  0
  7  8  1  0
  8  9  2  0
  8 10  1  0
 10 11  1  0
 11 12  1  0
 12 13  1  0
  7 14  1  0
 14 15  2  0
 15 16  1  0
 15  4  1  0
 13 11  1  0
A    1
 C1 
A    2
 C2 
A    3
 N1 
A    4
 C3 
A    5
 N2 
A    6
 C4 
A    7
 C5 
A    8
 C6 
A    9
 O1 
A   10
 N3 
A   11
 C7 
A   12
 C8 
A   13
 C9 
A   14
 C10
A   15
 C11
A   16
CL1 
M  END
>  <ref_pdb>  (1297) 
Ax0310a

>  <ref_mols>  (1297) 
Ax0446a,Ax1080a,Ax0812a,Ax0719a,Ax1140a,Ax0528a,Ax0310a

>  <original SMILES>  (1297) 
CCNc1ncc(C(=O)NC2CC2)cc1Cl

>  <rationale>  (1297) 
info info set:screening_pocket;hydroph_interaction:P107; 

>  <experiment>  (1297) 
screening_pocket

>  <cluster_label>  (1297) 
3

>  <cluster_rank>  (1297) 
954

>  <N_interactions>  (1297) 
1

>  <∆∆G>  (1297) 
-2.787498

>  <comRMSD>  (1297) 
0.868438

>  <ROCS_TanimotoCombo>  (1297) 
0.645

>  <ROCS_ShapeTanimoto>  (1297) 
0.234

>  <ROCS_ColorTanimoto>  (1297) 
0.412

$$$$
EN300_33048191
     RDKit          3D

 10 10  0  0  0  0  0  0  0  0999 V2000
   29.0921   12.3723    7.5755 C   0  0  0  0  0  0  0  0  0  0  0  0
   30.3071   11.8579    8.1916 N   0  0  0  0  0  0  0  0  0  0  0  0
   31.2284   11.0548    7.4788 C   0  0  0  0  0  0  0  0  0  0  0  0
   32.1729   11.6591    6.5013 C   0  0  0  0  0  0  0  0  0  0  0  0
   33.1822   10.8198    5.7137 C   0  0  0  0  0  0  0  0  0  0  0  0
   34.0551   11.3037    4.8265 F   0  0  0  0  0  0  0  0  0  0  0  0
   33.0263    9.3468    6.1082 C   0  0  0  0  0  0  0  0  0  0  0  0
   32.1630    8.8248    7.0009 N   0  0  0  0  0  0  0  0  0  0  0  0
   31.3265    9.6714    7.6292 C   0  0  0  0  0  0  0  0  0  0  0  0
   30.2020    8.7804    8.8373 Br  0  0  0  0  0  0  0  0  0  0  0  0
  1  2  1  0
  2  3  1  0
  3  4  2  0
  4  5  1  0
  5  6  1  0
  5  7  2  0
  7  8  1  0
  8  9  2  0
  9 10  1  0
  9  3  1  0
A    1
 C1 
A    2
 N1 
A    3
 C2 
A    4
 C3 
A    5
 C4 
A    6
 F1 
A    7
 C5 
A    8
 N2 
A    9
 C6 
A   10
BR1 
M  END
>  <ref_pdb>  (1298) 
Ax0310a

>  <ref_mols>  (1298) 
Ax0446a,Ax1080a,Ax0812a,Ax0719a,Ax1140a,Ax0528a,Ax0310a

>  <original SMILES>  (1298) 
CNc1cc(F)cnc1Br

>  <rationale>  (1298) 
info info set:bb_densepocket2;hbond:S125; hydroph_interaction:P107; 

>  <experiment>  (1298) 
bb_densepocket2

>  <cluster_label>  (1298) 
3

>  <cluster_rank>  (1298) 
955

>  <N_interactions>  (1298) 
2

>  <∆∆G>  (1298) 
-4.327556

>  <comRMSD>  (1298) 
0.433443

>  <ROCS_TanimotoCombo>  (1298) 
0.609

>  <ROCS_ShapeTanimoto>  (1298) 
0.21

>  <ROCS_ColorTanimoto>  (1298) 
0.398

$$$$
EN300_801297
     RDKit          3D

 18 19  0  0  0  0  0  0  0  0999 V2000
   35.2915    7.4957    3.3152 C   0  0  0  0  0  0  0  0  0  0  0  0
   35.4406    8.9100    3.2064 O   0  0  0  0  0  0  0  0  0  0  0  0
   34.5589    9.6993    3.8983 C   0  0  0  0  0  0  0  0  0  0  0  0
   34.1929   11.1051    3.5736 C   0  0  0  0  0  0  0  0  0  0  0  0
   33.1876   12.0804    4.3222 C   0  0  0  0  0  0  0  0  0  0  0  0
   32.6286   11.1909    5.5282 C   0  0  0  0  0  0  0  0  0  0  0  0
   31.6515   11.8194    6.4163 C   0  0  0  0  0  0  0  0  0  0  0  0
   31.0258   11.1318    7.5788 C   0  0  0  0  0  0  0  0  0  0  0  0
   30.1228   11.8073    8.3564 O   0  0  0  0  0  0  0  0  0  0  0  0
   31.4447    9.8222    7.7641 C   0  0  0  0  0  0  0  0  0  0  0  0
   30.9534    9.0542    8.8440 C   0  0  0  0  0  0  0  0  0  0  0  0
   29.6980    8.3226    8.9726 C   0  0  0  0  0  0  0  0  0  0  0  0
   29.2358    8.7342   10.1750 C   0  0  0  0  0  0  0  0  0  0  0  0
   28.8921    8.6987    8.0199 C   0  0  0  0  0  0  0  0  0  0  0  0
   29.8015    6.9827    9.1429 C   0  0  0  0  0  0  0  0  0  0  0  0
   32.3668    9.2278    6.9308 N   0  0  0  0  0  0  0  0  0  0  0  0
   32.9374    9.8659    5.8689 C   0  0  0  0  0  0  0  0  0  0  0  0
   33.9774    9.1225    4.9787 C   0  0  0  0  0  0  0  0  0  0  0  0
  1  2  1  0
  2  3  1  0
  3  4  2  0
  4  5  1  0
  5  6  2  0
  6  7  1  0
  7  8  2  0
  8  9  1  0
  8 10  1  0
 10 11  1  0
 11 12  1  0
 12 13  1  0
 12 14  1  0
 12 15  1  0
 10 16  2  0
 16 17  1  0
 17 18  2  0
 18  3  1  0
 17  6  1  0
A    1
 C1 
A    2
 O1 
A    3
 C2 
A    4
 C3 
A    5
 C4 
A    6
 C5 
A    7
 C6 
A    8
 C7 
A    9
 O2 
A   10
 C8 
A   11
 C9 
A   12
 C10
A   13
 C11
A   14
 C12
A   15
 C13
A   16
 N1 
A   17
 C14
A   18
 C15
M  END
>  <ref_pdb>  (1299) 
Ax0310a

>  <ref_mols>  (1299) 
Ax0446a,Ax1080a,Ax0812a,Ax0719a,Ax1140a,Ax0528a,Ax0310a

>  <original SMILES>  (1299) 
COc1ccc2cc(O)c(CC(C)(C)C)nc2c1

>  <rationale>  (1299) 
info info set:bb_densepocket2;hbond:S125; hydroph_interaction:P107+V124+D109; 

>  <experiment>  (1299) 
bb_densepocket2

>  <cluster_label>  (1299) 
3

>  <cluster_rank>  (1299) 
956

>  <N_interactions>  (1299) 
5

>  <∆∆G>  (1299) 
-0.759085

>  <comRMSD>  (1299) 
0.56076

>  <ROCS_TanimotoCombo>  (1299) 
0.609

>  <ROCS_ShapeTanimoto>  (1299) 
0.24

>  <ROCS_ColorTanimoto>  (1299) 
0.369

$$$$
Z3689326229
     RDKit          3D

 26 30  0  0  0  0  0  0  0  0999 V2000
   34.7136   14.4238    9.3319 C   0  0  0  0  0  0  0  0  0  0  0  0
   33.2657   14.0215    9.1031 C   0  0  0  0  0  0  0  0  0  0  0  0
   33.1973   12.7842    8.6181 N   0  0  0  0  0  0  0  0  0  0  0  0
   31.8452   12.6264    8.4060 O   0  0  0  0  0  0  0  0  0  0  0  0
   31.2175   13.8681    8.8160 C   0  0  0  0  0  0  0  0  0  0  0  0
   29.6798   13.9177    8.5610 C   0  0  2  0  0  0  0  0  0  0  0  0
   28.8470   14.3959    9.6756 C   0  0  0  0  0  0  0  0  0  0  0  0
   27.7653   14.5585    8.6806 C   0  0  2  0  0  0  0  0  0  0  0  0
   27.6927   13.4161    7.6042 C   0  0  0  0  0  0  0  0  0  0  0  0
   29.1323   12.9963    7.7114 N   0  0  0  0  0  0  0  0  0  0  0  0
   29.3622   11.6977    7.9597 C   0  0  0  0  0  0  0  0  0  0  0  0
   28.5835   10.9460    8.5302 O   0  0  0  0  0  0  0  0  0  0  0  0
   30.6505   11.1455    7.4078 C   0  0  0  0  0  0  0  0  0  0  0  0
   30.8702    9.7863    7.6832 C   0  0  0  0  0  0  0  0  0  0  0  0
   32.0604    8.9615    7.1997 C   0  0  0  0  0  0  0  0  0  0  0  0
   32.8892   10.0045    6.3933 C   0  0  0  0  0  0  0  0  0  0  0  0
   34.0515    9.7027    5.7641 N   0  0  0  0  0  0  0  0  0  0  0  0
   34.6573   10.7044    5.1259 N   0  0  0  0  0  0  0  0  0  0  0  0
   33.8373   11.7621    5.3325 C   0  0  0  0  0  0  0  0  0  0  0  0
   34.1623   13.0036    4.7983 C   0  0  0  0  0  0  0  0  0  0  0  0
   35.1415   13.2551    4.1071 O   0  0  0  0  0  0  0  0  0  0  0  0
   33.2764   14.0724    5.0958 O   0  0  0  0  0  0  0  0  0  0  0  0
   32.7119   11.3474    6.1208 C   0  0  0  0  0  0  0  0  0  0  0  0
   31.4864   11.9458    6.6806 C   0  0  0  0  0  0  0  0  0  0  0  0
   28.9748   15.2614    8.0402 C   0  0  0  0  0  0  0  0  0  0  0  0
   32.0932   14.7382    9.3000 N   0  0  0  0  0  0  0  0  0  0  0  0
  1  2  1  0
  2  3  2  0
  3  4  1  0
  4  5  1  0
  6  5  1  1
  6  7  1  0
  8  7  1  1
  8  9  1  0
  9 10  1  0
 10 11  1  0
 11 12  2  0
 11 13  1  0
 13 14  2  0
 14 15  1  0
 15 16  2  0
 16 17  1  0
 17 18  1  0
 18 19  2  0
 19 20  1  0
 20 21  2  0
 20 22  1  0
 19 23  1  0
 23 24  2  0
  8 25  1  0
  5 26  2  0
 26  2  1  0
 10  6  1  0
 24 13  1  0
 25  6  1  0
 23 16  1  0
A    1
 C1 
A    2
 C2 
A    3
 N1 
A    4
 O1 
A    5
 C3 
A    6
 C4 
A    7
 C5 
A    8
 C6 
A    9
 C7 
A   10
 N2 
A   11
 C8 
A   12
 O2 
A   13
 C9 
A   14
 C10
A   15
 C11
A   16
 C12
A   17
 N3 
A   18
 N4 
A   19
 C13
A   20
 C14
A   21
 O3 
A   22
 O4 
A   23
 C15
A   24
 C16
A   25
 C17
A   26
 N5 
M  END
>  <ref_pdb>  (1300) 
Ax0310a

>  <ref_mols>  (1300) 
Ax0446a,Ax1080a,Ax0812a,Ax0719a,Ax1140a,Ax0528a,Ax0310a

>  <original SMILES>  (1300) 
Cc1noc([C@]23C[C@H](CN2C(=O)c2ccc4[nH]nc(C(=O)O)c4c2)C3)n1

>  <rationale>  (1300) 
info info set:screening_whole;hbond:S87+G127; hydroph_interaction:P107+Y90+V84; 

>  <experiment>  (1300) 
screening_whole

>  <cluster_label>  (1300) 
3

>  <cluster_rank>  (1300) 
957

>  <N_interactions>  (1300) 
5

>  <∆∆G>  (1300) 
-2.637593

>  <comRMSD>  (1300) 
0.64056

>  <ROCS_TanimotoCombo>  (1300) 
0.454

>  <ROCS_ShapeTanimoto>  (1300) 
0.291

>  <ROCS_ColorTanimoto>  (1300) 
0.163

$$$$
Z1000087104
     RDKit          3D

 14 14  0  0  0  0  0  0  0  0999 V2000
   34.1749   11.5590    4.5912 C   0  0  0  0  0  0  0  0  0  0  0  0
   33.2969   10.8272    5.5395 C   0  0  0  0  0  0  0  0  0  0  0  0
   33.5174    9.3070    5.5460 C   0  0  0  0  0  0  0  0  0  0  0  0
   32.4848    8.8440    6.6143 C   0  0  0  0  0  0  0  0  0  0  0  0
   31.5311    9.5607    7.4258 C   0  0  0  0  0  0  0  0  0  0  0  0
   30.3561    8.4650    8.7243 I   0  0  0  0  0  0  0  0  0  0  0  0
   31.5375   10.8967    7.2251 C   0  0  0  0  0  0  0  0  0  0  0  0
   30.6329   11.5575    8.0056 C   0  0  0  0  0  0  0  0  0  0  0  0
   30.0326   10.9114    8.7929 O   0  0  0  0  0  0  0  0  0  0  0  0
   30.4988   12.9903    7.7886 N   0  0  0  0  0  0  0  0  0  0  0  0
   29.6078   13.6755    8.7058 C   0  0  0  0  0  0  0  0  0  0  0  0
   28.9800   14.7428    8.1055 C   0  0  0  0  0  0  0  0  0  0  0  0
   28.5082   15.6409    7.5764 N   0  0  0  0  0  0  0  0  0  0  0  0
   32.3749   11.5327    6.3265 C   0  0  0  0  0  0  0  0  0  0  0  0
  1  2  1  0
  2  3  2  0
  3  4  1  0
  4  5  2  0
  5  6  1  0
  5  7  1  0
  7  8  1  0
  8  9  2  0
  8 10  1  0
 10 11  1  0
 11 12  1  0
 12 13  3  0
  7 14  2  0
 14  2  1  0
A    1
 C1 
A    2
 C2 
A    3
 C3 
A    4
 C4 
A    5
 C5 
A    6
 I1 
A    7
 C6 
A    8
 C7 
A    9
 O1 
A   10
 N1 
A   11
 C8 
A   12
 C9 
A   13
 N2 
A   14
 C10
M  END
>  <ref_pdb>  (1301) 
Ax0310a

>  <ref_mols>  (1301) 
Ax0446a,Ax1080a,Ax0812a,Ax0719a,Ax1140a,Ax0528a,Ax0310a

>  <original SMILES>  (1301) 
Cc1ccc(I)c(C(=O)NCC#N)c1

>  <rationale>  (1301) 
info info set:screening_pocket;hbond:S87; hydroph_interaction:P107; 

>  <experiment>  (1301) 
screening_pocket

>  <cluster_label>  (1301) 
3

>  <cluster_rank>  (1301) 
958

>  <N_interactions>  (1301) 
3

>  <∆∆G>  (1301) 
-4.082997

>  <comRMSD>  (1301) 
0.693882

>  <ROCS_TanimotoCombo>  (1301) 
0.625

>  <ROCS_ShapeTanimoto>  (1301) 
0.22

>  <ROCS_ColorTanimoto>  (1301) 
0.406

$$$$
EN300_27012
     RDKit          3D

 15 16  0  0  0  0  0  0  0  0999 V2000
   35.1856   14.5727    7.3679 N   0  0  0  0  0  0  0  0  0  0  0  0
   35.1253   14.0492    5.7600 S   0  0  0  0  0  6  0  0  0  0  0  0
   34.3701   15.0128    5.0187 O   0  0  0  0  0  0  0  0  0  0  0  0
   36.4806   13.6755    5.4020 O   0  0  0  0  0  0  0  0  0  0  0  0
   34.1391   12.5661    5.9078 C   0  0  0  0  0  0  0  0  0  0  0  0
   34.8490   11.2772    5.5790 C   0  0  0  0  0  0  0  0  0  0  0  0
   34.0281    9.9993    5.7640 C   0  0  0  0  0  0  0  0  0  0  0  0
   32.5953   10.1708    6.2407 C   0  0  0  0  0  0  0  0  0  0  0  0
   32.1064   11.4468    6.4415 C   0  0  0  0  0  0  0  0  0  0  0  0
   32.8143   12.6211    6.3049 C   0  0  0  0  0  0  0  0  0  0  0  0
   30.7545   11.4689    6.8167 O   0  0  0  0  0  0  0  0  0  0  0  0
   30.6183   11.1313    8.1537 C   0  0  0  0  0  0  0  0  0  0  0  0
   30.3500    9.6346    8.2925 C   0  0  0  0  0  0  0  0  0  0  0  0
   31.4302    8.7501    7.7498 C   0  0  0  0  0  0  0  0  0  0  0  0
   31.9046    9.0327    6.4241 O   0  0  0  0  0  0  0  0  0  0  0  0
  1  2  1  0
  2  3  2  0
  2  4  2  0
  2  5  1  0
  5  6  2  0
  6  7  1  0
  7  8  2  0
  8  9  1  0
  9 10  2  0
  9 11  1  0
 11 12  1  0
 12 13  1  0
 13 14  1  0
 14 15  1  0
 10  5  1  0
 15  8  1  0
A    1
 N1 
A    2
 S1 
A    3
 O1 
A    4
 O2 
A    5
 C1 
A    6
 C2 
A    7
 C3 
A    8
 C4 
A    9
 C5 
A   10
 C6 
A   11
 O3 
A   12
 C7 
A   13
 C8 
A   14
 C9 
A   15
 O4 
M  END
>  <ref_pdb>  (1302) 
Ax0310a

>  <ref_mols>  (1302) 
Ax0446a,Ax1080a,Ax0812a,Ax0719a,Ax1140a,Ax0528a,Ax0310a

>  <original SMILES>  (1302) 
NS(=O)(=O)c1ccc2c(c1)OCCCO2

>  <rationale>  (1302) 
info info set:sulfonimide_whole;hbond:G127; 

>  <experiment>  (1302) 
sulfonimide_whole

>  <cluster_label>  (1302) 
3

>  <cluster_rank>  (1302) 
959

>  <N_interactions>  (1302) 
1

>  <∆∆G>  (1302) 
-3.210135

>  <comRMSD>  (1302) 
0.670371

>  <ROCS_TanimotoCombo>  (1302) 
0.334

>  <ROCS_ShapeTanimoto>  (1302) 
0.189

>  <ROCS_ColorTanimoto>  (1302) 
0.145

$$$$
Z2512751519
     RDKit          3D

 22 24  0  0  0  0  0  0  0  0999 V2000
   28.1564   11.6639    8.7722 C   0  0  0  0  0  0  0  0  0  0  0  0
   28.7894   10.5132    9.2758 O   0  0  0  0  0  0  0  0  0  0  0  0
   30.0279   10.4747    8.7810 C   0  0  0  0  0  0  0  0  0  0  0  0
   30.7512   11.4369    8.6474 O   0  0  0  0  0  0  0  0  0  0  0  0
   30.3687    9.1575    8.3903 C   0  0  0  0  0  0  0  0  0  0  0  0
   30.9533    8.1367    9.3221 C   0  0  0  0  0  0  0  0  0  0  0  0
   29.2819    8.3690    8.2714 C   0  0  0  0  0  0  0  0  0  0  0  0
   31.3880    9.5827    7.3039 C   0  0  0  0  0  0  0  0  0  0  0  0
   32.3941    8.7312    6.8530 N   0  0  0  0  0  0  0  0  0  0  0  0
   33.1769    9.3238    5.9520 C   0  0  0  0  0  0  0  0  0  0  0  0
   34.2581    8.7972    5.3053 N   0  0  0  0  0  0  0  0  0  0  0  0
   34.7670    9.3835    4.1816 C   0  0  0  0  0  0  0  0  0  0  0  0
   35.7612    8.3890    3.6294 C   0  0  0  0  0  0  0  0  0  0  0  0
   36.6798    9.0489    2.5871 C   0  0  0  0  0  0  0  0  0  0  0  0
   37.3798   10.2115    3.1204 C   0  0  0  0  0  0  0  0  0  0  0  0
   36.6510   11.2177    3.7760 C   0  0  0  0  0  0  0  0  0  0  0  0
   35.4030   10.7566    4.5393 C   0  0  0  0  0  0  0  0  0  0  0  0
   38.4772   10.7289    2.2010 C   0  0  0  0  0  0  0  0  0  0  0  0
   38.8578   10.0682    3.4788 C   0  0  0  0  0  0  0  0  0  0  0  0
   32.7629   10.9243    5.5923 S   0  0  0  0  0  0  0  0  0  0  0  0
   31.4548   10.8441    6.6835 C   0  0  0  0  0  0  0  0  0  0  0  0
   30.6283   12.0787    6.8135 C   0  0  0  0  0  0  0  0  0  0  0  0
  1  2  1  0
  2  3  1  0
  3  4  2  0
  3  5  1  0
  5  6  1  0
  5  7  1  0
  5  8  1  0
  8  9  1  0
  9 10  2  0
 10 11  1  0
 11 12  1  0
 12 13  1  0
 13 14  1  0
 14 15  1  0
 15 16  1  0
 16 17  1  0
 15 18  1  0
 18 19  1  0
 10 20  1  0
 20 21  1  0
 21 22  1  0
 21  8  2  0
 17 12  1  0
 19 15  1  0
A    1
 C1 
A    2
 O1 
A    3
 C2 
A    4
 O2 
A    5
 C3 
A    6
 C4 
A    7
 C5 
A    8
 C6 
A    9
 N1 
A   10
 C7 
A   11
 N2 
A   12
 C8 
A   13
 C9 
A   14
 C10
A   15
 C11
A   16
 C12
A   17
 C13
A   18
 C14
A   19
 C15
A   20
 S1 
A   21
 C16
A   22
 C17
M  END
>  <ref_pdb>  (1303) 
Ax0310a

>  <ref_mols>  (1303) 
Ax0446a,Ax1080a,Ax0812a,Ax0719a,Ax1140a,Ax0528a,Ax0310a

>  <original SMILES>  (1303) 
COC(=O)C(C)(C)c1nc(NC2CCC3(CC2)CC3)sc1C

>  <rationale>  (1303) 
info info set:screening_pocket;hbond:S105; hydroph_interaction:P107; 

>  <experiment>  (1303) 
screening_pocket

>  <cluster_label>  (1303) 
3

>  <cluster_rank>  (1303) 
960

>  <N_interactions>  (1303) 
2

>  <∆∆G>  (1303) 
-3.958651

>  <comRMSD>  (1303) 
0.943401

>  <ROCS_TanimotoCombo>  (1303) 
0.651

>  <ROCS_ShapeTanimoto>  (1303) 
0.222

>  <ROCS_ColorTanimoto>  (1303) 
0.429

$$$$
Z33545395
     RDKit          3D

 18 19  0  0  0  0  0  0  0  0999 V2000
   29.1235    8.3972    9.7842 C   0  0  0  0  0  0  0  0  0  0  0  0
   29.3161    9.0282    8.5024 C   0  0  0  0  0  0  0  0  0  0  0  0
   28.8887   10.4658    8.4112 C   0  0  0  0  0  0  0  0  0  0  0  0
   30.7861    8.6817    8.2678 C   0  0  0  0  0  0  0  0  0  0  0  0
   31.5855    9.5437    7.4482 N   0  0  0  0  0  0  0  0  0  0  0  0
   32.3952    8.8807    6.5250 N   0  0  0  0  0  0  0  0  0  0  0  0
   33.1559    9.5583    5.7144 C   0  0  0  0  0  0  0  0  0  0  0  0
   34.0656    8.8844    4.6511 C   0  0  0  0  0  0  0  0  0  0  0  0
   35.1620    8.2620    5.0954 N   0  0  0  0  0  0  0  0  0  0  0  0
   33.7929    8.9272    3.3160 O   0  0  0  0  0  0  0  0  0  0  0  0
   33.2225   10.9676    5.7415 C   0  0  0  0  0  0  0  0  0  0  0  0
   34.0875   11.7581    4.8144 C   0  0  0  0  0  0  0  0  0  0  0  0
   34.2178   13.2129    4.8099 C   0  0  0  0  0  0  0  0  0  0  0  0
   33.3785   13.9529    5.8649 C   0  0  0  0  0  0  0  0  0  0  0  0
   32.4375   13.2243    6.8648 C   0  0  0  0  0  0  0  0  0  0  0  0
   32.4068   11.7210    6.7397 C   0  0  0  0  0  0  0  0  0  0  0  0
   31.5246   10.8990    7.6487 C   0  0  0  0  0  0  0  0  0  0  0  0
   30.8204   11.4559    8.4670 O   0  0  0  0  0  0  0  0  0  0  0  0
  1  2  1  0
  2  3  1  0
  2  4  1  0
  4  5  1  0
  5  6  1  0
  6  7  2  0
  7  8  1  0
  8  9  1  0
  8 10  2  0
  7 11  1  0
 11 12  2  0
 12 13  1  0
 13 14  2  0
 14 15  1  0
 15 16  2  0
 16 17  1  0
 17 18  2  0
 17  5  1  0
 16 11  1  0
A    1
 C1 
A    2
 C2 
A    3
 C3 
A    4
 C4 
A    5
 N1 
A    6
 N2 
A    7
 C5 
A    8
 C6 
A    9
 N3 
A   10
 O1 
A   11
 C7 
A   12
 C8 
A   13
 C9 
A   14
 C10
A   15
 C11
A   16
 C12
A   17
 C13
A   18
 O2 
M  END
>  <ref_pdb>  (1304) 
Ax0310a

>  <ref_mols>  (1304) 
Ax0446a,Ax1080a,Ax0812a,Ax0719a,Ax1140a,Ax0528a,Ax0310a

>  <original SMILES>  (1304) 
CC(C)Cn1nc(C(N)=O)c2ccccc2c1=O

>  <rationale>  (1304) 
info info set:screening_pocket;hbond:G127; hydroph_interaction:V124; 

>  <experiment>  (1304) 
screening_pocket

>  <cluster_label>  (1304) 
3

>  <cluster_rank>  (1304) 
961

>  <N_interactions>  (1304) 
2

>  <∆∆G>  (1304) 
-2.987129

>  <comRMSD>  (1304) 
0.866849

>  <ROCS_TanimotoCombo>  (1304) 
0.637

>  <ROCS_ShapeTanimoto>  (1304) 
0.25

>  <ROCS_ColorTanimoto>  (1304) 
0.387

$$$$
EN300_39744
     RDKit          3D

 15 15  0  0  0  0  0  0  0  0999 V2000
   32.8827    8.7151    6.4890 C   0  0  0  0  0  0  0  0  0  0  0  0
   32.3541   10.0348    6.7690 C   0  0  0  0  0  0  0  0  0  0  0  0
   31.2610    9.8075    7.7903 C   0  0  0  0  0  0  0  0  0  0  0  0
   30.7353    8.3411    8.5226 Cl  0  0  0  0  0  0  0  0  0  0  0  0
   30.5164   11.0298    8.2302 C   0  0  0  0  0  0  0  0  0  0  0  0
   30.9875   12.3199    7.5868 C   0  0  0  0  0  0  0  0  0  0  0  0
   30.1650   13.7138    8.0504 S   0  0  0  0  0  6  0  0  0  0  0  0
   28.8952   13.2453    8.9997 N   0  0  0  0  0  0  0  0  0  0  0  0
   31.0525   14.4886    8.8915 O   0  0  0  0  0  0  0  0  0  0  0  0
   29.5175   14.1969    6.8619 O   0  0  0  0  0  0  0  0  0  0  0  0
   32.1268   12.4678    6.5596 C   0  0  0  0  0  0  0  0  0  0  0  0
   32.7903   11.1658    6.1867 C   0  0  0  0  0  0  0  0  0  0  0  0
   33.8199   11.0785    5.2653 N   0  0  0  0  0  4  0  0  0  0  0  0
   33.6544   10.2869    4.3273 O   0  0  0  0  0  0  0  0  0  0  0  0
   34.8941   11.6101    5.5377 O   0  0  0  0  0  1  0  0  0  0  0  0
  1  2  1  0
  2  3  2  0
  3  4  1  0
  3  5  1  0
  5  6  2  0
  6  7  1  0
  7  8  1  0
  7  9  2  0
  7 10  2  0
  6 11  1  0
 11 12  2  0
 12 13  1  0
 13 14  2  0
 13 15  1  0
 12  2  1  0
M  CHG  2  13   1  15  -1
A    1
 C1 
A    2
 C2 
A    3
 C3 
A    4
CL1 
A    5
 C4 
A    6
 C5 
A    7
 S1 
A    8
 N1 
A    9
 O1 
A   10
 O2 
A   11
 C6 
A   12
 C7 
A   13
 N2 
A   14
 O3 
A   15
 O4 
M  END
>  <ref_pdb>  (1305) 
Ax0310a

>  <ref_mols>  (1305) 
Ax0446a,Ax1080a,Ax0812a,Ax0719a,Ax1140a,Ax0528a,Ax0310a

>  <original SMILES>  (1305) 
Cc1c(Cl)cc(S(N)(=O)=O)cc1[N+](=O)[O-]

>  <rationale>  (1305) 
info info set:sulfonimide_whole;hbond:S87+S125; 

>  <experiment>  (1305) 
sulfonimide_whole

>  <cluster_label>  (1305) 
3

>  <cluster_rank>  (1305) 
962

>  <N_interactions>  (1305) 
2

>  <∆∆G>  (1305) 
-3.58343

>  <comRMSD>  (1305) 
0.774579

>  <ROCS_TanimotoCombo>  (1305) 
0.335

>  <ROCS_ShapeTanimoto>  (1305) 
0.198

>  <ROCS_ColorTanimoto>  (1305) 
0.137

$$$$
Z31209573
     RDKit          3D

 23 26  0  0  0  0  0  0  0  0999 V2000
   32.0495   14.5282    9.3701 O   0  0  0  0  0  0  0  0  0  0  0  0
   30.8943   14.8408    9.6821 N   0  0  0  0  0  4  0  0  0  0  0  0
   30.6337   15.8194   10.3827 O   0  0  0  0  0  1  0  0  0  0  0  0
   29.8767   14.4228    8.7389 C   0  0  0  0  0  0  0  0  0  0  0  0
   28.5549   14.9625    8.8684 C   0  0  0  0  0  0  0  0  0  0  0  0
   27.5575   14.5465    7.8870 C   0  0  0  0  0  0  0  0  0  0  0  0
   27.9717   13.5567    6.8108 C   0  0  0  0  0  0  0  0  0  0  0  0
   29.2428   13.0277    6.6896 C   0  0  0  0  0  0  0  0  0  0  0  0
   30.2131   13.5311    7.7426 C   0  0  0  0  0  0  0  0  0  0  0  0
   31.4862   13.1200    7.7389 O   0  0  0  0  0  0  0  0  0  0  0  0
   31.7289   11.8328    7.3998 C   0  0  0  0  0  0  0  0  0  0  0  0
   30.9253   10.8583    7.8543 N   0  0  0  0  0  0  0  0  0  0  0  0
   31.1475    9.5580    7.5434 C   0  0  0  0  0  0  0  0  0  0  0  0
   32.1494    9.1274    6.7640 N   0  0  0  0  0  0  0  0  0  0  0  0
   32.9509   10.1280    6.3065 C   0  0  0  0  0  0  0  0  0  0  0  0
   32.7628   11.4565    6.6168 C   0  0  0  0  0  0  0  0  0  0  0  0
   33.7001   12.2503    6.0617 O   0  0  0  0  0  0  0  0  0  0  0  0
   34.5046   11.4280    5.3696 C   0  0  0  0  0  0  0  0  0  0  0  0
   35.7197   11.8582    4.5728 C   0  0  0  0  0  0  0  0  0  0  0  0
   36.4367   10.8015    3.8813 C   0  0  0  0  0  0  0  0  0  0  0  0
   35.9155    9.3926    4.0153 C   0  0  0  0  0  0  0  0  0  0  0  0
   34.7829    9.1111    4.8007 C   0  0  0  0  0  0  0  0  0  0  0  0
   34.0855   10.1012    5.4685 C   0  0  0  0  0  0  0  0  0  0  0  0
  1  2  2  0
  2  3  1  0
  2  4  1  0
  4  5  2  0
  5  6  1  0
  6  7  2  0
  7  8  1  0
  8  9  2  0
  9 10  1  0
 10 11  1  0
 11 12  2  0
 12 13  1  0
 13 14  2  0
 14 15  1  0
 15 16  2  0
 16 17  1  0
 17 18  1  0
 18 19  2  0
 19 20  1  0
 20 21  2  0
 21 22  1  0
 22 23  2  0
  9  4  1  0
 16 11  1  0
 23 18  1  0
 23 15  1  0
M  CHG  2   2   1   3  -1
A    1
 O1 
A    2
 N1 
A    3
 O2 
A    4
 C1 
A    5
 C2 
A    6
 C3 
A    7
 C4 
A    8
 C5 
A    9
 C6 
A   10
 O3 
A   11
 C7 
A   12
 N2 
A   13
 C8 
A   14
 N3 
A   15
 C9 
A   16
 C10
A   17
 O4 
A   18
 C11
A   19
 C12
A   20
 C13
A   21
 C14
A   22
 C15
A   23
 C16
M  END
>  <ref_pdb>  (1306) 
Ax0310a

>  <ref_mols>  (1306) 
Ax0446a,Ax1080a,Ax0812a,Ax0719a,Ax1140a,Ax0528a,Ax0310a

>  <original SMILES>  (1306) 
O=[N+]([O-])c1ccccc1Oc1ncnc2c1oc1ccccc12

>  <rationale>  (1306) 
info info set:screening_whole;hydroph_interaction:P107+Y89+Y90; 

>  <experiment>  (1306) 
screening_whole

>  <cluster_label>  (1306) 
3

>  <cluster_rank>  (1306) 
963

>  <N_interactions>  (1306) 
3

>  <∆∆G>  (1306) 
-3.750121

>  <comRMSD>  (1306) 
0.783309

>  <ROCS_TanimotoCombo>  (1306) 
0.455

>  <ROCS_ShapeTanimoto>  (1306) 
0.248

>  <ROCS_ColorTanimoto>  (1306) 
0.207

$$$$
Z951182544
     RDKit          3D

 13 14  0  0  0  0  0  0  0  0999 V2000
   31.7024   14.5471    9.5984 O   0  0  0  0  0  0  0  0  0  0  0  0
   31.9429   13.8803    8.5818 C   0  0  0  0  0  0  0  0  0  0  0  0
   30.9643   13.3876    7.7897 O   0  0  0  0  0  0  0  0  0  0  0  0
   33.3691   13.5837    8.1471 C   0  0  0  0  0  0  0  0  0  0  0  0
   33.5030   12.8925    6.9973 C   0  0  0  0  0  0  0  0  0  0  0  0
   34.2140   13.3264    6.0952 O   0  0  0  0  0  0  0  0  0  0  0  0
   32.7840   11.6459    6.8577 N   0  0  0  0  0  0  0  0  0  0  0  0
   31.6277   11.2204    7.4301 C   0  0  0  0  0  0  0  0  0  0  0  0
   31.5785    9.7617    7.3626 C   0  0  0  0  0  0  0  0  0  0  0  0
   32.5991    9.3901    6.3321 C   0  0  0  0  0  0  0  0  0  0  0  0
   33.1644   10.6140    5.8980 C   0  0  0  0  0  0  0  0  0  0  0  0
   34.4637   13.6479    9.2350 C   0  0  0  0  0  0  0  0  0  0  0  0
   34.4186   14.7238    8.2113 C   0  0  0  0  0  0  0  0  0  0  0  0
  1  2  2  0
  2  3  1  0
  2  4  1  0
  4  5  1  0
  5  6  2  0
  5  7  1  0
  7  8  1  0
  8  9  1  0
  9 10  1  0
 10 11  1  0
  4 12  1  0
 12 13  1  0
 13  4  1  0
 11  7  1  0
A    1
 O1 
A    2
 C1 
A    3
 O2 
A    4
 C2 
A    5
 C3 
A    6
 O3 
A    7
 N1 
A    8
 C4 
A    9
 C5 
A   10
 C6 
A   11
 C7 
A   12
 C8 
A   13
 C9 
M  END
>  <ref_pdb>  (1307) 
Ax0310a

>  <ref_mols>  (1307) 
Ax0446a,Ax1080a,Ax0812a,Ax0719a,Ax1140a,Ax0528a,Ax0310a

>  <original SMILES>  (1307) 
O=C(O)C1(C(=O)N2CCCC2)CC1

>  <rationale>  (1307) 
info info set:3d;hbond:S87; 

>  <experiment>  (1307) 
3d

>  <cluster_label>  (1307) 
3

>  <cluster_rank>  (1307) 
964

>  <N_interactions>  (1307) 
1

>  <∆∆G>  (1307) 
-0.134189

>  <comRMSD>  (1307) 
0.664897

>  <ROCS_TanimotoCombo>  (1307) 
0.315

>  <ROCS_ShapeTanimoto>  (1307) 
0.173

>  <ROCS_ColorTanimoto>  (1307) 
0.142

$$$$
Z8802630440
     RDKit          3D

 23 25  0  0  0  0  0  0  0  0999 V2000
   34.9189    8.6362    4.8273 C   0  0  0  0  0  0  0  0  0  0  0  0
   34.1984    9.8905    5.2944 C   0  0  0  0  0  0  0  0  0  0  0  0
   34.6860   11.0353    4.7865 N   0  0  0  0  0  0  0  0  0  0  0  0
   33.8848   12.0263    5.3313 O   0  0  0  0  0  0  0  0  0  0  0  0
   32.9466   11.4741    6.1447 C   0  0  0  0  0  0  0  0  0  0  0  0
   32.0165   12.1695    6.8114 N   0  0  0  0  0  0  0  0  0  0  0  0
   31.0870   11.3242    7.4948 C   0  0  0  0  0  0  0  0  0  0  0  0
   30.0469   11.6925    8.2203 N   0  0  0  0  0  0  0  0  0  0  0  0
   29.4643   12.9141    8.2774 C   0  0  0  0  0  0  0  0  0  0  0  0
   28.2068   13.2260    7.7696 C   0  0  0  0  0  0  0  0  0  0  0  0
   27.5042   14.6180    7.8467 C   0  0  0  0  0  0  0  0  0  0  0  0
   28.3600   15.6726    8.5799 C   0  0  0  0  0  0  0  0  0  0  0  0
   29.6543   15.1568    9.0379 C   0  0  0  0  0  0  0  0  0  0  0  0
   30.2525   13.8365    8.9125 C   0  0  0  0  0  0  0  0  0  0  0  0
   31.4943   13.4465    9.3522 O   0  0  0  0  0  0  0  0  0  0  0  0
   32.5263   14.1416    8.7274 C   0  0  0  0  0  0  0  0  0  0  0  0
   33.8283   13.6959    8.6569 C   0  0  0  0  0  0  0  0  0  0  0  0
   34.5986   14.0860    9.6771 C   0  0  0  0  0  0  0  0  0  0  0  0
   34.5555   14.2775    7.4199 C   0  0  0  0  0  0  0  0  0  0  0  0
   31.1910    9.9847    7.4500 N   0  0  0  0  0  0  0  0  0  0  0  0
   32.2466    9.3383    6.9412 C   0  0  0  0  0  0  0  0  0  0  0  0
   32.4111    8.0025    7.2419 O   0  0  0  0  0  0  0  0  0  0  0  0
   33.1139   10.1163    6.1531 C   0  0  0  0  0  0  0  0  0  0  0  0
  1  2  1  0
  2  3  2  0
  3  4  1  0
  4  5  1  0
  5  6  1  0
  6  7  2  0
  7  8  1  0
  8  9  1  0
  9 10  2  0
 10 11  1  0
 11 12  2  0
 12 13  1  0
 13 14  2  0
 14 15  1  0
 15 16  1  0
 16 17  1  0
 17 18  1  0
 17 19  1  0
  7 20  1  0
 20 21  1  0
 21 22  2  0
 21 23  1  0
 23  2  1  0
 23  5  2  0
 14  9  1  0
A    1
 C1 
A    2
 C2 
A    3
 N1 
A    4
 O1 
A    5
 C3 
A    6
 N2 
A    7
 C4 
A    8
 N3 
A    9
 C5 
A   10
 C6 
A   11
 C7 
A   12
 C8 
A   13
 C9 
A   14
 C10
A   15
 O2 
A   16
 C11
A   17
 C12
A   18
 C13
A   19
 C14
A   20
 N4 
A   21
 C15
A   22
 O3 
A   23
 C16
M  END
>  <ref_pdb>  (1308) 
Ax0310a

>  <ref_mols>  (1308) 
Ax0446a,Ax1080a,Ax0812a,Ax0719a,Ax1140a,Ax0528a,Ax0310a

>  <original SMILES>  (1308) 
Cc1noc2nc(Nc3ccccc3OCC(C)C)[nH]c(=O)c12

>  <rationale>  (1308) 
info info set:screening_whole;hbond:S125+G127; hydroph_interaction:Y89+Y90+V84; 

>  <experiment>  (1308) 
screening_whole

>  <cluster_label>  (1308) 
3

>  <cluster_rank>  (1308) 
965

>  <N_interactions>  (1308) 
5

>  <∆∆G>  (1308) 
-2.768542

>  <comRMSD>  (1308) 
0.764265

>  <ROCS_TanimotoCombo>  (1308) 
0.458

>  <ROCS_ShapeTanimoto>  (1308) 
0.264

>  <ROCS_ColorTanimoto>  (1308) 
0.194

$$$$
Z123605552
     RDKit          3D

 18 19  0  0  0  0  0  0  0  0999 V2000
   29.3604    8.6850    8.2333 C   0  0  0  0  0  0  0  0  0  0  0  0
   30.0363   10.0220    8.0425 C   0  0  0  0  0  0  0  0  0  0  0  0
   29.3991   11.4234    8.0909 C   0  0  0  0  0  0  0  0  0  0  0  0
   30.3099   12.5950    8.0201 C   0  0  0  0  0  0  0  0  0  0  0  0
   31.7384   12.2104    7.8585 C   0  0  0  0  0  0  0  0  0  0  0  0
   32.9051   13.4391    7.9434 S   0  0  0  0  0  6  0  0  0  0  0  0
   33.9789   12.9337    8.7500 O   0  0  0  0  0  0  0  0  0  0  0  0
   32.0052   14.3857    8.5239 O   0  0  0  0  0  0  0  0  0  0  0  0
   33.3502   13.5860    6.3479 N   0  0  0  0  0  0  0  0  0  0  0  0
   33.6992   12.3976    5.7117 C   0  0  0  0  0  0  0  0  0  0  0  0
   34.0449   12.3190    4.2263 C   0  0  0  0  0  0  0  0  0  0  0  0
   34.2952   10.9820    4.1487 C   0  0  0  0  0  0  0  0  0  0  0  0
   34.1547   10.3181    5.2879 N   0  0  0  0  0  0  0  0  0  0  0  0
   34.3769    8.9557    5.3194 C   0  0  0  0  0  0  0  0  0  0  0  0
   33.7872   11.1247    6.3021 N   0  0  0  0  0  0  0  0  0  0  0  0
   32.1656   10.9721    7.7036 C   0  0  0  0  0  0  0  0  0  0  0  0
   31.3018    9.8312    7.8201 C   0  0  0  0  0  0  0  0  0  0  0  0
   31.7423    8.5511    7.7345 C   0  0  0  0  0  0  0  0  0  0  0  0
  1  2  1  0
  2  3  2  0
  3  4  1  0
  4  5  2  0
  5  6  1  0
  6  7  2  0
  6  8  2  0
  6  9  1  0
  9 10  1  0
 10 11  1  0
 11 12  2  0
 12 13  1  0
 13 14  1  0
 13 15  1  0
  5 16  1  0
 16 17  2  0
 17 18  1  0
 17  2  1  0
 15 10  2  0
A    1
 C1 
A    2
 C2 
A    3
 C3 
A    4
 C4 
A    5
 C5 
A    6
 S1 
A    7
 O1 
A    8
 O2 
A    9
 N1 
A   10
 C6 
A   11
 C7 
A   12
 C8 
A   13
 N2 
A   14
 C9 
A   15
 N3 
A   16
 C10
A   17
 C11
A   18
 C12
M  END
>  <ref_pdb>  (1309) 
Ax0310a

>  <ref_mols>  (1309) 
Ax0446a,Ax1080a,Ax0812a,Ax0719a,Ax1140a,Ax0528a,Ax0310a

>  <original SMILES>  (1309) 
Cc1ccc(S(=O)(=O)Nc2ccn(C)n2)cc1C

>  <rationale>  (1309) 
info info set:3d;hbond:S87+G127; hydroph_interaction:V124; 

>  <experiment>  (1309) 
3d

>  <cluster_label>  (1309) 
3

>  <cluster_rank>  (1309) 
966

>  <N_interactions>  (1309) 
3

>  <∆∆G>  (1309) 
-2.060753

>  <comRMSD>  (1309) 
0.939575

>  <ROCS_TanimotoCombo>  (1309) 
0.315

>  <ROCS_ShapeTanimoto>  (1309) 
0.204

>  <ROCS_ColorTanimoto>  (1309) 
0.111

$$$$
EN300_226389
     RDKit          3D

 15 16  0  0  0  0  0  0  0  0999 V2000
   34.8381    9.0360    5.2943 C   0  0  0  0  0  0  0  0  0  0  0  0
   33.7264    9.6631    5.9743 C   0  0  0  0  0  0  0  0  0  0  0  0
   32.8979    9.5567    5.1564 C   0  0  0  0  0  0  0  0  0  0  0  0
   33.6538   11.2088    5.9896 C   0  0  0  0  0  0  0  0  0  0  0  0
   32.5170   11.2277    6.7873 C   0  0  0  0  0  0  0  0  0  0  0  0
   31.8776   12.4718    7.0726 C   0  0  0  0  0  0  0  0  0  0  0  0
   30.7340   12.3569    7.8886 C   0  0  0  0  0  0  0  0  0  0  0  0
   29.9390   13.9267    8.2664 S   0  0  0  0  0  6  0  0  0  0  0  0
   28.7137   13.6182    9.3635 N   0  0  0  0  0  0  0  0  0  0  0  0
   30.9071   14.7098    9.0087 O   0  0  0  0  0  0  0  0  0  0  0  0
   29.2752   14.3998    7.0810 O   0  0  0  0  0  0  0  0  0  0  0  0
   30.2904   11.1523    8.3448 C   0  0  0  0  0  0  0  0  0  0  0  0
   30.9305    9.9300    8.0613 C   0  0  0  0  0  0  0  0  0  0  0  0
   32.0743   10.0207    7.2624 C   0  0  0  0  0  0  0  0  0  0  0  0
   32.8887    9.0178    6.8564 O   0  0  0  0  0  0  0  0  0  0  0  0
  1  2  1  0
  2  3  1  0
  2  4  1  0
  4  5  1  0
  5  6  2  0
  6  7  1  0
  7  8  1  0
  8  9  1  0
  8 10  2  0
  8 11  2  0
  7 12  2  0
 12 13  1  0
 13 14  2  0
 14 15  1  0
 15  2  1  0
 14  5  1  0
A    1
 C1 
A    2
 C2 
A    3
 C3 
A    4
 C4 
A    5
 C5 
A    6
 C6 
A    7
 C7 
A    8
 S1 
A    9
 N1 
A   10
 O1 
A   11
 O2 
A   12
 C8 
A   13
 C9 
A   14
 C10
A   15
 O3 
M  END
>  <ref_pdb>  (1310) 
Ax0310a

>  <ref_mols>  (1310) 
Ax0446a,Ax1080a,Ax0812a,Ax0719a,Ax1140a,Ax0528a,Ax0310a

>  <original SMILES>  (1310) 
CC1(C)Cc2cc(S(N)(=O)=O)ccc2O1

>  <rationale>  (1310) 
info info set:sulfonimide_whole;hbond:S87+S125; hydroph_interaction:P107; 

>  <experiment>  (1310) 
sulfonimide_whole

>  <cluster_label>  (1310) 
3

>  <cluster_rank>  (1310) 
967

>  <N_interactions>  (1310) 
3

>  <∆∆G>  (1310) 
-1.94473

>  <comRMSD>  (1310) 
0.908701

>  <ROCS_TanimotoCombo>  (1310) 
0.334

>  <ROCS_ShapeTanimoto>  (1310) 
0.193

>  <ROCS_ColorTanimoto>  (1310) 
0.141

$$$$
Z68312909
     RDKit          3D

 18 19  0  0  0  0  0  0  0  0999 V2000
   30.1648   10.4453    8.8381 O   0  0  0  0  0  0  0  0  0  0  0  0
   30.6715   11.3336    8.1809 C   0  0  0  0  0  0  0  0  0  0  0  0
   30.3178   12.7492    8.3179 N   0  0  0  0  0  0  0  0  0  0  0  0
   28.9393   12.8618    8.6245 C   0  0  0  0  0  0  0  0  0  0  0  0
   28.5810   13.8449    9.6976 C   0  0  0  0  0  0  0  0  0  0  0  0
   29.7824   14.4629   10.3907 C   0  0  0  0  0  0  0  0  0  0  0  0
   30.2549   15.4730    9.5221 C   0  0  0  0  0  0  0  0  0  0  0  0
   29.0515   16.0005    8.8972 C   0  0  0  0  0  0  0  0  0  0  0  0
   28.5950   15.5487    7.5177 C   0  0  0  0  0  0  0  0  0  0  0  0
   28.9210   14.2704    6.7830 C   0  0  0  0  0  0  0  0  0  0  0  0
   28.2232   13.0990    7.3399 C   0  0  0  0  0  0  0  0  0  0  0  0
   31.6852   10.8590    7.2369 C   0  0  0  0  0  0  0  0  0  0  0  0
   32.4222   11.7455    6.4729 C   0  0  0  0  0  0  0  0  0  0  0  0
   33.3771   11.2525    5.5910 C   0  0  0  0  0  0  0  0  0  0  0  0
   33.5268    9.7898    5.5447 C   0  0  0  0  0  0  0  0  0  0  0  0
   32.8150    8.9349    6.2820 N   0  0  0  0  0  0  0  0  0  0  0  0
   31.9209    9.5008    7.1004 C   0  0  0  0  0  0  0  0  0  0  0  0
   31.2373    8.5660    7.8206 O   0  0  0  0  0  0  0  0  0  0  0  0
  1  2  2  0
  2  3  1  0
  3  4  1  0
  4  5  1  0
  5  6  1  0
  6  7  1  0
  7  8  1  0
  8  9  1  0
  9 10  1  0
 10 11  1  0
  2 12  1  0
 12 13  2  0
 13 14  1  0
 14 15  2  0
 15 16  1  0
 16 17  2  0
 17 18  1  0
 11  4  1  0
 17 12  1  0
A    1
 O1 
A    2
 C1 
A    3
 N1 
A    4
 C2 
A    5
 C3 
A    6
 C4 
A    7
 C5 
A    8
 C6 
A    9
 C7 
A   10
 C8 
A   11
 C9 
A   12
 C10
A   13
 C11
A   14
 C12
A   15
 C13
A   16
 N2 
A   17
 C14
A   18
 O2 
M  END
>  <ref_pdb>  (1311) 
Ax0310a

>  <ref_mols>  (1311) 
Ax0446a,Ax1080a,Ax0812a,Ax0719a,Ax1140a,Ax0528a,Ax0310a

>  <original SMILES>  (1311) 
O=C(NC1CCCCCCC1)c1cccnc1O

>  <rationale>  (1311) 
info info set:screening_pocket;hbond:S87; hydroph_interaction:Y89+Y90; 

>  <experiment>  (1311) 
screening_pocket

>  <cluster_label>  (1311) 
3

>  <cluster_rank>  (1311) 
968

>  <N_interactions>  (1311) 
4

>  <∆∆G>  (1311) 
-0.431302

>  <comRMSD>  (1311) 
0.772193

>  <ROCS_TanimotoCombo>  (1311) 
0.628

>  <ROCS_ShapeTanimoto>  (1311) 
0.233

>  <ROCS_ColorTanimoto>  (1311) 
0.395

$$$$
EN300_6511650
     RDKit          3D

 16 16  0  0  0  0  0  0  0  0999 V2000
   28.8885   14.4822    8.5883 C   0  0  0  0  0  0  0  0  0  0  0  0
   28.8201   13.0239    8.1672 C   0  0  0  0  0  0  0  0  0  0  0  0
   30.1028   12.5483    7.6980 O   0  0  0  0  0  0  0  0  0  0  0  0
   30.5018   11.2795    8.0456 C   0  0  0  0  0  0  0  0  0  0  0  0
   30.0657   10.5893    8.9193 O   0  0  0  0  0  0  0  0  0  0  0  0
   31.5109   10.7987    7.2506 C   0  0  0  0  0  0  0  0  0  0  0  0
   32.3612   11.5210    6.4562 C   0  0  0  0  0  0  0  0  0  0  0  0
   32.3289   13.0089    6.3359 C   0  0  0  0  0  0  0  0  0  0  0  0
   33.2413   13.5371    5.4785 F   0  0  0  0  0  0  0  0  0  0  0  0
   32.5217   13.5785    7.5550 F   0  0  0  0  0  0  0  0  0  0  0  0
   31.1075   13.4098    5.8879 F   0  0  0  0  0  0  0  0  0  0  0  0
   33.4019   10.8025    5.6457 C   0  0  0  0  0  0  0  0  0  0  0  0
   33.4404    9.3212    5.7698 C   0  0  0  0  0  0  0  0  0  0  0  0
   32.6010    8.6514    6.5640 N   0  0  0  0  0  0  0  0  0  0  0  0
   31.6746    9.2853    7.2866 C   0  0  0  0  0  0  0  0  0  0  0  0
   30.8621    8.4723    8.0834 N   0  0  0  0  0  0  0  0  0  0  0  0
  1  2  1  0
  2  3  1  0
  3  4  1  0
  4  5  2  0
  4  6  1  0
  6  7  2  0
  7  8  1  0
  8  9  1  0
  8 10  1  0
  8 11  1  0
  7 12  1  0
 12 13  2  0
 13 14  1  0
 14 15  2  0
 15 16  1  0
 15  6  1  0
A    1
 C1 
A    2
 C2 
A    3
 O1 
A    4
 C3 
A    5
 O2 
A    6
 C4 
A    7
 C5 
A    8
 C6 
A    9
 F1 
A   10
 F2 
A   11
 F3 
A   12
 C7 
A   13
 C8 
A   14
 N1 
A   15
 C9 
A   16
 N2 
M  END
>  <ref_pdb>  (1312) 
Ax0310a

>  <ref_mols>  (1312) 
Ax0446a,Ax1080a,Ax0812a,Ax0719a,Ax1140a,Ax0528a,Ax0310a

>  <original SMILES>  (1312) 
CCOC(=O)c1c(C(F)(F)F)ccnc1N

>  <rationale>  (1312) 
info info set:bb_densepocket2;hbond:S105; 

>  <experiment>  (1312) 
bb_densepocket2

>  <cluster_label>  (1312) 
3

>  <cluster_rank>  (1312) 
969

>  <N_interactions>  (1312) 
1

>  <∆∆G>  (1312) 
-1.853767

>  <comRMSD>  (1312) 
0.434444

>  <ROCS_TanimotoCombo>  (1312) 
0.622

>  <ROCS_ShapeTanimoto>  (1312) 
0.247

>  <ROCS_ColorTanimoto>  (1312) 
0.375

$$$$
Z274555680
     RDKit          3D

 17 18  0  0  0  0  0  0  0  0999 V2000
   35.9242   10.7456    4.3881 C   0  0  0  0  0  0  0  0  0  0  0  0
   34.6496   10.9961    5.1919 C   0  0  0  0  0  0  0  0  0  0  0  0
   34.0289    9.8505    5.7128 C   0  0  0  0  0  0  0  0  0  0  0  0
   32.8486   10.0194    6.4405 C   0  0  0  0  0  0  0  0  0  0  0  0
   32.0881    9.1099    7.0470 N   0  0  0  0  0  0  0  0  0  0  0  0
   30.9542    9.8382    7.6308 C   0  0  0  0  0  0  0  0  0  0  0  0
   31.1525   11.1313    7.2991 N   0  0  0  0  0  0  0  0  0  0  0  0
   30.1547   12.4549    7.6214 S   0  0  0  0  0  6  0  0  0  0  0  0
   28.8189   11.9529    7.5962 O   0  0  0  0  0  0  0  0  0  0  0  0
   30.5477   13.3855    6.5986 O   0  0  0  0  0  0  0  0  0  0  0  0
   30.4241   13.2218    9.1213 N   0  0  0  0  0  0  0  0  0  0  0  0
   29.2531   13.9690    9.6078 C   0  0  0  0  0  0  0  0  0  0  0  0
   31.5704   14.0186    9.1486 C   0  0  0  0  0  0  0  0  0  0  0  0
   32.3166   11.2922    6.6013 C   0  0  0  0  0  0  0  0  0  0  0  0
   32.9465   12.4425    6.0907 C   0  0  0  0  0  0  0  0  0  0  0  0
   34.1317   12.2720    5.3918 C   0  0  0  0  0  0  0  0  0  0  0  0
   34.8438   13.4813    4.8488 C   0  0  0  0  0  0  0  0  0  0  0  0
  1  2  1  0
  2  3  2  0
  3  4  1  0
  4  5  1  0
  5  6  2  0
  6  7  1  0
  7  8  1  0
  8  9  2  0
  8 10  2  0
  8 11  1  0
 11 12  1  0
 11 13  1  0
  7 14  1  0
 14 15  1  0
 15 16  2  0
 16 17  1  0
 16  2  1  0
 14  4  2  0
A    1
 C1 
A    2
 C2 
A    3
 C3 
A    4
 C4 
A    5
 N1 
A    6
 C5 
A    7
 N2 
A    8
 S1 
A    9
 O1 
A   10
 O2 
A   11
 N3 
A   12
 C6 
A   13
 C7 
A   14
 C8 
A   15
 C9 
A   16
 C10
A   17
 C11
M  END
>  <ref_pdb>  (1313) 
Ax0310a

>  <ref_mols>  (1313) 
Ax0446a,Ax1080a,Ax0812a,Ax0719a,Ax1140a,Ax0528a,Ax0310a

>  <original SMILES>  (1313) 
Cc1cc2ncn(S(=O)(=O)N(C)C)c2cc1C

>  <rationale>  (1313) 
info info set:3d;hbond:S87; 

>  <experiment>  (1313) 
3d

>  <cluster_label>  (1313) 
3

>  <cluster_rank>  (1313) 
970

>  <N_interactions>  (1313) 
1

>  <∆∆G>  (1313) 
-5.163606

>  <comRMSD>  (1313) 
0.845652

>  <ROCS_TanimotoCombo>  (1313) 
0.32

>  <ROCS_ShapeTanimoto>  (1313) 
0.219

>  <ROCS_ColorTanimoto>  (1313) 
0.101

$$$$
Z1421267660
     RDKit          3D

 21 22  0  0  0  0  0  0  0  0999 V2000
   34.8904    9.7059    4.3347 C   0  0  0  0  0  0  0  0  0  0  0  0
   33.7223   10.0071    5.2656 C   0  0  0  0  0  0  0  0  0  0  0  0
   33.1755    9.1251    6.0767 N   0  0  0  0  0  0  0  0  0  0  0  0
   32.1578    9.5864    6.7919 C   0  0  0  0  0  0  0  0  0  0  0  0
   31.5544    8.6933    7.6452 C   0  0  0  0  0  0  0  0  0  0  0  0
   30.2778    9.0415    8.2505 C   0  0  0  0  0  0  0  0  0  0  0  0
   29.9935    8.4201    9.4911 C   0  0  0  0  0  0  0  0  0  0  0  0
   29.3678    7.9103    8.5732 C   0  0  0  0  0  0  0  0  0  0  0  0
   31.9017   10.9351    6.5136 C   0  0  0  0  0  0  0  0  0  0  0  0
   30.9406   11.7624    7.0312 N   0  0  0  0  0  0  0  0  0  0  0  0
   30.4601   11.6915    8.2399 C   0  0  0  0  0  0  0  0  0  0  0  0
   30.4153   10.6802    8.9018 O   0  0  0  0  0  0  0  0  0  0  0  0
   29.9761   13.0124    8.7366 C   0  0  0  0  0  0  0  0  0  0  0  0
   30.4646   14.2508    8.4295 C   0  0  0  0  0  0  0  0  0  0  0  0
   29.9776   15.3203    9.3894 C   0  0  0  0  0  0  0  0  0  0  0  0
   28.4985   15.7141    8.5782 S   0  0  0  0  0  6  0  0  0  0  0  0
   28.7528   15.7953    7.1728 O   0  0  0  0  0  0  0  0  0  0  0  0
   27.7254   16.6862    9.2651 O   0  0  0  0  0  0  0  0  0  0  0  0
   27.6753   14.2080    8.8366 C   0  0  0  0  0  0  0  0  0  0  0  0
   28.4241   13.0386    8.7023 C   0  0  0  0  0  0  0  0  0  0  0  0
   32.9945   11.5333    5.3511 S   0  0  0  0  0  0  0  0  0  0  0  0
  1  2  1  0
  2  3  2  0
  3  4  1  0
  4  5  1  0
  5  6  1  0
  6  7  1  0
  6  8  1  0
  4  9  2  0
  9 10  1  0
 10 11  1  0
 11 12  2  0
 11 13  1  0
 13 14  1  0
 14 15  1  0
 15 16  1  0
 16 17  2  0
 16 18  2  0
 16 19  1  0
 19 20  1  0
  9 21  1  0
 21  2  1  0
 20 13  1  0
A    1
 C1 
A    2
 C2 
A    3
 N1 
A    4
 C3 
A    5
 C4 
A    6
 C5 
A    7
 C6 
A    8
 C7 
A    9
 C8 
A   10
 N2 
A   11
 C9 
A   12
 O1 
A   13
 C10
A   14
 C11
A   15
 C12
A   16
 S1 
A   17
 O2 
A   18
 O3 
A   19
 C13
A   20
 C14
A   21
 S2 
M  END
>  <ref_pdb>  (1314) 
Ax0310a

>  <ref_mols>  (1314) 
Ax0446a,Ax1080a,Ax0812a,Ax0719a,Ax1140a,Ax0528a,Ax0310a

>  <original SMILES>  (1314) 
Cc1nc(CC(C)C)c(NC(=O)C2CCS(=O)(=O)CC2)s1

>  <rationale>  (1314) 
info info set:screening_pocket;hydroph_interaction:V124+D109; 

>  <experiment>  (1314) 
screening_pocket

>  <cluster_label>  (1314) 
3

>  <cluster_rank>  (1314) 
971

>  <N_interactions>  (1314) 
2

>  <∆∆G>  (1314) 
-0.040169

>  <comRMSD>  (1314) 
0.94271

>  <ROCS_TanimotoCombo>  (1314) 
0.668

>  <ROCS_ShapeTanimoto>  (1314) 
0.228

>  <ROCS_ColorTanimoto>  (1314) 
0.44

$$$$
EN300_1295111
     RDKit          3D

 12 12  0  0  0  0  0  0  0  0999 V2000
   34.5431    9.1778    4.8204 C   0  0  0  0  0  0  0  0  0  0  0  0
   33.4398    9.8284    5.6680 C   0  0  0  0  0  0  0  0  0  0  0  0
   33.6116   11.3504    5.6857 C   0  0  0  0  0  0  0  0  0  0  0  0
   32.5528   12.1233    6.5101 C   0  0  0  0  0  0  0  0  0  0  0  0
   31.5035   11.2263    7.1574 C   0  0  0  0  0  0  0  0  0  0  0  0
   30.4662   11.8977    7.9415 N   0  0  0  0  0  0  0  0  0  0  0  0
   31.6167    9.7415    6.9302 C   0  0  0  0  0  0  0  0  0  0  0  0
   30.6204    9.0070    7.4963 O   0  0  0  0  0  0  0  0  0  0  0  0
   30.2885    9.2879    8.7737 C   0  0  0  0  0  0  0  0  0  0  0  0
   28.9337    9.3508    8.8270 C   0  0  0  0  0  0  0  0  0  0  0  0
   30.7899    8.0766    9.4060 C   0  0  0  0  0  0  0  0  0  0  0  0
   32.5319    9.1018    6.2434 N   0  0  0  0  0  0  0  0  0  0  0  0
  1  2  1  0
  2  3  2  0
  3  4  1  0
  4  5  2  0
  5  6  1  0
  5  7  1  0
  7  8  1  0
  8  9  1  0
  9 10  1  0
  9 11  1  0
  7 12  2  0
 12  2  1  0
A    1
 C1 
A    2
 C2 
A    3
 C3 
A    4
 C4 
A    5
 C5 
A    6
 N1 
A    7
 C6 
A    8
 O1 
A    9
 C7 
A   10
 C8 
A   11
 C9 
A   12
 N2 
M  END
>  <ref_pdb>  (1315) 
Ax0310a

>  <ref_mols>  (1315) 
Ax0446a,Ax1080a,Ax0812a,Ax0719a,Ax1140a,Ax0528a,Ax0310a

>  <original SMILES>  (1315) 
Cc1ccc(N)c(OC(C)C)n1

>  <rationale>  (1315) 
info info set:bb_densepocket2;hbond:S125; 

>  <experiment>  (1315) 
bb_densepocket2

>  <cluster_label>  (1315) 
3

>  <cluster_rank>  (1315) 
972

>  <N_interactions>  (1315) 
1

>  <∆∆G>  (1315) 
-5.477984

>  <comRMSD>  (1315) 
0.946322

>  <ROCS_TanimotoCombo>  (1315) 
0.621

>  <ROCS_ShapeTanimoto>  (1315) 
0.215

>  <ROCS_ColorTanimoto>  (1315) 
0.406

$$$$
EN300_76559
     RDKit          3D

 15 15  0  0  0  0  0  0  0  0999 V2000
   30.0908    8.6320    9.2023 C   0  0  0  0  0  0  0  0  0  0  0  0
   30.9622    8.5596    8.1361 O   0  0  0  0  0  0  0  0  0  0  0  0
   31.3044    9.7867    7.7290 C   0  0  0  0  0  0  0  0  0  0  0  0
   30.6888   10.9743    8.1149 C   0  0  0  0  0  0  0  0  0  0  0  0
   31.1471   12.1988    7.6435 C   0  0  0  0  0  0  0  0  0  0  0  0
   30.3419   13.6854    8.1357 S   0  0  0  0  0  6  0  0  0  0  0  0
   29.0213   13.3910    9.0897 N   0  0  0  0  0  0  0  0  0  0  0  0
   29.6489   14.1553    6.9652 O   0  0  0  0  0  0  0  0  0  0  0  0
   31.2404   14.4595    8.9697 O   0  0  0  0  0  0  0  0  0  0  0  0
   32.2477   12.2805    6.7701 C   0  0  0  0  0  0  0  0  0  0  0  0
   32.6796   13.4979    6.3512 O   0  0  0  0  0  0  0  0  0  0  0  0
   34.0371   13.8436    6.7057 C   0  0  0  0  0  0  0  0  0  0  0  0
   32.8520   11.1118    6.3693 C   0  0  0  0  0  0  0  0  0  0  0  0
   32.3637    9.8063    6.8588 C   0  0  0  0  0  0  0  0  0  0  0  0
   32.9619    8.6347    6.4524 N   0  0  0  0  0  0  0  0  0  0  0  0
  1  2  1  0
  2  3  1  0
  3  4  2  0
  4  5  1  0
  5  6  1  0
  6  7  1  0
  6  8  2  0
  6  9  2  0
  5 10  2  0
 10 11  1  0
 11 12  1  0
 10 13  1  0
 13 14  2  0
 14 15  1  0
 14  3  1  0
A    1
 C1 
A    2
 O1 
A    3
 C2 
A    4
 C3 
A    5
 C4 
A    6
 S1 
A    7
 N1 
A    8
 O2 
A    9
 O3 
A   10
 C5 
A   11
 O4 
A   12
 C6 
A   13
 C7 
A   14
 C8 
A   15
 N2 
M  END
>  <ref_pdb>  (1316) 
Ax0310a

>  <ref_mols>  (1316) 
Ax0446a,Ax1080a,Ax0812a,Ax0719a,Ax1140a,Ax0528a,Ax0310a

>  <original SMILES>  (1316) 
COc1cc(S(N)(=O)=O)c(OC)cc1N

>  <rationale>  (1316) 
info info set:sulfonimide_whole;hbond:S87+S105+S125; 

>  <experiment>  (1316) 
sulfonimide_whole

>  <cluster_label>  (1316) 
3

>  <cluster_rank>  (1316) 
973

>  <N_interactions>  (1316) 
3

>  <∆∆G>  (1316) 
-7.405264

>  <comRMSD>  (1316) 
0.691348

>  <ROCS_TanimotoCombo>  (1316) 
0.332

>  <ROCS_ShapeTanimoto>  (1316) 
0.205

>  <ROCS_ColorTanimoto>  (1316) 
0.128

$$$$
EN300_231328
     RDKit          3D

 12 12  0  0  0  0  0  0  0  0999 V2000
   29.3053    8.1401    8.4651 C   0  0  0  0  0  0  0  0  0  0  0  0
   30.6784    7.8633    8.4161 C   0  0  0  0  0  0  0  0  0  0  0  0
   31.3425    8.9460    8.4802 C   0  0  0  0  0  0  0  0  0  0  0  0
   31.8327    9.6801    7.3631 N   0  0  0  0  0  0  0  0  0  0  0  0
   32.6895    9.1304    6.4541 N   0  0  0  0  0  0  0  0  0  0  0  0
   32.9390   10.1433    5.6105 C   0  0  0  0  0  0  0  0  0  0  0  0
   32.2472   11.3000    5.9754 C   0  0  0  0  0  0  0  0  0  0  0  0
   31.5501   10.9606    7.0963 C   0  0  0  0  0  0  0  0  0  0  0  0
   30.6559   12.0162    7.7909 C   0  0  0  0  0  0  0  0  0  0  0  0
   29.5290   11.8119    8.1769 O   0  0  0  0  0  0  0  0  0  0  0  0
   31.2788   13.2095    7.9373 O   0  0  0  0  0  0  0  0  0  0  0  0
   30.6002   14.0437    8.8844 C   0  0  0  0  0  0  0  0  0  0  0  0
  1  2  1  0
  2  3  1  0
  3  4  1  0
  4  5  1  0
  5  6  2  0
  6  7  1  0
  7  8  2  0
  8  9  1  0
  9 10  2  0
  9 11  1  0
 11 12  1  0
  8  4  1  0
A    1
 C1 
A    2
 C2 
A    3
 C3 
A    4
 N1 
A    5
 N2 
A    6
 C4 
A    7
 C5 
A    8
 C6 
A    9
 C7 
A   10
 O1 
A   11
 O2 
A   12
 C8 
M  END
>  <ref_pdb>  (1317) 
Ax0310a

>  <ref_mols>  (1317) 
Ax0446a,Ax1080a,Ax0812a,Ax0719a,Ax1140a,Ax0528a,Ax0310a

>  <original SMILES>  (1317) 
CCCn1nccc1C(=O)OC

>  <rationale>  (1317) 
info info set:bb_densepocket2;hydroph_interaction:P107+V124+D109; 

>  <experiment>  (1317) 
bb_densepocket2

>  <cluster_label>  (1317) 
3

>  <cluster_rank>  (1317) 
974

>  <N_interactions>  (1317) 
3

>  <∆∆G>  (1317) 
-1.273541

>  <comRMSD>  (1317) 
0.880791

>  <ROCS_TanimotoCombo>  (1317) 
0.617

>  <ROCS_ShapeTanimoto>  (1317) 
0.198

>  <ROCS_ColorTanimoto>  (1317) 
0.419

$$$$
Z53038500
     RDKit          3D

 15 16  0  0  0  0  0  0  0  0999 V2000
   37.4091   13.7722    9.6957 C   0  0  0  0  0  0  0  0  0  0  0  0
   36.1300   13.5289    9.0210 C   0  0  0  0  0  0  0  0  0  0  0  0
   35.1745   14.5619    9.0253 N   0  0  0  0  0  0  0  0  0  0  0  0
   33.8737   14.3600    7.9981 S   0  0  0  0  0  6  0  0  0  0  0  0
   34.2513   15.0763    6.8005 O   0  0  0  0  0  0  0  0  0  0  0  0
   32.7983   14.6787    8.9363 O   0  0  0  0  0  0  0  0  0  0  0  0
   33.3504   12.7943    7.4342 C   0  0  0  0  0  0  0  0  0  0  0  0
   33.9532   12.0731    6.4051 C   0  0  0  0  0  0  0  0  0  0  0  0
   33.4850   10.8025    6.0499 C   0  0  0  0  0  0  0  0  0  0  0  0
   32.3064   10.1854    6.7845 C   0  0  0  0  0  0  0  0  0  0  0  0
   31.7334   10.9497    7.7529 C   0  0  0  0  0  0  0  0  0  0  0  0
   32.2575   12.3007    8.0920 C   0  0  0  0  0  0  0  0  0  0  0  0
   30.6370   10.1561    8.2853 C   0  0  0  0  0  0  0  0  0  0  0  0
   31.1921    8.8412    7.8166 C   0  0  0  0  0  0  0  0  0  0  0  0
   31.7005    8.9927    6.6704 O   0  0  0  0  0  0  0  0  0  0  0  0
  1  2  1  0
  2  3  1  0
  3  4  1  0
  4  5  2  0
  4  6  2  0
  4  7  1  0
  7  8  2  0
  8  9  1  0
  9 10  2  0
 10 11  1  0
 11 12  2  0
 11 13  1  0
 13 14  1  0
 14 15  1  0
 12  7  1  0
 15 10  1  0
A    1
 C1 
A    2
 C2 
A    3
 N1 
A    4
 S1 
A    5
 O1 
A    6
 O2 
A    7
 C3 
A    8
 C4 
A    9
 C5 
A   10
 C6 
A   11
 C7 
A   12
 C8 
A   13
 C9 
A   14
 C10
A   15
 O3 
M  END
>  <ref_pdb>  (1318) 
Ax0310a

>  <ref_mols>  (1318) 
Ax0446a,Ax1080a,Ax0812a,Ax0719a,Ax1140a,Ax0528a,Ax0310a

>  <original SMILES>  (1318) 
CCNS(=O)(=O)c1ccc2c(c1)CCO2

>  <rationale>  (1318) 
info info set:3d;hbond:S87; hydroph_interaction:E85; 

>  <experiment>  (1318) 
3d

>  <cluster_label>  (1318) 
3

>  <cluster_rank>  (1318) 
975

>  <N_interactions>  (1318) 
2

>  <∆∆G>  (1318) 
-0.926611

>  <comRMSD>  (1318) 
0.729777

>  <ROCS_TanimotoCombo>  (1318) 
0.315

>  <ROCS_ShapeTanimoto>  (1318) 
0.18

>  <ROCS_ColorTanimoto>  (1318) 
0.135

$$$$
Z31112530
     RDKit          3D

 31 35  0  0  0  0  0  0  0  0999 V2000
   33.5672   12.9584    9.3332 O   0  0  0  0  0  0  0  0  0  0  0  0
   33.0974   13.8206    8.6114 N   0  0  0  0  0  4  0  0  0  0  0  0
   32.3007   14.6760    9.0585 O   0  0  0  0  0  1  0  0  0  0  0  0
   33.7738   14.0800    7.4483 C   0  0  0  0  0  0  0  0  0  0  0  0
   34.9877   14.5812    7.4161 N   0  0  0  0  0  0  0  0  0  0  0  0
   35.5066   14.8022    6.2154 C   0  0  0  0  0  0  0  0  0  0  0  0
   34.9266   14.5616    4.8601 C   0  0  0  0  0  0  0  0  0  0  0  0
   33.6939   14.0445    5.0004 C   0  0  0  0  0  0  0  0  0  0  0  0
   33.0928   13.7956    6.2407 C   0  0  0  0  0  0  0  0  0  0  0  0
   31.8587   13.2783    6.1150 O   0  0  0  0  0  0  0  0  0  0  0  0
   32.1382   11.9284    6.2100 C   0  0  0  0  0  0  0  0  0  0  0  0
   33.1143   11.4763    5.4565 N   0  0  0  0  0  0  0  0  0  0  0  0
   33.4117   10.1006    5.6105 C   0  0  0  0  0  0  0  0  0  0  0  0
   34.5523    9.5403    4.7419 C   0  0  0  0  0  0  0  0  0  0  0  0
   35.0056    8.3254    5.3262 C   0  0  0  0  0  0  0  0  0  0  0  0
   36.0665    7.4310    4.7510 C   0  0  0  0  0  0  0  0  0  0  0  0
   36.6142    8.0298    3.4748 C   0  0  0  0  0  0  0  0  0  0  0  0
   36.0313    9.3792    2.9951 C   0  0  0  0  0  0  0  0  0  0  0  0
   35.0442   10.0719    3.6168 N   0  0  0  0  0  0  0  0  0  0  0  0
   32.7863    9.2610    6.4412 N   0  0  0  0  0  0  0  0  0  0  0  0
   31.8278    9.8355    7.1410 C   0  0  0  0  0  0  0  0  0  0  0  0
   30.9541    8.9281    8.2553 S   0  0  0  0  0  0  0  0  0  0  0  0
   30.1086   10.3178    8.6362 C   0  0  0  0  0  0  0  0  0  0  0  0
   30.4012   11.4807    7.9250 C   0  0  0  0  0  0  0  0  0  0  0  0
   29.7512   12.7262    8.0704 C   0  0  0  0  0  0  0  0  0  0  0  0
   30.0125   13.5754    9.1271 C   0  0  0  0  0  0  0  0  0  0  0  0
   29.3519   14.7743    9.2359 C   0  0  0  0  0  0  0  0  0  0  0  0
   28.4244   15.1642    8.2943 C   0  0  0  0  0  0  0  0  0  0  0  0
   28.1503   14.3500    7.2267 C   0  0  0  0  0  0  0  0  0  0  0  0
   28.8081   13.1258    7.1076 C   0  0  0  0  0  0  0  0  0  0  0  0
   31.4483   11.1610    7.0696 C   0  0  0  0  0  0  0  0  0  0  0  0
  1  2  2  0
  2  3  1  0
  2  4  1  0
  4  5  2  0
  5  6  1  0
  6  7  2  0
  7  8  1  0
  8  9  2  0
  9 10  1  0
 10 11  1  0
 11 12  2  0
 12 13  1  0
 13 14  1  0
 14 15  2  0
 15 16  1  0
 16 17  2  0
 17 18  1  0
 18 19  2  0
 13 20  2  0
 20 21  1  0
 21 22  1  0
 22 23  1  0
 23 24  2  0
 24 25  1  0
 25 26  2  0
 26 27  1  0
 27 28  2  0
 28 29  1  0
 29 30  2  0
 24 31  1  0
  9  4  1  0
 31 11  1  0
 19 14  1  0
 31 21  2  0
 30 25  1  0
M  CHG  2   2   1   3  -1
A    1
 O1 
A    2
 N1 
A    3
 O2 
A    4
 C1 
A    5
 N2 
A    6
 C2 
A    7
 C3 
A    8
 C4 
A    9
 C5 
A   10
 O3 
A   11
 C6 
A   12
 N3 
A   13
 C7 
A   14
 C8 
A   15
 C9 
A   16
 C10
A   17
 C11
A   18
 C12
A   19
 N4 
A   20
 N5 
A   21
 C13
A   22
 S1 
A   23
 C14
A   24
 C15
A   25
 C16
A   26
 C17
A   27
 C18
A   28
 C19
A   29
 C20
A   30
 C21
A   31
 C22
M  END
>  <ref_pdb>  (1319) 
Ax0310a

>  <ref_mols>  (1319) 
Ax0446a,Ax1080a,Ax0812a,Ax0719a,Ax1140a,Ax0528a,Ax0310a

>  <original SMILES>  (1319) 
O=[N+]([O-])c1ncccc1Oc1nc(-c2ccccn2)nc2scc(-c3ccccc3)c12

>  <rationale>  (1319) 
info info set:screening_whole;hydroph_interaction:Y89+Y90; pistack:H21; 

>  <experiment>  (1319) 
screening_whole

>  <cluster_label>  (1319) 
3

>  <cluster_rank>  (1319) 
976

>  <N_interactions>  (1319) 
3

>  <∆∆G>  (1319) 
-0.679534

>  <comRMSD>  (1319) 
0.97892

>  <ROCS_TanimotoCombo>  (1319) 
0.461

>  <ROCS_ShapeTanimoto>  (1319) 
0.293

>  <ROCS_ColorTanimoto>  (1319) 
0.168

$$$$
EN300_7409041
     RDKit          3D

 16 17  0  0  0  0  0  0  0  0999 V2000
   35.2709    8.3358    4.0917 C   0  0  0  0  0  0  0  0  0  0  0  0
   34.4452    8.6495    5.2010 O   0  0  0  0  0  0  0  0  0  0  0  0
   34.1318    9.9410    5.4458 C   0  0  0  0  0  0  0  0  0  0  0  0
   34.8253   11.0242    4.9267 C   0  0  0  0  0  0  0  0  0  0  0  0
   34.4279   12.3187    5.2436 C   0  0  0  0  0  0  0  0  0  0  0  0
   33.2197   12.5335    6.1683 C   0  0  0  0  0  0  0  0  0  0  0  0
   32.5629   11.4117    6.6633 C   0  0  0  0  0  0  0  0  0  0  0  0
   31.3950   11.5176    7.5603 C   0  0  0  0  0  0  0  0  0  0  0  0
   30.8411   13.1154    7.9590 S   0  0  0  0  0  6  0  0  0  0  0  0
   29.3651   12.9074    8.6756 N   0  0  0  0  0  0  0  0  0  0  0  0
   30.4839   13.6483    6.6838 O   0  0  0  0  0  0  0  0  0  0  0  0
   31.7462   13.7438    8.9042 O   0  0  0  0  0  0  0  0  0  0  0  0
   30.7483   10.3999    8.0625 C   0  0  0  0  0  0  0  0  0  0  0  0
   31.2138    9.1572    7.7004 C   0  0  0  0  0  0  0  0  0  0  0  0
   32.3155    9.0480    6.8420 C   0  0  0  0  0  0  0  0  0  0  0  0
   33.0078   10.1259    6.3117 C   0  0  0  0  0  0  0  0  0  0  0  0
  1  2  1  0
  2  3  1  0
  3  4  2  0
  4  5  1  0
  5  6  2  0
  6  7  1  0
  7  8  2  0
  8  9  1  0
  9 10  1  0
  9 11  2  0
  9 12  2  0
  8 13  1  0
 13 14  2  0
 14 15  1  0
 15 16  2  0
 16  3  1  0
 16  7  1  0
A    1
 C1 
A    2
 O1 
A    3
 C2 
A    4
 C3 
A    5
 C4 
A    6
 C5 
A    7
 C6 
A    8
 C7 
A    9
 S1 
A   10
 N1 
A   11
 O2 
A   12
 O3 
A   13
 C8 
A   14
 C9 
A   15
 C10
A   16
 C11
M  END
>  <ref_pdb>  (1320) 
Ax0310a

>  <ref_mols>  (1320) 
Ax0446a,Ax1080a,Ax0812a,Ax0719a,Ax1140a,Ax0528a,Ax0310a

>  <original SMILES>  (1320) 
COc1cccc2c(S(N)(=O)=O)cccc12

>  <rationale>  (1320) 
info info set:sulfonimide_whole;hbond:S87+S125; 

>  <experiment>  (1320) 
sulfonimide_whole

>  <cluster_label>  (1320) 
3

>  <cluster_rank>  (1320) 
977

>  <N_interactions>  (1320) 
2

>  <∆∆G>  (1320) 
-7.42251

>  <comRMSD>  (1320) 
0.393694

>  <ROCS_TanimotoCombo>  (1320) 
0.329

>  <ROCS_ShapeTanimoto>  (1320) 
0.207

>  <ROCS_ColorTanimoto>  (1320) 
0.122

$$$$
Z56922070
     RDKit          3D

 13 14  0  0  0  0  0  0  0  0999 V2000
   32.4510    8.1858    6.6523 O   0  0  0  0  0  0  0  0  0  0  0  0
   32.0482    9.2744    6.9374 C   0  0  0  0  0  0  0  0  0  0  0  0
   30.8780    9.3479    7.8714 C   0  0  0  0  0  0  0  0  0  0  0  0
   30.2470   10.6834    8.1305 C   0  0  0  0  0  0  0  0  0  0  0  0
   31.0545   12.1237    7.5558 S   0  0  0  0  0  6  0  0  0  0  0  0
   30.2138   12.7235    6.5572 O   0  0  0  0  0  0  0  0  0  0  0  0
   31.4539   12.8943    8.6946 O   0  0  0  0  0  0  0  0  0  0  0  0
   32.4621   11.6457    6.7298 C   0  0  0  0  0  0  0  0  0  0  0  0
   33.3376   12.7572    6.2644 C   0  0  0  0  0  0  0  0  0  0  0  0
   34.5877   12.3540    5.5040 C   0  0  0  0  0  0  0  0  0  0  0  0
   34.8364   10.9917    5.2816 C   0  0  0  0  0  0  0  0  0  0  0  0
   34.0272    9.8869    5.7158 C   0  0  0  0  0  0  0  0  0  0  0  0
   32.7841   10.3445    6.4950 C   0  0  0  0  0  0  0  0  0  0  0  0
  1  2  2  0
  2  3  1  0
  3  4  1  0
  4  5  1  0
  5  6  2  0
  5  7  2  0
  5  8  1  0
  8  9  2  0
  9 10  1  0
 10 11  2  0
 11 12  1  0
 12 13  2  0
 13  2  1  0
 13  8  1  0
A    1
 O1 
A    2
 C1 
A    3
 C2 
A    4
 C3 
A    5
 S1 
A    6
 O2 
A    7
 O3 
A    8
 C4 
A    9
 C5 
A   10
 C6 
A   11
 C7 
A   12
 C8 
A   13
 C9 
M  END
>  <ref_pdb>  (1321) 
Ax0310a

>  <ref_mols>  (1321) 
Ax0446a,Ax1080a,Ax0812a,Ax0719a,Ax1140a,Ax0528a,Ax0310a

>  <original SMILES>  (1321) 
O=C1CCS(=O)(=O)c2ccccc21

>  <rationale>  (1321) 
info info set:3d;

>  <experiment>  (1321) 
3d

>  <cluster_label>  (1321) 
3

>  <cluster_rank>  (1321) 
978

>  <N_interactions>  (1321) 
0

>  <∆∆G>  (1321) 
-2.692474

>  <comRMSD>  (1321) 
0.948574

>  <ROCS_TanimotoCombo>  (1321) 
0.301

>  <ROCS_ShapeTanimoto>  (1321) 
0.178

>  <ROCS_ColorTanimoto>  (1321) 
0.123

$$$$
EN300_1294814
     RDKit          3D

 13 13  0  0  0  0  0  0  0  0999 V2000
   31.9693   13.1194    5.5821 C   0  0  0  0  0  0  0  0  0  0  0  0
   31.9664   11.7450    6.2673 C   0  0  0  0  0  0  0  0  0  0  0  0
   32.8226   10.7927    5.4324 C   0  0  0  0  0  0  0  0  0  0  0  0
   32.8973    9.3716    6.0030 C   0  0  0  0  0  0  0  0  0  0  0  0
   32.2046    9.0491    7.2103 N   0  0  0  0  0  0  0  0  0  0  0  0
   31.4478   10.1096    7.8676 C   0  0  0  0  0  0  0  0  0  0  0  0
   30.7892    9.9000    9.0382 O   0  0  0  0  0  0  0  0  0  0  0  0
   29.8864    8.8671    9.0949 C   0  0  0  0  0  0  0  0  0  0  0  0
   29.0598    8.8017    8.0457 C   0  0  0  0  0  0  0  0  0  0  0  0
   29.1059    8.5742   10.1877 C   0  0  0  0  0  0  0  0  0  0  0  0
   30.6573    7.6717    8.9207 C   0  0  0  0  0  0  0  0  0  0  0  0
   31.3133   11.4081    7.4344 C   0  0  0  0  0  0  0  0  0  0  0  0
   30.5437   12.3417    8.1646 N   0  0  0  0  0  0  0  0  0  0  0  0
  1  2  1  0
  2  3  2  0
  3  4  1  0
  4  5  2  0
  5  6  1  0
  6  7  1  0
  7  8  1  0
  8  9  1  0
  8 10  1  0
  8 11  1  0
  6 12  2  0
 12 13  1  0
 12  2  1  0
A    1
 C1 
A    2
 C2 
A    3
 C3 
A    4
 C4 
A    5
 N1 
A    6
 C5 
A    7
 O1 
A    8
 C6 
A    9
 C7 
A   10
 C8 
A   11
 C9 
A   12
 C10
A   13
 N2 
M  END
>  <ref_pdb>  (1322) 
Ax0310a

>  <ref_mols>  (1322) 
Ax0446a,Ax1080a,Ax0812a,Ax0719a,Ax1140a,Ax0528a,Ax0310a

>  <original SMILES>  (1322) 
Cc1ccnc(OC(C)(C)C)c1N

>  <rationale>  (1322) 
info info set:bb_densepocket2;hbond:S125; hydroph_interaction:P107; 

>  <experiment>  (1322) 
bb_densepocket2

>  <cluster_label>  (1322) 
3

>  <cluster_rank>  (1322) 
979

>  <N_interactions>  (1322) 
2

>  <∆∆G>  (1322) 
-4.126671

>  <comRMSD>  (1322) 
0.633399

>  <ROCS_TanimotoCombo>  (1322) 
0.611

>  <ROCS_ShapeTanimoto>  (1322) 
0.21

>  <ROCS_ColorTanimoto>  (1322) 
0.4

$$$$
EN300_141159
     RDKit          3D

 12 12  0  0  0  0  0  0  0  0999 V2000
   28.7662   13.0649    7.8679 C   0  0  0  0  0  0  0  0  0  0  0  0
   30.0805   12.6626    7.4504 O   0  0  0  0  0  0  0  0  0  0  0  0
   30.4788   11.4389    7.9083 C   0  0  0  0  0  0  0  0  0  0  0  0
   30.0067   10.8637    8.8361 O   0  0  0  0  0  0  0  0  0  0  0  0
   31.5712   10.7975    7.1313 C   0  0  0  0  0  0  0  0  0  0  0  0
   32.5255   11.5697    6.2573 C   0  0  0  0  0  0  0  0  0  0  0  0
   33.5227   10.8469    5.5518 N   0  0  0  0  0  0  0  0  0  0  0  0
   33.5354    9.5126    5.7235 C   0  0  0  0  0  0  0  0  0  0  0  0
   34.4900    8.8012    5.0425 N   0  0  0  0  0  0  0  0  0  0  0  0
   32.6994    8.8220    6.5004 N   0  0  0  0  0  0  0  0  0  0  0  0
   31.7382    9.4350    7.1937 C   0  0  0  0  0  0  0  0  0  0  0  0
   30.9139    8.5984    7.9769 N   0  0  0  0  0  0  0  0  0  0  0  0
  1  2  1  0
  2  3  1  0
  3  4  2  0
  3  5  1  0
  5  6  2  0
  6  7  1  0
  7  8  2  0
  8  9  1  0
  8 10  1  0
 10 11  2  0
 11 12  1  0
 11  5  1  0
A    1
 C1 
A    2
 O1 
A    3
 C2 
A    4
 O2 
A    5
 C3 
A    6
 C4 
A    7
 N1 
A    8
 C5 
A    9
 N2 
A   10
 N3 
A   11
 C6 
A   12
 N4 
M  END
>  <ref_pdb>  (1323) 
Ax0310a

>  <ref_mols>  (1323) 
Ax0446a,Ax1080a,Ax0812a,Ax0719a,Ax1140a,Ax0528a,Ax0310a

>  <original SMILES>  (1323) 
COC(=O)c1cnc(N)nc1N

>  <rationale>  (1323) 
info info set:bb_densepocket2;hbond:S105; 

>  <experiment>  (1323) 
bb_densepocket2

>  <cluster_label>  (1323) 
3

>  <cluster_rank>  (1323) 
980

>  <N_interactions>  (1323) 
2

>  <∆∆G>  (1323) 
-2.295548

>  <comRMSD>  (1323) 
0.509621

>  <ROCS_TanimotoCombo>  (1323) 
0.616

>  <ROCS_ShapeTanimoto>  (1323) 
0.238

>  <ROCS_ColorTanimoto>  (1323) 
0.378

$$$$
Z1269132264
     RDKit          3D

 14 14  0  0  0  0  0  0  0  0999 V2000
   30.9908    8.5208    8.6022 C   0  0  0  0  0  0  0  0  0  0  0  0
   31.2273    9.7265    8.0928 N   0  0  0  0  0  0  0  0  0  0  0  0
   30.4651   10.8691    8.4302 C   0  0  0  0  0  0  0  0  0  0  0  0
   31.0383   11.8514    7.7552 C   0  0  0  0  0  0  0  0  0  0  0  0
   30.4664   13.4317    7.8802 S   0  0  0  0  0  6  0  0  0  0  0  0
   29.1639   13.4490    8.9237 N   0  0  0  0  0  0  0  0  0  0  0  0
   31.5450   14.1374    8.5403 O   0  0  0  0  0  0  0  0  0  0  0  0
   29.9681   13.6836    6.5499 O   0  0  0  0  0  0  0  0  0  0  0  0
   32.1056   11.3472    6.9972 C   0  0  0  0  0  0  0  0  0  0  0  0
   32.9352   12.0762    6.1496 C   0  0  0  0  0  0  0  0  0  0  0  0
   33.2655   11.5057    4.9811 F   0  0  0  0  0  0  0  0  0  0  0  0
   34.1055   12.4317    6.7110 F   0  0  0  0  0  0  0  0  0  0  0  0
   32.3509   13.2539    5.8076 F   0  0  0  0  0  0  0  0  0  0  0  0
   32.2178   10.0014    7.2114 N   0  0  0  0  0  0  0  0  0  0  0  0
  1  2  1  0
  2  3  1  0
  3  4  2  0
  4  5  1  0
  5  6  1  0
  5  7  2  0
  5  8  2  0
  4  9  1  0
  9 10  1  0
 10 11  1  0
 10 12  1  0
 10 13  1  0
  9 14  2  0
 14  2  1  0
A    1
 C1 
A    2
 N1 
A    3
 C2 
A    4
 C3 
A    5
 S1 
A    6
 N2 
A    7
 O1 
A    8
 O2 
A    9
 C4 
A   10
 C5 
A   11
 F1 
A   12
 F2 
A   13
 F3 
A   14
 N3 
M  END
>  <ref_pdb>  (1324) 
Ax0310a

>  <ref_mols>  (1324) 
Ax0446a,Ax1080a,Ax0812a,Ax0719a,Ax1140a,Ax0528a,Ax0310a

>  <original SMILES>  (1324) 
Cn1cc(S(N)(=O)=O)c(C(F)(F)F)n1

>  <rationale>  (1324) 
info info set:3d;hbond:S87+S125; 

>  <experiment>  (1324) 
3d

>  <cluster_label>  (1324) 
3

>  <cluster_rank>  (1324) 
981

>  <N_interactions>  (1324) 
2

>  <∆∆G>  (1324) 
-4.054893

>  <comRMSD>  (1324) 
0.749598

>  <ROCS_TanimotoCombo>  (1324) 
0.297

>  <ROCS_ShapeTanimoto>  (1324) 
0.178

>  <ROCS_ColorTanimoto>  (1324) 
0.119

$$$$
Z2061493315
     RDKit          3D

 16 16  0  0  0  0  0  0  0  0999 V2000
   29.6763    9.0275    9.4099 C   0  0  0  0  0  0  0  0  0  0  0  0
   29.2758    9.7274    8.2183 C   0  0  0  0  0  0  0  0  0  0  0  0
   28.9984   11.2438    8.1098 C   0  0  0  0  0  0  0  0  0  0  0  0
   28.0040   11.7541    9.0365 C   0  0  0  0  0  0  0  0  0  0  0  0
   28.1812   11.9076    6.9946 C   0  0  0  0  0  0  0  0  0  0  0  0
   30.3321   11.9611    8.0469 C   0  0  0  0  0  0  0  0  0  0  0  0
   30.6664   12.7930    8.8844 O   0  0  0  0  0  0  0  0  0  0  0  0
   31.1629   11.6809    7.0003 N   0  0  0  0  0  0  0  0  0  0  0  0
   31.5830   12.5567    5.9525 C   0  0  0  0  0  0  0  0  0  0  0  0
   32.7653   11.8579    5.2119 C   0  0  1  0  0  0  0  0  0  0  0  0
   33.7847   12.7209    4.8884 C   0  0  0  0  0  0  0  0  0  0  0  0
   33.2505   10.8592    6.2427 C   0  0  2  0  0  0  0  0  0  0  0  0
   33.2458    9.3475    5.9500 C   0  0  0  0  0  0  0  0  0  0  0  0
   34.2178    8.8536    5.0253 N   0  0  0  0  0  0  0  0  0  0  0  0
   32.4747    8.5847    6.5023 O   0  0  0  0  0  0  0  0  0  0  0  0
   32.3399   11.0720    7.4140 C   0  0  0  0  0  0  0  0  0  0  0  0
  1  2  1  0
  2  3  1  0
  3  4  1  0
  3  5  1  0
  3  6  1  0
  6  7  2  0
  6  8  1  0
  8  9  1  0
  9 10  1  0
 10 11  1  1
 10 12  1  0
 12 13  1  6
 13 14  1  0
 13 15  2  0
 12 16  1  0
 16  8  1  0
A    1
 C1 
A    2
 C2 
A    3
 C3 
A    4
 C4 
A    5
 C5 
A    6
 C6 
A    7
 O1 
A    8
 N1 
A    9
 C7 
A   10
 C8 
A   11
 C9 
A   12
 C10
A   13
 C11
A   14
 N2 
A   15
 O2 
A   16
 C12
M  END
>  <ref_pdb>  (1325) 
Ax0310a

>  <ref_mols>  (1325) 
Ax0446a,Ax1080a,Ax0812a,Ax0719a,Ax1140a,Ax0528a,Ax0310a

>  <original SMILES>  (1325) 
CCC(C)(C)C(=O)N1C[C@@H](C)[C@H](C(N)=O)C1

>  <rationale>  (1325) 
info info set:screening_pocket;hbond:S105; hydroph_interaction:P107+V124; 

>  <experiment>  (1325) 
screening_pocket

>  <cluster_label>  (1325) 
3

>  <cluster_rank>  (1325) 
982

>  <N_interactions>  (1325) 
4

>  <∆∆G>  (1325) 
-0.007199

>  <comRMSD>  (1325) 
0.966657

>  <ROCS_TanimotoCombo>  (1325) 
0.643

>  <ROCS_ShapeTanimoto>  (1325) 
0.223

>  <ROCS_ColorTanimoto>  (1325) 
0.419

$$$$
EN300_886814
     RDKit          3D

 13 13  0  0  0  0  0  0  0  0999 V2000
   29.8675    6.9561    9.1907 C   0  0  0  0  0  0  0  0  0  0  0  0
   29.9097    8.3462    9.0851 C   0  0  0  0  0  0  0  0  0  0  0  0
   29.0827    8.7708    8.0792 C   0  0  0  0  0  0  0  0  0  0  0  0
   29.2616    8.6769   10.2147 C   0  0  0  0  0  0  0  0  0  0  0  0
   31.1496    8.9500    8.9104 O   0  0  0  0  0  0  0  0  0  0  0  0
   31.0569   10.1466    8.2678 C   0  0  0  0  0  0  0  0  0  0  0  0
   30.2726   11.0330    8.5589 O   0  0  0  0  0  0  0  0  0  0  0  0
   32.0897   10.2707    7.1051 C   0  0  0  0  0  0  0  0  0  0  0  0
   32.5026   11.5598    6.4928 C   0  0  0  0  0  0  0  0  0  0  0  0
   33.6499   11.3042    5.2666 S   0  0  0  0  0  0  0  0  0  0  0  0
   33.5784    9.6111    5.5582 C   0  0  0  0  0  0  0  0  0  0  0  0
   34.3330    8.7629    4.8449 N   0  0  0  0  0  0  0  0  0  0  0  0
   32.7295    9.1885    6.5393 N   0  0  0  0  0  0  0  0  0  0  0  0
  1  2  1  0
  2  3  1  0
  2  4  1  0
  2  5  1  0
  5  6  1  0
  6  7  2  0
  6  8  1  0
  8  9  2  0
  9 10  1  0
 10 11  1  0
 11 12  1  0
 11 13  2  0
 13  8  1  0
A    1
 C1 
A    2
 C2 
A    3
 C3 
A    4
 C4 
A    5
 O1 
A    6
 C5 
A    7
 O2 
A    8
 C6 
A    9
 C7 
A   10
 S1 
A   11
 C8 
A   12
 N1 
A   13
 N2 
M  END
>  <ref_pdb>  (1326) 
Ax0310a

>  <ref_mols>  (1326) 
Ax0446a,Ax1080a,Ax0812a,Ax0719a,Ax1140a,Ax0528a,Ax0310a

>  <original SMILES>  (1326) 
CC(C)(C)OC(=O)c1csc(N)n1

>  <rationale>  (1326) 
info info set:bb_densepocket2;hbond:S105; hydroph_interaction:V124+D109; 

>  <experiment>  (1326) 
bb_densepocket2

>  <cluster_label>  (1326) 
3

>  <cluster_rank>  (1326) 
983

>  <N_interactions>  (1326) 
4

>  <∆∆G>  (1326) 
-1.267163

>  <comRMSD>  (1326) 
0.555178

>  <ROCS_TanimotoCombo>  (1326) 
0.606

>  <ROCS_ShapeTanimoto>  (1326) 
0.196

>  <ROCS_ColorTanimoto>  (1326) 
0.411

$$$$
EN300_25988537
     RDKit          3D

 13 13  0  0  0  0  0  0  0  0999 V2000
   27.9544   13.1475    7.0759 C   0  0  0  0  0  0  0  0  0  0  0  0
   29.0732   13.1589    8.0864 C   0  0  0  0  0  0  0  0  0  0  0  0
   30.2367   12.5839    7.4682 O   0  0  0  0  0  0  0  0  0  0  0  0
   30.5668   11.3549    7.9275 C   0  0  0  0  0  0  0  0  0  0  0  0
   30.0855   10.7731    8.8464 O   0  0  0  0  0  0  0  0  0  0  0  0
   31.5586   10.7589    7.1971 C   0  0  0  0  0  0  0  0  0  0  0  0
   32.4231   11.4872    6.3994 C   0  0  0  0  0  0  0  0  0  0  0  0
   33.3993   10.9271    5.6671 N   0  0  0  0  0  0  0  0  0  0  0  0
   33.4555    9.5765    5.7847 C   0  0  0  0  0  0  0  0  0  0  0  0
   34.4337    8.9889    5.0527 O   0  0  0  0  0  0  0  0  0  0  0  0
   32.6746    8.8022    6.5248 N   0  0  0  0  0  0  0  0  0  0  0  0
   31.7186    9.3920    7.2410 C   0  0  0  0  0  0  0  0  0  0  0  0
   30.9009    8.5471    8.0196 N   0  0  0  0  0  0  0  0  0  0  0  0
  1  2  1  0
  2  3  1  0
  3  4  1  0
  4  5  2  0
  4  6  1  0
  6  7  2  0
  7  8  1  0
  8  9  2  0
  9 10  1  0
  9 11  1  0
 11 12  2  0
 12 13  1  0
 12  6  1  0
A    1
 C1 
A    2
 C2 
A    3
 O1 
A    4
 C3 
A    5
 O2 
A    6
 C4 
A    7
 C5 
A    8
 N1 
A    9
 C6 
A   10
 O3 
A   11
 N2 
A   12
 C7 
A   13
 N3 
M  END
>  <ref_pdb>  (1327) 
Ax0310a

>  <ref_mols>  (1327) 
Ax0446a,Ax1080a,Ax0812a,Ax0719a,Ax1140a,Ax0528a,Ax0310a

>  <original SMILES>  (1327) 
CCOC(=O)c1cnc(O)nc1N

>  <rationale>  (1327) 
info info set:bb_densepocket2;hbond:S105+G127; 

>  <experiment>  (1327) 
bb_densepocket2

>  <cluster_label>  (1327) 
3

>  <cluster_rank>  (1327) 
984

>  <N_interactions>  (1327) 
2

>  <∆∆G>  (1327) 
-1.939061

>  <comRMSD>  (1327) 
0.632184

>  <ROCS_TanimotoCombo>  (1327) 
0.62

>  <ROCS_ShapeTanimoto>  (1327) 
0.241

>  <ROCS_ColorTanimoto>  (1327) 
0.379

$$$$
EN300_21047708
     RDKit          3D

 10 10  0  0  0  0  0  0  0  0999 V2000
   33.9851   12.1180    4.9398 C   0  0  0  0  0  0  0  0  0  0  0  0
   33.1419   11.1789    5.7951 C   0  0  0  0  0  0  0  0  0  0  0  0
   32.1215   11.8799    6.6548 C   0  0  0  0  0  0  0  0  0  0  0  0
   31.2506   10.9785    7.5355 C   0  0  0  0  0  0  0  0  0  0  0  0
   30.2674   11.5167    8.3731 N   0  0  0  0  0  0  0  0  0  0  0  0
   31.5046    9.6061    7.4445 C   0  0  0  0  0  0  0  0  0  0  0  0
   30.7689    8.7546    8.2047 N   0  0  0  0  0  0  0  0  0  0  0  0
   32.4445    9.0328    6.6436 N   0  0  0  0  0  0  0  0  0  0  0  0
   33.2239    9.8176    5.8526 C   0  0  0  0  0  0  0  0  0  0  0  0
   34.3762    8.9938    4.8757 Cl  0  0  0  0  0  0  0  0  0  0  0  0
  1  2  1  0
  2  3  2  0
  3  4  1  0
  4  5  1  0
  4  6  2  0
  6  7  1  0
  6  8  1  0
  8  9  2  0
  9 10  1  0
  9  2  1  0
A    1
 C1 
A    2
 C2 
A    3
 C3 
A    4
 C4 
A    5
 N1 
A    6
 C5 
A    7
 N2 
A    8
 N3 
A    9
 C6 
A   10
CL1 
M  END
>  <ref_pdb>  (1328) 
Ax0310a

>  <ref_mols>  (1328) 
Ax0446a,Ax1080a,Ax0812a,Ax0719a,Ax1140a,Ax0528a,Ax0310a

>  <original SMILES>  (1328) 
Cc1cc(N)c(N)nc1Cl

>  <rationale>  (1328) 
info info set:bb_densepocket2;hbond:S105+S125+G127; 

>  <experiment>  (1328) 
bb_densepocket2

>  <cluster_label>  (1328) 
3

>  <cluster_rank>  (1328) 
985

>  <N_interactions>  (1328) 
3

>  <∆∆G>  (1328) 
-3.078451

>  <comRMSD>  (1328) 
0.291549

>  <ROCS_TanimotoCombo>  (1328) 
0.609

>  <ROCS_ShapeTanimoto>  (1328) 
0.214

>  <ROCS_ColorTanimoto>  (1328) 
0.394

$$$$
EN300_6507917
     RDKit          3D

 14 14  0  0  0  0  0  0  0  0999 V2000
   27.8833   13.7824    7.4436 C   0  0  0  0  0  0  0  0  0  0  0  0
   28.9977   13.1554    8.2668 C   0  0  0  0  0  0  0  0  0  0  0  0
   29.8475   12.6165    7.5360 O   0  0  0  0  0  0  0  0  0  0  0  0
   30.4045   11.4344    7.9493 C   0  0  0  0  0  0  0  0  0  0  0  0
   30.0672   10.7678    8.8832 O   0  0  0  0  0  0  0  0  0  0  0  0
   31.5255   10.9435    7.0825 C   0  0  0  0  0  0  0  0  0  0  0  0
   32.4841   11.8035    6.1371 C   0  0  0  0  0  0  0  0  0  0  0  0
   32.5207   13.4727    5.8575 Cl  0  0  0  0  0  0  0  0  0  0  0  0
   33.4511   10.9075    5.4373 C   0  0  0  0  0  0  0  0  0  0  0  0
   33.5929    9.4570    5.5293 C   0  0  0  0  0  0  0  0  0  0  0  0
   34.7864    8.6681    4.5923 Cl  0  0  0  0  0  0  0  0  0  0  0  0
   32.7938    8.7934    6.3313 N   0  0  0  0  0  0  0  0  0  0  0  0
   31.8609    9.4133    7.0384 C   0  0  0  0  0  0  0  0  0  0  0  0
   31.0639    8.5871    7.8489 N   0  0  0  0  0  0  0  0  0  0  0  0
  1  2  1  0
  2  3  1  0
  3  4  1  0
  4  5  2  0
  4  6  1  0
  6  7  2  0
  7  8  1  0
  7  9  1  0
  9 10  2  0
 10 11  1  0
 10 12  1  0
 12 13  2  0
 13 14  1  0
 13  6  1  0
A    1
 C1 
A    2
 C2 
A    3
 O1 
A    4
 C3 
A    5
 O2 
A    6
 C4 
A    7
 C5 
A    8
CL1 
A    9
 C6 
A   10
 C7 
A   11
CL2 
A   12
 N1 
A   13
 C8 
A   14
 N2 
M  END
>  <ref_pdb>  (1329) 
Ax0310a

>  <ref_mols>  (1329) 
Ax0446a,Ax1080a,Ax0812a,Ax0719a,Ax1140a,Ax0528a,Ax0310a

>  <original SMILES>  (1329) 
CCOC(=O)c1c(Cl)cc(Cl)nc1N

>  <rationale>  (1329) 
info info set:bb_densepocket2;hbond:S105; 

>  <experiment>  (1329) 
bb_densepocket2

>  <cluster_label>  (1329) 
3

>  <cluster_rank>  (1329) 
986

>  <N_interactions>  (1329) 
1

>  <∆∆G>  (1329) 
-2.49917

>  <comRMSD>  (1329) 
0.583139

>  <ROCS_TanimotoCombo>  (1329) 
0.62

>  <ROCS_ShapeTanimoto>  (1329) 
0.244

>  <ROCS_ColorTanimoto>  (1329) 
0.376

$$$$
EN300_217483
     RDKit          3D

 12 12  0  0  0  0  0  0  0  0999 V2000
   34.8911    9.3893    4.2706 C   0  0  0  0  0  0  0  0  0  0  0  0
   34.2537    8.8191    5.4264 N   0  0  0  0  0  0  0  0  0  0  0  0
   33.2195    9.5363    5.9976 C   0  0  0  0  0  0  0  0  0  0  0  0
   32.4220    8.8674    6.8506 N   0  0  0  0  0  0  0  0  0  0  0  0
   31.4146    9.5238    7.4499 C   0  0  0  0  0  0  0  0  0  0  0  0
   30.6241    8.7721    8.3395 N   0  0  0  0  0  0  0  0  0  0  0  0
   31.1933   10.8658    7.1860 C   0  0  0  0  0  0  0  0  0  0  0  0
   30.1697   11.5719    7.7705 N   0  0  0  0  0  0  0  0  0  0  0  0
   30.5805   12.4954    8.4705 O   0  0  0  0  0  0  0  0  0  0  0  0
   32.0607   11.4466    6.2970 C   0  0  0  0  0  0  0  0  0  0  0  0
   31.9809   13.0937    5.8062 Cl  0  0  0  0  0  0  0  0  0  0  0  0
   33.0750   10.8156    5.6937 N   0  0  0  0  0  0  0  0  0  0  0  0
  1  2  1  0
  2  3  1  0
  3  4  2  0
  4  5  1  0
  5  6  1  0
  5  7  2  0
  7  8  1  0
  8  9  2  0
  7 10  1  0
 10 11  1  0
 10 12  2  0
 12  3  1  0
A    1
 C1 
A    2
 N1 
A    3
 C2 
A    4
 N2 
A    5
 C3 
A    6
 N3 
A    7
 C4 
A    8
 N4 
A    9
 O1 
A   10
 C5 
A   11
CL1 
A   12
 N5 
M  END
>  <ref_pdb>  (1330) 
Ax0310a

>  <ref_mols>  (1330) 
Ax0446a,Ax1080a,Ax0812a,Ax0719a,Ax1140a,Ax0528a,Ax0310a

>  <original SMILES>  (1330) 
CNc1nc(N)c(N=O)c(Cl)n1

>  <rationale>  (1330) 
info info set:bb_densepocket2;hbond:S105+T126; 

>  <experiment>  (1330) 
bb_densepocket2

>  <cluster_label>  (1330) 
3

>  <cluster_rank>  (1330) 
987

>  <N_interactions>  (1330) 
2

>  <∆∆G>  (1330) 
-1.839446

>  <comRMSD>  (1330) 
0.316707

>  <ROCS_TanimotoCombo>  (1330) 
0.616

>  <ROCS_ShapeTanimoto>  (1330) 
0.236

>  <ROCS_ColorTanimoto>  (1330) 
0.38

$$$$
Z805298050
     RDKit          3D

 17 18  0  0  0  0  0  0  0  0999 V2000
   32.0749   15.2493   10.4939 C   0  0  0  0  0  0  0  0  0  0  0  0
   31.7101   14.0204    9.8049 N   0  0  0  0  0  0  0  0  0  0  0  0
   30.5005   14.0099    9.1086 C   0  0  0  0  0  0  0  0  0  0  0  0
   29.7834   15.3288    9.0962 C   0  0  0  0  0  0  0  0  0  0  0  0
   28.4725   15.5337    8.3926 C   0  0  0  0  0  0  0  0  0  0  0  0
   27.8302   14.3494    7.6462 C   0  0  0  0  0  0  0  0  0  0  0  0
   28.4853   12.9737    7.6120 C   0  0  0  0  0  0  0  0  0  0  0  0
   29.8134   12.8330    8.3548 C   0  0  0  0  0  0  0  0  0  0  0  0
   30.4526   11.4317    8.3227 C   0  0  0  0  0  0  0  0  0  0  0  0
   30.0061   10.4907    8.9359 O   0  0  0  0  0  0  0  0  0  0  0  0
   31.6013   11.2424    7.5421 N   0  0  0  0  0  0  0  0  0  0  0  0
   31.7093    9.8062    7.3022 C   0  0  0  0  0  0  0  0  0  0  0  0
   32.7333    9.4165    6.2630 C   0  0  0  0  0  0  0  0  0  0  0  0
   33.2621   10.4016    5.3349 N   0  0  0  0  0  0  0  0  0  0  0  0
   34.5650    9.9325    4.9021 C   0  0  0  0  0  0  0  0  0  0  0  0
   33.2822   11.7725    5.8316 C   0  0  0  0  0  0  0  0  0  0  0  0
   31.9991   12.1965    6.5259 C   0  0  0  0  0  0  0  0  0  0  0  0
  1  2  1  0
  2  3  1  0
  3  4  2  0
  4  5  1  0
  5  6  2  0
  6  7  1  0
  7  8  2  0
  8  9  1  0
  9 10  2  0
  9 11  1  0
 11 12  1  0
 12 13  1  0
 13 14  1  0
 14 15  1  0
 14 16  1  0
 16 17  1  0
  8  3  1  0
 17 11  1  0
A    1
 C1 
A    2
 N1 
A    3
 C2 
A    4
 C3 
A    5
 C4 
A    6
 C5 
A    7
 C6 
A    8
 C7 
A    9
 C8 
A   10
 O1 
A   11
 N2 
A   12
 C9 
A   13
 C10
A   14
 N3 
A   15
 C11
A   16
 C12
A   17
 C13
M  END
>  <ref_pdb>  (1331) 
Ax0310a

>  <ref_mols>  (1331) 
Ax0446a,Ax1080a,Ax0812a,Ax0719a,Ax1140a,Ax0528a,Ax0310a

>  <original SMILES>  (1331) 
CNc1ccccc1C(=O)N1CCN(C)CC1

>  <rationale>  (1331) 
info info set:3d;hbond:S87; hydroph_interaction:Y89+Y90; 

>  <experiment>  (1331) 
3d

>  <cluster_label>  (1331) 
3

>  <cluster_rank>  (1331) 
988

>  <N_interactions>  (1331) 
3

>  <∆∆G>  (1331) 
-5.171336

>  <comRMSD>  (1331) 
0.738396

>  <ROCS_TanimotoCombo>  (1331) 
0.289

>  <ROCS_ShapeTanimoto>  (1331) 
0.21

>  <ROCS_ColorTanimoto>  (1331) 
0.079

$$$$
Z2687416412
     RDKit          3D

 20 22  0  0  0  0  0  0  0  0999 V2000
   32.4783   13.5305    8.7693 C   0  0  0  0  0  0  0  0  0  0  0  0
   31.3149   14.3019    9.3489 C   0  0  0  0  0  0  0  0  0  0  0  0
   31.4168   15.4628    9.7315 O   0  0  0  0  0  0  0  0  0  0  0  0
   30.1427   13.5974    9.4126 N   0  0  0  0  0  0  0  0  0  0  0  0
   28.8637   14.2593    9.4150 C   0  0  0  0  0  0  0  0  0  0  0  0
   28.3149   14.3654    8.1483 C   0  0  0  0  0  0  0  0  0  0  0  0
   28.1893   13.2158    7.3936 C   0  0  0  0  0  0  0  0  0  0  0  0
   29.4032   12.3501    7.2869 C   0  0  0  0  0  0  0  0  0  0  0  0
   30.4711   12.6680    6.4935 N   0  0  0  0  0  0  0  0  0  0  0  0
   31.2414   11.6149    6.6328 C   0  0  0  0  0  0  0  0  0  0  0  0
   32.5091   11.2403    6.0317 C   0  0  0  0  0  0  0  0  0  0  0  0
   33.2133   12.1274    5.2077 C   0  0  0  0  0  0  0  0  0  0  0  0
   34.4637   11.7162    4.5935 C   0  0  0  0  0  0  0  0  0  0  0  0
   34.9163   10.4326    4.8398 C   0  0  0  0  0  0  0  0  0  0  0  0
   34.1167    9.5097    5.7437 C   0  0  0  0  0  0  0  0  0  0  0  0
   32.9417    9.9308    6.3341 C   0  0  0  0  0  0  0  0  0  0  0  0
   32.2876    9.0994    7.1653 N   0  0  0  0  0  0  0  0  0  0  0  0
   31.2077    9.4926    7.7608 C   0  0  0  0  0  0  0  0  0  0  0  0
   30.6803   10.7270    7.4685 N   0  0  0  0  0  0  0  0  0  0  0  0
   29.5230   11.1857    7.9271 N   0  0  0  0  0  0  0  0  0  0  0  0
  1  2  1  0
  2  3  2  0
  2  4  1  0
  4  5  1  0
  5  6  1  0
  6  7  1  0
  7  8  1  0
  8  9  1  0
  9 10  2  0
 10 11  1  0
 11 12  2  0
 12 13  1  0
 13 14  2  0
 14 15  1  0
 15 16  2  0
 16 17  1  0
 17 18  2  0
 18 19  1  0
 19 20  1  0
 20  8  2  0
 19 10  1  0
 16 11  1  0
A    1
 C1 
A    2
 C2 
A    3
 O1 
A    4
 N1 
A    5
 C3 
A    6
 C4 
A    7
 C5 
A    8
 C6 
A    9
 N2 
A   10
 C7 
A   11
 C8 
A   12
 C9 
A   13
 C10
A   14
 C11
A   15
 C12
A   16
 C13
A   17
 N3 
A   18
 C14
A   19
 N4 
A   20
 N5 
M  END
>  <ref_pdb>  (1332) 
Ax0310a

>  <ref_mols>  (1332) 
Ax0446a,Ax1080a,Ax0812a,Ax0719a,Ax1140a,Ax0528a,Ax0310a

>  <original SMILES>  (1332) 
CC(=O)NCCCc1nc2c3ccccc3ncn2n1

>  <rationale>  (1332) 
info info set:screening_whole;hbond:S87+S125; hydroph_interaction:P107+V84; 

>  <experiment>  (1332) 
screening_whole

>  <cluster_label>  (1332) 
3

>  <cluster_rank>  (1332) 
989

>  <N_interactions>  (1332) 
5

>  <∆∆G>  (1332) 
-2.960566

>  <comRMSD>  (1332) 
0.601553

>  <ROCS_TanimotoCombo>  (1332) 
0.455

>  <ROCS_ShapeTanimoto>  (1332) 
0.253

>  <ROCS_ColorTanimoto>  (1332) 
0.202

$$$$
EN300_108627
     RDKit          3D

 11 11  0  0  0  0  0  0  0  0999 V2000
   30.9656    7.9270    8.0832 C   0  0  0  0  0  0  0  0  0  0  0  0
   30.1014    9.0126    8.3610 C   0  0  0  0  0  0  0  0  0  0  0  0
   28.6882    9.0051    8.3418 C   0  0  0  0  0  0  0  0  0  0  0  0
   30.2370    8.9436    9.7192 C   0  0  0  0  0  0  0  0  0  0  0  0
   30.7448   10.3278    8.0013 C   0  0  0  0  0  0  0  0  0  0  0  0
   30.4351   11.3758    8.5325 O   0  0  0  0  0  0  0  0  0  0  0  0
   31.8194   10.2610    6.9646 C   0  0  0  0  0  0  0  0  0  0  0  0
   32.2803   11.3886    6.0536 C   0  0  0  0  0  0  0  0  0  0  0  0
   33.3513   10.7089    5.2547 C   0  0  0  0  0  0  0  0  0  0  0  0
   33.4118    9.3052    5.7609 C   0  0  0  0  0  0  0  0  0  0  0  0
   32.5327    8.9910    6.7686 O   0  0  0  0  0  0  0  0  0  0  0  0
  1  2  1  0
  2  3  1  0
  2  4  1  0
  2  5  1  0
  5  6  2  0
  5  7  1  0
  7  8  2  0
  8  9  1  0
  9 10  2  0
 10 11  1  0
 11  7  1  0
A    1
 C1 
A    2
 C2 
A    3
 C3 
A    4
 C4 
A    5
 C5 
A    6
 O1 
A    7
 C6 
A    8
 C7 
A    9
 C8 
A   10
 C9 
A   11
 O2 
M  END
>  <ref_pdb>  (1333) 
Ax0310a

>  <ref_mols>  (1333) 
Ax0446a,Ax1080a,Ax0812a,Ax0719a,Ax1140a,Ax0528a,Ax0310a

>  <original SMILES>  (1333) 
CC(C)(C)C(=O)c1ccco1

>  <rationale>  (1333) 
info info set:bb_densepocket2;hydroph_interaction:P107; 

>  <experiment>  (1333) 
bb_densepocket2

>  <cluster_label>  (1333) 
3

>  <cluster_rank>  (1333) 
990

>  <N_interactions>  (1333) 
1

>  <∆∆G>  (1333) 
-3.958807

>  <comRMSD>  (1333) 
0.846379

>  <ROCS_TanimotoCombo>  (1333) 
0.609

>  <ROCS_ShapeTanimoto>  (1333) 
0.174

>  <ROCS_ColorTanimoto>  (1333) 
0.435

$$$$
Z1224473851
     RDKit          3D

 17 18  0  0  0  0  0  0  0  0999 V2000
   30.8718    7.9314    9.3883 C   0  0  0  0  0  0  0  0  0  0  0  0
   30.4629    8.6526    8.2517 C   0  0  0  0  0  0  0  0  0  0  0  0
   29.0193    8.6361    8.3159 C   0  0  0  0  0  0  0  0  0  0  0  0
   30.9510    9.8856    8.4766 O   0  0  0  0  0  0  0  0  0  0  0  0
   31.7264   10.1224    7.4295 C   0  0  0  0  0  0  0  0  0  0  0  0
   32.4597    9.1369    6.8799 N   0  0  0  0  0  0  0  0  0  0  0  0
   33.1961    9.5164    5.8406 C   0  0  0  0  0  0  0  0  0  0  0  0
   33.2117   10.9768    5.3046 C   0  0  0  0  0  0  0  0  0  0  0  0
   32.3784   11.8617    6.0039 C   0  0  0  0  0  0  0  0  0  0  0  0
   31.6097   11.4206    7.0972 C   0  0  0  0  0  0  0  0  0  0  0  0
   30.7158   12.1591    7.9011 N   0  0  0  0  0  0  0  0  0  0  0  0
   30.5710   13.5258    7.8337 C   0  0  0  0  0  0  0  0  0  0  0  0
   29.4871   14.3185    8.5615 C   0  0  0  0  0  0  0  0  0  0  0  0
   29.8329   14.5072    9.9934 C   0  0  0  0  0  0  0  0  0  0  0  0
   28.0973   13.7208    8.3098 C   0  0  0  0  0  0  0  0  0  0  0  0
   27.5508   14.9604    8.1593 O   0  0  0  0  0  0  0  0  0  0  0  0
   28.8364   15.4910    7.8234 C   0  0  0  0  0  0  0  0  0  0  0  0
  1  2  1  0
  2  3  1  0
  2  4  1  0
  4  5  1  0
  5  6  2  0
  6  7  1  0
  7  8  2  0
  8  9  1  0
  9 10  2  0
 10 11  1  0
 11 12  1  0
 12 13  1  0
 13 14  1  0
 13 15  1  0
 15 16  1  0
 16 17  1  0
 10  5  1  0
 17 13  1  0
A    1
 C1 
A    2
 C2 
A    3
 C3 
A    4
 O1 
A    5
 C4 
A    6
 N1 
A    7
 C5 
A    8
 C6 
A    9
 C7 
A   10
 C8 
A   11
 N2 
A   12
 C9 
A   13
 C10
A   14
 C11
A   15
 C12
A   16
 O2 
A   17
 C13
M  END
>  <ref_pdb>  (1334) 
Ax0310a

>  <ref_mols>  (1334) 
Ax0446a,Ax1080a,Ax0812a,Ax0719a,Ax1140a,Ax0528a,Ax0310a

>  <original SMILES>  (1334) 
CC(C)Oc1ncccc1NCC1(C)COC1

>  <rationale>  (1334) 
info info set:screening_pocket;hydroph_interaction:P107+Y90; 

>  <experiment>  (1334) 
screening_pocket

>  <cluster_label>  (1334) 
3

>  <cluster_rank>  (1334) 
991

>  <N_interactions>  (1334) 
2

>  <∆∆G>  (1334) 
-4.242597

>  <comRMSD>  (1334) 
0.721612

>  <ROCS_TanimotoCombo>  (1334) 
0.646

>  <ROCS_ShapeTanimoto>  (1334) 
0.232

>  <ROCS_ColorTanimoto>  (1334) 
0.414

$$$$
Z2054686403
     RDKit          3D

 15 16  0  0  0  0  0  0  0  0999 V2000
   30.4853    8.9333    8.5887 C   0  0  0  0  0  0  0  0  0  0  0  0
   31.2065    9.8478    7.7154 N   0  0  0  0  0  0  0  0  0  0  0  0
   32.1895    9.3603    6.9025 N   0  0  0  0  0  0  0  0  0  0  0  0
   32.6812   10.4168    6.2316 C   0  0  0  0  0  0  0  0  0  0  0  0
   31.9792   11.6777    6.6219 C   0  0  0  0  0  0  0  0  0  0  0  0
   30.9918   11.1896    7.6328 C   0  0  0  0  0  0  0  0  0  0  0  0
   29.9790   12.0131    8.4063 C   0  0  0  0  0  0  0  0  0  0  0  0
   29.2153   12.8297    7.7458 N   0  0  0  0  0  0  0  0  0  0  0  0
   28.0309   13.1029    8.3603 C   0  0  0  0  0  0  0  0  0  0  0  0
   27.6291   14.5157    8.0547 C   0  0  1  0  0  0  0  0  0  0  0  0
   27.4373   15.3151    9.1265 F   0  0  0  0  0  0  0  0  0  0  0  0
   28.8517   14.8821    7.3133 C   0  0  0  0  0  0  0  0  0  0  0  0
   29.8874   14.0763    7.7735 C   0  0  1  0  0  0  0  0  0  0  0  0
   30.3743   14.5038    9.0141 C   0  0  0  0  0  0  0  0  0  0  0  0
   31.5534   14.2815    9.3150 O   0  0  0  0  0  0  0  0  0  0  0  0
  1  2  1  0
  2  3  1  0
  3  4  2  0
  4  5  1  0
  5  6  2  0
  6  7  1  0
  7  8  1  0
  8  9  1  0
  9 10  1  0
 10 11  1  1
 10 12  1  0
 12 13  1  0
 13 14  1  1
 14 15  1  0
  6  2  1  0
 13  8  1  0
A    1
 C1 
A    2
 N1 
A    3
 N2 
A    4
 C2 
A    5
 C3 
A    6
 C4 
A    7
 C5 
A    8
 N3 
A    9
 C6 
A   10
 C7 
A   11
 F1 
A   12
 C8 
A   13
 C9 
A   14
 C10
A   15
 O1 
M  END
>  <ref_pdb>  (1335) 
Ax0310a

>  <ref_mols>  (1335) 
Ax0446a,Ax1080a,Ax0812a,Ax0719a,Ax1140a,Ax0528a,Ax0310a

>  <original SMILES>  (1335) 
Cn1nccc1CN1C[C@@H](F)C[C@H]1CO

>  <rationale>  (1335) 
info info set:3d;hbond:S87; hydroph_interaction:P107; 

>  <experiment>  (1335) 
3d

>  <cluster_label>  (1335) 
3

>  <cluster_rank>  (1335) 
992

>  <N_interactions>  (1335) 
2

>  <∆∆G>  (1335) 
-3.629132

>  <comRMSD>  (1335) 
0.532629

>  <ROCS_TanimotoCombo>  (1335) 
0.31

>  <ROCS_ShapeTanimoto>  (1335) 
0.197

>  <ROCS_ColorTanimoto>  (1335) 
0.113

$$$$
EN300_37447100
     RDKit          3D

 21 22  0  0  0  0  0  0  0  0999 V2000
   33.8269   13.7543    8.4456 C   0  0  0  0  0  0  0  0  0  0  0  0
   32.5964   13.4944    7.7220 N   0  0  0  0  0  0  0  0  0  0  0  0
   32.7264   13.3472    6.2889 C   0  0  0  0  0  0  0  0  0  0  0  0
   33.1480   11.9786    6.0455 C   0  0  0  0  0  0  0  0  0  0  0  0
   34.3909   11.7050    5.1862 C   0  0  0  0  0  0  0  0  0  0  0  0
   34.8077   10.2576    4.9614 C   0  0  0  0  0  0  0  0  0  0  0  0
   33.9472    9.1861    5.6278 C   0  0  0  0  0  0  0  0  0  0  0  0
   32.7589    9.5025    6.4560 C   0  0  0  0  0  0  0  0  0  0  0  0
   32.3729   10.7996    6.6480 C   0  0  0  0  0  0  0  0  0  0  0  0
   31.2605   10.8576    7.4207 O   0  0  0  0  0  0  0  0  0  0  0  0
   31.0668    9.4980    7.7624 C   0  0  0  0  0  0  0  0  0  0  0  0
   31.1051    9.3351    9.0448 F   0  0  0  0  0  0  0  0  0  0  0  0
   29.8379    9.0199    7.7177 F   0  0  0  0  0  0  0  0  0  0  0  0
   32.0143    8.6433    7.0515 O   0  0  0  0  0  0  0  0  0  0  0  0
   31.3860   13.8715    8.2428 C   0  0  0  0  0  0  0  0  0  0  0  0
   31.1814   14.4127    9.5397 O   0  0  0  0  0  0  0  0  0  0  0  0
   30.4409   13.6878    7.2857 O   0  0  0  0  0  0  0  0  0  0  0  0
   29.0955   14.2052    7.3494 C   0  0  0  0  0  0  0  0  0  0  0  0
   28.7312   15.5252    8.0088 C   0  0  0  0  0  0  0  0  0  0  0  0
   28.2483   13.6725    8.4551 C   0  0  0  0  0  0  0  0  0  0  0  0
   28.4188   14.1129    5.9889 C   0  0  0  0  0  0  0  0  0  0  0  0
  1  2  1  0
  2  3  1  0
  3  4  1  0
  4  5  2  0
  5  6  1  0
  6  7  2  0
  7  8  1  0
  8  9  2  0
  9 10  1  0
 10 11  1  0
 11 12  1  0
 11 13  1  0
 11 14  1  0
  2 15  1  0
 15 16  2  0
 15 17  1  0
 17 18  1  0
 18 19  1  0
 18 20  1  0
 18 21  1  0
  9  4  1  0
 14  8  1  0
A    1
 C1 
A    2
 N1 
A    3
 C2 
A    4
 C3 
A    5
 C4 
A    6
 C5 
A    7
 C6 
A    8
 C7 
A    9
 C8 
A   10
 O1 
A   11
 C9 
A   12
 F1 
A   13
 F2 
A   14
 O2 
A   15
 C10
A   16
 O3 
A   17
 O4 
A   18
 C11
A   19
 C12
A   20
 C13
A   21
 C14
M  END
>  <ref_pdb>  (1336) 
Ax0310a

>  <ref_mols>  (1336) 
Ax0446a,Ax1080a,Ax0812a,Ax0719a,Ax1140a,Ax0528a,Ax0310a

>  <original SMILES>  (1336) 
CN(Cc1cccc2c1OC(F)(F)O2)C(=O)OC(C)(C)C

>  <rationale>  (1336) 
info info set:bb_whole;hbond:S87; hydroph_interaction:Y89+Y90; 

>  <experiment>  (1336) 
bb_whole

>  <cluster_label>  (1336) 
3

>  <cluster_rank>  (1336) 
993

>  <N_interactions>  (1336) 
3

>  <∆∆G>  (1336) 
-1.629863

>  <comRMSD>  (1336) 
0.732261

>  <ROCS_TanimotoCombo>  (1336) 
0.412

>  <ROCS_ShapeTanimoto>  (1336) 
0.252

>  <ROCS_ColorTanimoto>  (1336) 
0.16

$$$$
EN300_253144
     RDKit          3D

 15 15  0  0  0  0  0  0  0  0999 V2000
   32.7912   13.2096    5.4982 C   0  0  0  0  0  0  0  0  0  0  0  0
   32.2304   12.0166    6.2452 C   0  0  0  0  0  0  0  0  0  0  0  0
   30.8993   12.0571    6.9663 C   0  0  0  0  0  0  0  0  0  0  0  0
   30.0111   13.2892    6.9219 C   0  0  0  0  0  0  0  0  0  0  0  0
   29.8244   14.2555    8.4286 S   0  0  0  0  0  6  0  0  0  0  0  0
   28.6389   13.4245    9.2358 N   0  0  0  0  0  0  0  0  0  0  0  0
   29.1386   15.4779    8.0926 O   0  0  0  0  0  0  0  0  0  0  0  0
   31.0290   14.2459    9.2288 O   0  0  0  0  0  0  0  0  0  0  0  0
   30.4399   10.9552    7.6663 C   0  0  0  0  0  0  0  0  0  0  0  0
   31.2663    9.6427    7.6586 C   0  0  0  0  0  0  0  0  0  0  0  0
   32.5859    9.6409    6.8729 C   0  0  0  0  0  0  0  0  0  0  0  0
   32.9888   10.8176    6.2471 C   0  0  0  0  0  0  0  0  0  0  0  0
   34.2712   10.7892    5.5473 N   0  0  0  0  0  4  0  0  0  0  0  0
   35.0297   11.7254    5.8120 O   0  0  0  0  0  0  0  0  0  0  0  0
   34.6723    9.7010    5.1347 O   0  0  0  0  0  1  0  0  0  0  0  0
  1  2  1  0
  2  3  2  0
  3  4  1  0
  4  5  1  0
  5  6  1  0
  5  7  2  0
  5  8  2  0
  3  9  1  0
  9 10  2  0
 10 11  1  0
 11 12  2  0
 12 13  1  0
 13 14  2  0
 13 15  1  0
 12  2  1  0
M  CHG  2  13   1  15  -1
A    1
 C1 
A    2
 C2 
A    3
 C3 
A    4
 C4 
A    5
 S1 
A    6
 N1 
A    7
 O1 
A    8
 O2 
A    9
 C5 
A   10
 C6 
A   11
 C7 
A   12
 C8 
A   13
 N2 
A   14
 O3 
A   15
 O4 
M  END
>  <ref_pdb>  (1337) 
Ax0310a

>  <ref_mols>  (1337) 
Ax0446a,Ax1080a,Ax0812a,Ax0719a,Ax1140a,Ax0528a,Ax0310a

>  <original SMILES>  (1337) 
Cc1c(CS(N)(=O)=O)cccc1[N+](=O)[O-]

>  <rationale>  (1337) 
info info set:sulfonimide_whole;hbond:S87+S125; hydroph_interaction:P107; 

>  <experiment>  (1337) 
sulfonimide_whole

>  <cluster_label>  (1337) 
3

>  <cluster_rank>  (1337) 
994

>  <N_interactions>  (1337) 
3

>  <∆∆G>  (1337) 
-3.710684

>  <comRMSD>  (1337) 
0.926502

>  <ROCS_TanimotoCombo>  (1337) 
0.333

>  <ROCS_ShapeTanimoto>  (1337) 
0.203

>  <ROCS_ColorTanimoto>  (1337) 
0.13

$$$$
EN300_200528
     RDKit          3D

 13 13  0  0  0  0  0  0  0  0999 V2000
   33.2597   13.5301    7.4713 C   0  0  0  0  0  0  0  0  0  0  0  0
   32.1803   12.8203    7.9973 C   0  0  2  0  0  0  0  0  0  0  0  0
   32.0630   11.5109    7.6185 C   0  0  0  0  0  0  0  0  0  0  0  0
   31.1096   10.6909    8.2400 C   0  0  0  0  0  0  0  0  0  0  0  0
   31.0284    9.3574    7.9116 C   0  0  0  0  0  0  0  0  0  0  0  0
   31.8938    8.9070    6.9697 C   0  0  0  0  0  0  0  0  0  0  0  0
   32.8260    9.6613    6.2960 C   0  0  0  0  0  0  0  0  0  0  0  0
   32.9123   10.9964    6.6281 C   0  0  0  0  0  0  0  0  0  0  0  0
   33.8118   11.7631    6.0061 F   0  0  0  0  0  0  0  0  0  0  0  0
   30.5615   13.6020    7.9288 S   0  0  0  0  0  6  0  0  0  0  0  0
   29.4413   12.5426    8.5360 N   0  0  0  0  0  0  0  0  0  0  0  0
   30.1115   13.6651    6.5600 O   0  0  0  0  0  0  0  0  0  0  0  0
   30.6080   14.7311    8.8337 O   0  0  0  0  0  0  0  0  0  0  0  0
  2  1  1  6
  2  3  1  0
  3  4  2  0
  4  5  1  0
  5  6  2  0
  6  7  1  0
  7  8  2  0
  8  9  1  0
  2 10  1  0
 10 11  1  0
 10 12  2  0
 10 13  2  0
  8  3  1  0
A    1
 C1 
A    2
 C2 
A    3
 C3 
A    4
 C4 
A    5
 C5 
A    6
 C6 
A    7
 C7 
A    8
 C8 
A    9
 F1 
A   10
 S1 
A   11
 N1 
A   12
 O1 
A   13
 O2 
M  END
>  <ref_pdb>  (1338) 
Ax0310a

>  <ref_mols>  (1338) 
Ax0446a,Ax1080a,Ax0812a,Ax0719a,Ax1140a,Ax0528a,Ax0310a

>  <original SMILES>  (1338) 
C[C@H](c1ccccc1F)S(N)(=O)=O

>  <rationale>  (1338) 
info info set:sulfonimide_whole;hbond:S87+S125; 

>  <experiment>  (1338) 
sulfonimide_whole

>  <cluster_label>  (1338) 
3

>  <cluster_rank>  (1338) 
995

>  <N_interactions>  (1338) 
2

>  <∆∆G>  (1338) 
-3.848638

>  <comRMSD>  (1338) 
0.70338

>  <ROCS_TanimotoCombo>  (1338) 
0.333

>  <ROCS_ShapeTanimoto>  (1338) 
0.188

>  <ROCS_ColorTanimoto>  (1338) 
0.146

$$$$
EN300_26686422
     RDKit          3D

 18 19  0  0  0  0  0  0  0  0999 V2000
   35.7393    8.5748    2.5382 C   0  0  0  0  0  0  0  0  0  0  0  0
   34.7700    9.2312    3.5175 C   0  0  0  0  0  0  0  0  0  0  0  0
   34.1323   10.4712    3.0106 C   0  0  0  0  0  0  0  0  0  0  0  0
   33.3769   11.3174    4.0454 C   0  0  0  0  0  0  0  0  0  0  0  0
   33.3076   10.8884    5.3398 N   0  0  0  0  0  0  0  0  0  0  0  0
   32.4591   11.5515    6.1318 C   0  0  0  0  0  0  0  0  0  0  0  0
   32.2898   12.7691    6.0847 O   0  0  0  0  0  0  0  0  0  0  0  0
   31.6525   10.7502    7.1392 C   0  0  0  0  0  0  0  0  0  0  0  0
   30.6276   11.3838    8.0234 C   0  0  0  0  0  0  0  0  0  0  0  0
   30.1304   10.6588    8.8493 O   0  0  0  0  0  0  0  0  0  0  0  0
   30.3214   12.7080    7.8500 N   0  0  0  0  0  0  0  0  0  0  0  0
   29.3699   13.3784    8.7328 C   0  0  0  0  0  0  0  0  0  0  0  0
   28.8861   14.6029    8.0305 C   0  0  0  0  0  0  0  0  0  0  0  0
   28.5571   15.5494    7.4831 N   0  0  0  0  0  0  0  0  0  0  0  0
   31.8812    9.4618    7.2214 C   0  0  0  0  0  0  0  0  0  0  0  0
   32.8029    8.8319    6.4613 N   0  0  0  0  0  0  0  0  0  0  0  0
   33.4652    9.5258    5.5857 C   0  0  0  0  0  0  0  0  0  0  0  0
   34.4945    8.7956    4.7246 C   0  0  0  0  0  0  0  0  0  0  0  0
  1  2  1  0
  2  3  1  0
  3  4  2  0
  4  5  1  0
  5  6  1  0
  6  7  2  0
  6  8  1  0
  8  9  1  0
  9 10  2  0
  9 11  1  0
 11 12  1  0
 12 13  1  0
 13 14  3  0
  8 15  2  0
 15 16  1  0
 16 17  2  0
 17 18  1  0
 18  2  2  0
 17  5  1  0
A    1
 C1 
A    2
 C2 
A    3
 C3 
A    4
 C4 
A    5
 N1 
A    6
 C5 
A    7
 O1 
A    8
 C6 
A    9
 C7 
A   10
 O2 
A   11
 N2 
A   12
 C8 
A   13
 C9 
A   14
 N3 
A   15
 C10
A   16
 N4 
A   17
 C11
A   18
 C12
M  END
>  <ref_pdb>  (1339) 
Ax0310a

>  <ref_mols>  (1339) 
Ax0446a,Ax1080a,Ax0812a,Ax0719a,Ax1140a,Ax0528a,Ax0310a

>  <original SMILES>  (1339) 
Cc1ccn2c(=O)c(C(=O)NCC#N)cnc2c1

>  <rationale>  (1339) 
info info set:bb_densepocket2;hbond:S87+S105; 

>  <experiment>  (1339) 
bb_densepocket2

>  <cluster_label>  (1339) 
3

>  <cluster_rank>  (1339) 
996

>  <N_interactions>  (1339) 
3

>  <∆∆G>  (1339) 
-1.957283

>  <comRMSD>  (1339) 
0.569538

>  <ROCS_TanimotoCombo>  (1339) 
0.61

>  <ROCS_ShapeTanimoto>  (1339) 
0.248

>  <ROCS_ColorTanimoto>  (1339) 
0.362

$$$$
Z3242918241
     RDKit          3D

 12 13  0  0  0  0  0  0  0  0999 V2000
   29.9249    9.6285    8.1418 O   0  0  0  0  0  0  0  0  0  0  0  0
   30.8949   10.2270    7.7452 C   0  0  0  0  0  0  0  0  0  0  0  0
   31.8452    9.6653    6.8911 C   0  0  0  0  0  0  0  0  0  0  0  0
   32.8474   10.4558    6.3984 C   0  0  0  0  0  0  0  0  0  0  0  0
   32.9444   11.7861    6.7549 N   0  0  0  0  0  0  0  0  0  0  0  0
   32.2038   12.2385    7.8385 C   0  0  0  0  0  0  0  0  0  0  0  0
   32.5163   13.2093    8.5276 O   0  0  0  0  0  0  0  0  0  0  0  0
   31.0950   11.5309    8.1166 N   0  0  0  0  0  0  0  0  0  0  0  0
   34.0953   12.5693    6.3150 C   0  0  0  0  0  0  0  0  0  0  0  0
   35.0899   11.8134    5.3684 C   0  0  0  0  0  0  0  0  0  0  0  0
   35.0893   10.3820    5.4227 O   0  0  0  0  0  0  0  0  0  0  0  0
   33.8217    9.7491    5.4443 C   0  0  0  0  0  0  0  0  0  0  0  0
  1  2  2  0
  2  3  1  0
  3  4  2  0
  4  5  1  0
  5  6  1  0
  6  7  2  0
  6  8  1  0
  5  9  1  0
  9 10  1  0
 10 11  1  0
 11 12  1  0
  8  2  1  0
 12  4  1  0
A    1
 O1 
A    2
 C1 
A    3
 C2 
A    4
 C3 
A    5
 N1 
A    6
 C4 
A    7
 O2 
A    8
 N2 
A    9
 C5 
A   10
 C6 
A   11
 O3 
A   12
 C7 
M  END
>  <ref_pdb>  (1340) 
Ax0310a

>  <ref_mols>  (1340) 
Ax0446a,Ax1080a,Ax0812a,Ax0719a,Ax1140a,Ax0528a,Ax0310a

>  <original SMILES>  (1340) 
O=c1cc2n(c(=O)[nH]1)CCOC2

>  <rationale>  (1340) 
info info set:3d;hbond:S125+G127; 

>  <experiment>  (1340) 
3d

>  <cluster_label>  (1340) 
3

>  <cluster_rank>  (1340) 
997

>  <N_interactions>  (1340) 
2

>  <∆∆G>  (1340) 
-2.013541

>  <comRMSD>  (1340) 
0.851052

>  <ROCS_TanimotoCombo>  (1340) 
0.283

>  <ROCS_ShapeTanimoto>  (1340) 
0.161

>  <ROCS_ColorTanimoto>  (1340) 
0.122

$$$$
EN300_27780168
     RDKit          3D

 17 17  0  0  0  0  0  0  0  0999 V2000
   41.2591   11.1833   10.7979 C   0  0  0  0  0  0  0  0  0  0  0  0
   41.0504   11.5010   12.1296 N   0  0  0  0  0  0  0  0  0  0  0  0
   39.7995   12.5283   12.5838 S   0  0  0  0  0  6  0  0  0  0  0  0
   39.9721   12.7691   13.9991 O   0  0  0  0  0  0  0  0  0  0  0  0
   39.8878   13.6169   11.6334 O   0  0  0  0  0  0  0  0  0  0  0  0
   38.2533   11.6688   12.2783 C   0  0  1  0  0  0  0  0  0  0  0  0
   37.1539   12.4470   12.1224 C   0  0  0  0  0  0  0  0  0  0  0  0
   36.5985   12.0370   10.9266 C   0  0  1  0  0  0  0  0  0  0  0  0
   36.2214   12.7794    9.8101 N   0  0  0  0  0  0  0  0  0  0  0  0
   34.9164   13.2295    9.5139 C   0  0  0  0  0  0  0  0  0  0  0  0
   34.3759   14.1486   10.0267 O   0  0  0  0  0  0  0  0  0  0  0  0
   34.2403   12.4857    8.6055 O   0  0  0  0  0  0  0  0  0  0  0  0
   32.9888   12.9593    8.0241 C   0  0  0  0  0  0  0  0  0  0  0  0
   32.0191   11.7696    7.7176 C   0  0  0  0  0  0  0  0  0  0  0  0
   33.3186   13.5044    6.6424 C   0  0  0  0  0  0  0  0  0  0  0  0
   32.3210   13.9838    8.9653 C   0  0  0  0  0  0  0  0  0  0  0  0
   37.8572   11.3574   10.7893 C   0  0  0  0  0  0  0  0  0  0  0  0
  1  2  1  0
  2  3  1  0
  3  4  2  0
  3  5  2  0
  6  3  1  6
  6  7  1  0
  7  8  1  0
  8  9  1  6
  9 10  1  0
 10 11  2  0
 10 12  1  0
 12 13  1  0
 13 14  1  0
 13 15  1  0
 13 16  1  0
  8 17  1  0
 17  6  1  0
A    1
 C1 
A    2
 N1 
A    3
 S1 
A    4
 O1 
A    5
 O2 
A    6
 C2 
A    7
 C3 
A    8
 C4 
A    9
 N2 
A   10
 C5 
A   11
 O3 
A   12
 O4 
A   13
 C6 
A   14
 C7 
A   15
 C8 
A   16
 C9 
A   17
 C10
M  END
>  <ref_pdb>  (1341) 
Ax0310a

>  <ref_mols>  (1341) 
Ax0446a,Ax1080a,Ax0812a,Ax0719a,Ax1140a,Ax0528a,Ax0310a

>  <original SMILES>  (1341) 
CNS(=O)(=O)[C@H]1C[C@@H](NC(=O)OC(C)(C)C)C1

>  <rationale>  (1341) 
info info set:sulfonimide_whole;hbond:G127; hydroph_interaction:V84; 

>  <experiment>  (1341) 
sulfonimide_whole

>  <cluster_label>  (1341) 
3

>  <cluster_rank>  (1341) 
998

>  <N_interactions>  (1341) 
2

>  <∆∆G>  (1341) 
-3.105278

>  <comRMSD>  (1341) 
0.926051

>  <ROCS_TanimotoCombo>  (1341) 
0.307

>  <ROCS_ShapeTanimoto>  (1341) 
0.19

>  <ROCS_ColorTanimoto>  (1341) 
0.117

$$$$
EN300_1622343
     RDKit          3D

 10 10  0  0  0  0  0  0  0  0999 V2000
   29.6234    8.1083    8.4403 C   0  0  0  0  0  0  0  0  0  0  0  0
   30.7341    8.9153    8.9060 C   0  0  0  0  0  0  0  0  0  0  0  0
   31.4323    9.6172    7.7566 C   0  0  0  0  0  0  0  0  0  0  0  0
   32.2651    8.8017    7.0630 N   0  0  0  0  0  0  0  0  0  0  0  0
   32.9429    9.3318    6.0321 C   0  0  0  0  0  0  0  0  0  0  0  0
   32.8669   10.7798    5.5560 C   0  0  0  0  0  0  0  0  0  0  0  0
   33.7753   11.3602    4.2225 Cl  0  0  0  0  0  0  0  0  0  0  0  0
   32.0064   11.5791    6.2814 C   0  0  0  0  0  0  0  0  0  0  0  0
   31.2289   10.9842    7.4571 C   0  0  0  0  0  0  0  0  0  0  0  0
   30.3631   11.8269    8.1638 N   0  0  0  0  0  0  0  0  0  0  0  0
  1  2  1  0
  2  3  1  0
  3  4  2  0
  4  5  1  0
  5  6  2  0
  6  7  1  0
  6  8  1  0
  8  9  2  0
  9 10  1  0
  9  3  1  0
A    1
 C1 
A    2
 C2 
A    3
 C3 
A    4
 N1 
A    5
 C4 
A    6
 C5 
A    7
CL1 
A    8
 C6 
A    9
 C7 
A   10
 N2 
M  END
>  <ref_pdb>  (1342) 
Ax0310a

>  <ref_mols>  (1342) 
Ax0446a,Ax1080a,Ax0812a,Ax0719a,Ax1140a,Ax0528a,Ax0310a

>  <original SMILES>  (1342) 
CCc1ncc(Cl)cc1N

>  <rationale>  (1342) 
info info set:bb_densepocket2;hbond:S125; hydroph_interaction:P107+V124; 

>  <experiment>  (1342) 
bb_densepocket2

>  <cluster_label>  (1342) 
3

>  <cluster_rank>  (1342) 
999

>  <N_interactions>  (1342) 
3

>  <∆∆G>  (1342) 
-4.016681

>  <comRMSD>  (1342) 
0.290939

>  <ROCS_TanimotoCombo>  (1342) 
0.607

>  <ROCS_ShapeTanimoto>  (1342) 
0.197

>  <ROCS_ColorTanimoto>  (1342) 
0.41

$$$$
EN300_13686
     RDKit          3D

 15 15  0  0  0  0  0  0  0  0999 V2000
   34.0507    8.9383    5.4712 C   0  0  0  0  0  0  0  0  0  0  0  0
   32.9943    8.6416    6.3898 O   0  0  0  0  0  0  0  0  0  0  0  0
   32.3550    9.7532    6.7429 C   0  0  0  0  0  0  0  0  0  0  0  0
   32.7247   10.8345    6.0565 C   0  0  0  0  0  0  0  0  0  0  0  0
   32.0940   12.0741    6.3773 C   0  0  0  0  0  0  0  0  0  0  0  0
   32.7505   13.4829    5.3040 Br  0  0  0  0  0  0  0  0  0  0  0  0
   31.0236   12.1207    7.4832 C   0  0  0  0  0  0  0  0  0  0  0  0
   30.1901   13.5990    7.9536 S   0  0  0  0  0  6  0  0  0  0  0  0
   28.9107   13.2296    8.9538 N   0  0  0  0  0  0  0  0  0  0  0  0
   29.5153   14.1007    6.7769 O   0  0  0  0  0  0  0  0  0  0  0  0
   31.0957   14.3754    8.7800 O   0  0  0  0  0  0  0  0  0  0  0  0
   30.7137   10.9716    8.1163 C   0  0  0  0  0  0  0  0  0  0  0  0
   31.4051    9.7762    7.7305 C   0  0  0  0  0  0  0  0  0  0  0  0
   31.2085    8.5735    8.2830 O   0  0  0  0  0  0  0  0  0  0  0  0
   30.2820    8.5822    9.2958 C   0  0  0  0  0  0  0  0  0  0  0  0
  1  2  1  0
  2  3  1  0
  3  4  2  0
  4  5  1  0
  5  6  1  0
  5  7  2  0
  7  8  1  0
  8  9  1  0
  8 10  2  0
  8 11  2  0
  7 12  1  0
 12 13  2  0
 13 14  1  0
 14 15  1  0
 13  3  1  0
A    1
 C1 
A    2
 O1 
A    3
 C2 
A    4
 C3 
A    5
 C4 
A    6
BR1 
A    7
 C5 
A    8
 S1 
A    9
 N1 
A   10
 O2 
A   11
 O3 
A   12
 C6 
A   13
 C7 
A   14
 O4 
A   15
 C8 
M  END
>  <ref_pdb>  (1343) 
Ax0310a

>  <ref_mols>  (1343) 
Ax0446a,Ax1080a,Ax0812a,Ax0719a,Ax1140a,Ax0528a,Ax0310a

>  <original SMILES>  (1343) 
COc1cc(Br)c(S(N)(=O)=O)cc1OC

>  <rationale>  (1343) 
info info set:sulfonimide_whole;hbond:S87+S125; hydroph_interaction:P107; 

>  <experiment>  (1343) 
sulfonimide_whole

>  <cluster_label>  (1343) 
3

>  <cluster_rank>  (1343) 
1000

>  <N_interactions>  (1343) 
3

>  <∆∆G>  (1343) 
-8.48202

>  <comRMSD>  (1343) 
0.818838

>  <ROCS_TanimotoCombo>  (1343) 
0.328

>  <ROCS_ShapeTanimoto>  (1343) 
0.197

>  <ROCS_ColorTanimoto>  (1343) 
0.131

$$$$
Z1848530598
     RDKit          3D

 21 22  0  0  0  0  0  0  0  0999 V2000
   29.8468   15.4409   11.1743 C   0  0  0  0  0  0  0  0  0  0  0  0
   30.4907   15.7624    9.8442 C   0  0  0  0  0  0  0  0  0  0  0  0
   29.7589   15.0737    8.8061 N   0  0  0  0  0  0  0  0  0  0  0  0
   30.2120   13.8277    8.5496 C   0  0  0  0  0  0  0  0  0  0  0  0
   29.4150   13.3655    7.5671 C   0  0  0  0  0  0  0  0  0  0  0  0
   29.5502   12.1648    7.0362 O   0  0  0  0  0  0  0  0  0  0  0  0
   30.3568   11.3770    7.7835 C   0  0  0  0  0  0  0  0  0  0  0  0
   30.2847   11.1127    8.9193 O   0  0  0  0  0  0  0  0  0  0  0  0
   31.4221   10.8162    6.9969 C   0  0  0  0  0  0  0  0  0  0  0  0
   32.1792   11.6058    5.9624 C   0  0  0  0  0  0  0  0  0  0  0  0
   33.1620   10.9548    5.2511 C   0  0  0  0  0  0  0  0  0  0  0  0
   33.4225    9.6129    5.5076 C   0  0  0  0  0  0  0  0  0  0  0  0
   34.5197    8.9883    4.6305 C   0  0  0  0  0  0  0  0  0  0  0  0
   35.3118    9.9470    4.0834 F   0  0  0  0  0  0  0  0  0  0  0  0
   34.0552    8.3309    3.5370 F   0  0  0  0  0  0  0  0  0  0  0  0
   35.3720    8.1275    5.2126 F   0  0  0  0  0  0  0  0  0  0  0  0
   32.7374    8.9057    6.4766 N   0  0  0  0  0  0  0  0  0  0  0  0
   31.7500    9.5139    7.2077 C   0  0  0  0  0  0  0  0  0  0  0  0
   31.0144    8.7408    8.2684 C   0  0  0  0  0  0  0  0  0  0  0  0
   28.4903   14.4014    7.2812 C   0  0  0  0  0  0  0  0  0  0  0  0
   28.7045   15.4834    8.0610 N   0  0  0  0  0  0  0  0  0  0  0  0
  1  2  1  0
  2  3  1  0
  3  4  1  0
  4  5  2  0
  5  6  1  0
  6  7  1  0
  7  8  2  0
  7  9  1  0
  9 10  2  0
 10 11  1  0
 11 12  2  0
 12 13  1  0
 13 14  1  0
 13 15  1  0
 13 16  1  0
 12 17  1  0
 17 18  2  0
 18 19  1  0
  5 20  1  0
 20 21  2  0
 21  3  1  0
 18  9  1  0
A    1
 C1 
A    2
 C2 
A    3
 N1 
A    4
 C3 
A    5
 C4 
A    6
 O1 
A    7
 C5 
A    8
 O2 
A    9
 C6 
A   10
 C7 
A   11
 C8 
A   12
 C9 
A   13
 C10
A   14
 F1 
A   15
 F2 
A   16
 F3 
A   17
 N2 
A   18
 C11
A   19
 C12
A   20
 C13
A   21
 N3 
M  END
>  <ref_pdb>  (1344) 
Ax0310a

>  <ref_mols>  (1344) 
Ax0446a,Ax1080a,Ax0812a,Ax0719a,Ax1140a,Ax0528a,Ax0310a

>  <original SMILES>  (1344) 
CCn1cc(OC(=O)c2ccc(C(F)(F)F)nc2C)cn1

>  <rationale>  (1344) 
info info set:screening_pocket;hydroph_interaction:P107+Y90; 

>  <experiment>  (1344) 
screening_pocket

>  <cluster_label>  (1344) 
3

>  <cluster_rank>  (1344) 
1001

>  <N_interactions>  (1344) 
2

>  <∆∆G>  (1344) 
-3.411185

>  <comRMSD>  (1344) 
0.728392

>  <ROCS_TanimotoCombo>  (1344) 
0.635

>  <ROCS_ShapeTanimoto>  (1344) 
0.268

>  <ROCS_ColorTanimoto>  (1344) 
0.366

$$$$
EN300_6472530
     RDKit          3D

 13 13  0  0  0  0  0  0  0  0999 V2000
   34.8412   14.6609    7.5194 C   0  0  0  0  0  0  0  0  0  0  0  0
   33.4613   13.8174    8.2842 S   0  0  0  0  0  6  0  0  0  0  0  0
   34.0626   12.7127    8.9174 O   0  0  0  0  0  0  0  0  0  0  0  0
   32.6191   14.6834    9.0718 O   0  0  0  0  0  0  0  0  0  0  0  0
   32.6534   13.2498    6.9148 N   0  0  0  0  0  0  0  0  0  0  0  0
   32.2684   11.8980    7.0379 C   0  0  0  0  0  0  0  0  0  0  0  0
   32.9712   10.9222    6.3866 C   0  0  0  0  0  0  0  0  0  0  0  0
   32.6909    9.5877    6.4619 C   0  0  0  0  0  0  0  0  0  0  0  0
   33.4711    8.6977    5.7527 N   0  0  0  0  0  0  0  0  0  0  0  0
   31.5287    9.1552    7.3395 C   0  0  0  0  0  0  0  0  0  0  0  0
   30.7708   10.1044    8.0166 C   0  0  0  0  0  0  0  0  0  0  0  0
   31.1794   11.5775    7.8298 C   0  0  0  0  0  0  0  0  0  0  0  0
   30.3372   12.8865    8.5629 Cl  0  0  0  0  0  0  0  0  0  0  0  0
  1  2  1  0
  2  3  2  0
  2  4  2  0
  2  5  1  0
  5  6  1  0
  6  7  2  0
  7  8  1  0
  8  9  1  0
  8 10  2  0
 10 11  1  0
 11 12  2  0
 12 13  1  0
 12  6  1  0
A    1
 C1 
A    2
 S1 
A    3
 O1 
A    4
 O2 
A    5
 N1 
A    6
 C2 
A    7
 C3 
A    8
 C4 
A    9
 N2 
A   10
 C5 
A   11
 C6 
A   12
 C7 
A   13
CL1 
M  END
>  <ref_pdb>  (1345) 
Ax0310a

>  <ref_mols>  (1345) 
Ax0446a,Ax1080a,Ax0812a,Ax0719a,Ax1140a,Ax0528a,Ax0310a

>  <original SMILES>  (1345) 
CS(=O)(=O)Nc1cc(N)ccc1Cl

>  <rationale>  (1345) 
info info set:sulfonimide_joint;hbond:S87+S105+G127; 

>  <experiment>  (1345) 
sulfonimide_joint

>  <cluster_label>  (1345) 
3

>  <cluster_rank>  (1345) 
1002

>  <N_interactions>  (1345) 
3

>  <∆∆G>  (1345) 
-5.012567

>  <comRMSD>  (1345) 
0.57153

>  <ROCS_TanimotoCombo>  (1345) 
0.297

>  <ROCS_ShapeTanimoto>  (1345) 
0.168

>  <ROCS_ColorTanimoto>  (1345) 
0.129

$$$$
Z183111096
     RDKit          3D

 15 16  0  0  0  0  0  0  0  0999 V2000
   30.0979   10.8896    8.7826 O   0  0  0  0  0  0  0  0  0  0  0  0
   30.6374   11.5963    7.9806 C   0  0  0  0  0  0  0  0  0  0  0  0
   31.6194   10.8625    7.1805 C   0  0  0  0  0  0  0  0  0  0  0  0
   32.4990   11.4466    6.2847 C   0  0  0  0  0  0  0  0  0  0  0  0
   33.3759   10.6334    5.5905 C   0  0  0  0  0  0  0  0  0  0  0  0
   33.3393    9.2672    5.8186 C   0  0  0  0  0  0  0  0  0  0  0  0
   32.4877    8.6812    6.6943 N   0  0  0  0  0  0  0  0  0  0  0  0
   31.6564    9.4781    7.3456 C   0  0  0  0  0  0  0  0  0  0  0  0
   30.9169    8.8857    8.1160 O   0  0  0  0  0  0  0  0  0  0  0  0
   30.3810   12.9408    7.7693 N   0  0  0  0  0  0  0  0  0  0  0  0
   29.7513   13.2711    6.4711 C   0  0  0  0  0  0  0  0  0  0  0  0
   28.6085   14.1093    6.5288 C   0  0  0  0  0  0  0  0  0  0  0  0
   28.6539   15.1291    7.5418 O   0  0  0  0  0  0  0  0  0  0  0  0
   28.8420   14.5381    8.8170 C   0  0  0  0  0  0  0  0  0  0  0  0
   30.2224   13.9159    8.8696 C   0  0  0  0  0  0  0  0  0  0  0  0
  1  2  2  0
  2  3  1  0
  3  4  2  0
  4  5  1  0
  5  6  2  0
  6  7  1  0
  7  8  2  0
  8  9  1  0
  2 10  1  0
 10 11  1  0
 11 12  1  0
 12 13  1  0
 13 14  1  0
 14 15  1  0
  8  3  1  0
 15 10  1  0
A    1
 O1 
A    2
 C1 
A    3
 C2 
A    4
 C3 
A    5
 C4 
A    6
 C5 
A    7
 N1 
A    8
 C6 
A    9
 O2 
A   10
 N2 
A   11
 C7 
A   12
 C8 
A   13
 O3 
A   14
 C9 
A   15
 C10
M  END
>  <ref_pdb>  (1346) 
Ax0310a

>  <ref_mols>  (1346) 
Ax0446a,Ax1080a,Ax0812a,Ax0719a,Ax1140a,Ax0528a,Ax0310a

>  <original SMILES>  (1346) 
O=C(c1cccnc1O)N1CCOCC1

>  <rationale>  (1346) 
info info set:screening_pocket;hbond:S87; hydroph_interaction:P107; 

>  <experiment>  (1346) 
screening_pocket

>  <cluster_label>  (1346) 
3

>  <cluster_rank>  (1346) 
1003

>  <N_interactions>  (1346) 
2

>  <∆∆G>  (1346) 
-4.759437

>  <comRMSD>  (1346) 
0.323157

>  <ROCS_TanimotoCombo>  (1346) 
0.624

>  <ROCS_ShapeTanimoto>  (1346) 
0.233

>  <ROCS_ColorTanimoto>  (1346) 
0.391

$$$$
Z228587480
     RDKit          3D

 16 17  0  0  0  0  0  0  0  0999 V2000
   30.2513   13.4411    7.0957 O   0  0  0  0  0  0  0  0  0  0  0  0
   31.2855   12.9802    7.5462 C   0  0  0  0  0  0  0  0  0  0  0  0
   31.5559   11.5262    7.3387 C   0  0  0  0  0  0  0  0  0  0  0  0
   30.7431   10.5928    8.1194 C   0  0  0  0  0  0  0  0  0  0  0  0
   30.9681    9.2444    7.9789 C   0  0  0  0  0  0  0  0  0  0  0  0
   31.9491    8.8103    7.1107 C   0  0  0  0  0  0  0  0  0  0  0  0
   32.7537    9.6558    6.3270 C   0  0  0  0  0  0  0  0  0  0  0  0
   32.6555   11.0435    6.3490 C   0  0  0  0  0  0  0  0  0  0  0  0
   33.4625   11.8164    5.5754 F   0  0  0  0  0  0  0  0  0  0  0  0
   32.2640   13.7462    8.2713 N   0  0  0  0  0  0  0  0  0  0  0  0
   33.3327   13.0411    8.5649 C   0  0  0  0  0  0  0  0  0  0  0  0
   34.5799   13.5337    8.2724 C   0  0  0  0  0  0  0  0  0  0  0  0
   34.6930   14.8713    8.2808 C   0  0  0  0  0  0  0  0  0  0  0  0
   34.0992   15.6137    9.2119 N   0  0  0  0  0  0  0  0  0  0  0  0
   33.0997   15.0236    9.9565 C   0  0  0  0  0  0  0  0  0  0  0  0
   31.9153   14.5543    9.4105 C   0  0  0  0  0  0  0  0  0  0  0  0
  1  2  2  0
  2  3  1  0
  3  4  2  0
  4  5  1  0
  5  6  2  0
  6  7  1  0
  7  8  2  0
  8  9  1  0
  2 10  1  0
 10 11  1  0
 11 12  1  0
 12 13  1  0
 13 14  1  0
 14 15  1  0
 15 16  1  0
  8  3  1  0
 16 10  1  0
A    1
 O1 
A    2
 C1 
A    3
 C2 
A    4
 C3 
A    5
 C4 
A    6
 C5 
A    7
 C6 
A    8
 C7 
A    9
 F1 
A   10
 N1 
A   11
 C8 
A   12
 C9 
A   13
 C10
A   14
 N2 
A   15
 C11
A   16
 C12
M  END
>  <ref_pdb>  (1347) 
Ax0310a

>  <ref_mols>  (1347) 
Ax0446a,Ax1080a,Ax0812a,Ax0719a,Ax1140a,Ax0528a,Ax0310a

>  <original SMILES>  (1347) 
O=C(c1ccccc1F)N1CCCNCC1

>  <rationale>  (1347) 
info info set:3d;hbond:S87; 

>  <experiment>  (1347) 
3d

>  <cluster_label>  (1347) 
3

>  <cluster_rank>  (1347) 
1004

>  <N_interactions>  (1347) 
1

>  <∆∆G>  (1347) 
-1.900442

>  <comRMSD>  (1347) 
0.792586

>  <ROCS_TanimotoCombo>  (1347) 
0.3

>  <ROCS_ShapeTanimoto>  (1347) 
0.201

>  <ROCS_ColorTanimoto>  (1347) 
0.1

$$$$
EN300_14396106
     RDKit          3D

 15 15  0  0  0  0  0  0  0  0999 V2000
   34.9226   13.4752    9.3595 N   0  0  0  0  0  0  0  0  0  0  0  0
   33.8342   14.4082    8.5412 S   0  0  0  0  0  6  0  0  0  0  0  0
   32.8815   14.9662    9.4848 O   0  0  0  0  0  0  0  0  0  0  0  0
   34.6013   15.3837    7.8411 O   0  0  0  0  0  0  0  0  0  0  0  0
   33.0164   13.5130    7.2465 C   0  0  0  0  0  0  0  0  0  0  0  0
   33.9768   12.4849    6.9468 C   0  0  0  0  0  0  0  0  0  0  0  0
   33.9258   11.8191    5.6073 C   0  0  0  0  0  0  0  0  0  0  0  0
   32.5424   11.2992    5.5389 C   0  0  0  0  0  0  0  0  0  0  0  0
   31.7171   11.0118    6.6207 N   0  0  0  0  0  0  0  0  0  0  0  0
   31.6090    9.7688    7.2540 C   0  0  0  0  0  0  0  0  0  0  0  0
   32.1948    8.5507    7.1637 O   0  0  0  0  0  0  0  0  0  0  0  0
   30.5100    9.9940    8.3086 C   0  0  0  0  0  0  0  0  0  0  0  0
   29.9606   11.3112    8.0236 C   0  0  0  0  0  0  0  0  0  0  0  0
   30.5737   11.8748    6.9283 C   0  0  0  0  0  0  0  0  0  0  0  0
   30.1786   12.8757    6.3603 O   0  0  0  0  0  0  0  0  0  0  0  0
  1  2  1  0
  2  3  2  0
  2  4  2  0
  2  5  1  0
  5  6  1  0
  6  7  1  0
  7  8  1  0
  8  9  1  0
  9 10  1  0
 10 11  2  0
 10 12  1  0
 12 13  2  0
 13 14  1  0
 14 15  2  0
 14  9  1  0
A    1
 N1 
A    2
 S1 
A    3
 O1 
A    4
 O2 
A    5
 C1 
A    6
 C2 
A    7
 C3 
A    8
 C4 
A    9
 N2 
A   10
 C5 
A   11
 O3 
A   12
 C6 
A   13
 C7 
A   14
 C8 
A   15
 O4 
M  END
>  <ref_pdb>  (1348) 
Ax0310a

>  <ref_mols>  (1348) 
Ax0446a,Ax1080a,Ax0812a,Ax0719a,Ax1140a,Ax0528a,Ax0310a

>  <original SMILES>  (1348) 
NS(=O)(=O)CCCCN1C(=O)C=CC1=O

>  <rationale>  (1348) 
info info set:sulfonimide_whole;hbond:S87+G127; 

>  <experiment>  (1348) 
sulfonimide_whole

>  <cluster_label>  (1348) 
3

>  <cluster_rank>  (1348) 
1005

>  <N_interactions>  (1348) 
3

>  <∆∆G>  (1348) 
-0.965432

>  <comRMSD>  (1348) 
0.82305

>  <ROCS_TanimotoCombo>  (1348) 
0.343

>  <ROCS_ShapeTanimoto>  (1348) 
0.19

>  <ROCS_ColorTanimoto>  (1348) 
0.153

$$$$
Z979003710
     RDKit          3D

 15 15  0  0  0  0  0  0  0  0999 V2000
   29.6139    8.0762    8.5914 C   0  0  0  0  0  0  0  0  0  0  0  0
   31.0597    8.0668    8.5312 C   0  0  0  0  0  0  0  0  0  0  0  0
   31.3656    9.3866    8.3863 O   0  0  0  0  0  0  0  0  0  0  0  0
   32.0173    9.7725    7.2758 C   0  0  0  0  0  0  0  0  0  0  0  0
   32.7780    8.9253    6.5684 N   0  0  0  0  0  0  0  0  0  0  0  0
   33.3981    9.4642    5.5095 C   0  0  0  0  0  0  0  0  0  0  0  0
   33.2738   10.7990    5.1487 C   0  0  0  0  0  0  0  0  0  0  0  0
   32.4592   11.6248    5.9186 C   0  0  0  0  0  0  0  0  0  0  0  0
   31.8166   11.0756    7.0092 C   0  0  0  0  0  0  0  0  0  0  0  0
   30.9257   11.8183    7.9080 C   0  0  0  0  0  0  0  0  0  0  0  0
   30.3184   11.1471    8.7065 O   0  0  0  0  0  0  0  0  0  0  0  0
   30.7379   13.1639    7.8908 N   0  0  0  0  0  0  0  0  0  0  0  0
   29.6431   13.6289    8.7138 C   0  0  0  0  0  0  0  0  0  0  0  0
   28.9417   14.7340    8.0901 C   0  0  0  0  0  0  0  0  0  0  0  0
   28.4383   15.6181    7.5771 N   0  0  0  0  0  0  0  0  0  0  0  0
  1  2  1  0
  2  3  1  0
  3  4  1  0
  4  5  2  0
  5  6  1  0
  6  7  2  0
  7  8  1  0
  8  9  2  0
  9 10  1  0
 10 11  2  0
 10 12  1  0
 12 13  1  0
 13 14  1  0
 14 15  3  0
  9  4  1  0
A    1
 C1 
A    2
 C2 
A    3
 O1 
A    4
 C3 
A    5
 N1 
A    6
 C4 
A    7
 C5 
A    8
 C6 
A    9
 C7 
A   10
 C8 
A   11
 O2 
A   12
 N2 
A   13
 C9 
A   14
 C10
A   15
 N3 
M  END
>  <ref_pdb>  (1349) 
Ax0310a

>  <ref_mols>  (1349) 
Ax0446a,Ax1080a,Ax0812a,Ax0719a,Ax1140a,Ax0528a,Ax0310a

>  <original SMILES>  (1349) 
CCOc1ncccc1C(=O)NCC#N

>  <rationale>  (1349) 
info info set:screening_pocket;hbond:S87; hydroph_interaction:P107+V124; 

>  <experiment>  (1349) 
screening_pocket

>  <cluster_label>  (1349) 
3

>  <cluster_rank>  (1349) 
1006

>  <N_interactions>  (1349) 
4

>  <∆∆G>  (1349) 
-4.014064

>  <comRMSD>  (1349) 
0.81259

>  <ROCS_TanimotoCombo>  (1349) 
0.626

>  <ROCS_ShapeTanimoto>  (1349) 
0.231

>  <ROCS_ColorTanimoto>  (1349) 
0.395

$$$$
EN300_26689084
     RDKit          3D

 19 21  0  0  0  0  0  0  0  0999 V2000
   33.8076   12.6089    3.5986 C   0  0  0  0  0  0  0  0  0  0  0  0
   33.8489   11.2416    4.2863 C   0  0  0  0  0  0  0  0  0  0  0  0
   34.7163   10.1696    3.6898 C   0  0  0  0  0  0  0  0  0  0  0  0
   34.6048    8.7385    4.6262 S   0  0  0  0  0  0  0  0  0  0  0  0
   33.3594    9.4544    5.6645 C   0  0  0  0  0  0  0  0  0  0  0  0
   32.7026    8.7754    6.5340 N   0  0  0  0  0  0  0  0  0  0  0  0
   31.7590    9.4599    7.2356 C   0  0  0  0  0  0  0  0  0  0  0  0
   31.5609   10.8201    7.1565 C   0  0  0  0  0  0  0  0  0  0  0  0
   30.4767   11.3569    7.9836 C   0  0  0  0  0  0  0  0  0  0  0  0
   30.1596   10.6966    8.9273 O   0  0  0  0  0  0  0  0  0  0  0  0
   29.8715   12.5328    7.5555 N   0  0  0  0  0  0  0  0  0  0  0  0
   29.4620   13.7149    8.3094 C   0  0  0  0  0  0  0  0  0  0  0  0
   28.9508   14.6989    7.4783 C   0  0  0  0  0  0  0  0  0  0  0  0
   28.5169   15.5076    6.8698 N   0  0  0  0  0  0  0  0  0  0  0  0
   28.5469   13.6915    9.4925 C   0  0  0  0  0  0  0  0  0  0  0  0
   29.9885   14.1104    9.6692 C   0  0  0  0  0  0  0  0  0  0  0  0
   32.4312   11.5912    6.2556 C   0  0  0  0  0  0  0  0  0  0  0  0
   32.4232   12.8188    6.3046 O   0  0  0  0  0  0  0  0  0  0  0  0
   33.1897   10.8147    5.4150 N   0  0  0  0  0  0  0  0  0  0  0  0
  1  2  1  0
  2  3  2  0
  3  4  1  0
  4  5  1  0
  5  6  2  0
  6  7  1  0
  7  8  2  0
  8  9  1  0
  9 10  2  0
  9 11  1  0
 11 12  1  0
 12 13  1  0
 13 14  3  0
 12 15  1  0
 15 16  1  0
  8 17  1  0
 17 18  2  0
 17 19  1  0
 19  2  1  0
 19  5  1  0
 16 12  1  0
A    1
 C1 
A    2
 C2 
A    3
 C3 
A    4
 S1 
A    5
 C4 
A    6
 N1 
A    7
 C5 
A    8
 C6 
A    9
 C7 
A   10
 O1 
A   11
 N2 
A   12
 C8 
A   13
 C9 
A   14
 N3 
A   15
 C10
A   16
 C11
A   17
 C12
A   18
 O2 
A   19
 N4 
M  END
>  <ref_pdb>  (1350) 
Ax0310a

>  <ref_mols>  (1350) 
Ax0446a,Ax1080a,Ax0812a,Ax0719a,Ax1140a,Ax0528a,Ax0310a

>  <original SMILES>  (1350) 
Cc1csc2ncc(C(=O)NC3(C#N)CC3)c(=O)n12

>  <rationale>  (1350) 
info info set:bb_densepocket2;

>  <experiment>  (1350) 
bb_densepocket2

>  <cluster_label>  (1350) 
3

>  <cluster_rank>  (1350) 
1007

>  <N_interactions>  (1350) 
0

>  <∆∆G>  (1350) 
-1.010111

>  <comRMSD>  (1350) 
0.541456

>  <ROCS_TanimotoCombo>  (1350) 
0.624

>  <ROCS_ShapeTanimoto>  (1350) 
0.263

>  <ROCS_ColorTanimoto>  (1350) 
0.362

$$$$
EN300_1295042
     RDKit          3D

 13 13  0  0  0  0  0  0  0  0999 V2000
   30.3081    8.6564    7.7299 C   0  0  0  0  0  0  0  0  0  0  0  0
   30.3170    9.2027    8.9728 C   0  0  0  0  0  0  0  0  0  0  0  0
   30.8872    8.0082    9.5485 C   0  0  0  0  0  0  0  0  0  0  0  0
   28.8902    9.4718    9.2060 C   0  0  0  0  0  0  0  0  0  0  0  0
   31.1774   10.2454    8.8022 O   0  0  0  0  0  0  0  0  0  0  0  0
   31.7482   10.4921    7.6227 C   0  0  0  0  0  0  0  0  0  0  0  0
   32.5351    9.5992    6.9680 N   0  0  0  0  0  0  0  0  0  0  0  0
   33.0625   10.0597    5.8302 C   0  0  0  0  0  0  0  0  0  0  0  0
   34.1045    9.0364    4.9380 Cl  0  0  0  0  0  0  0  0  0  0  0  0
   32.7807   11.4571    5.3080 C   0  0  0  0  0  0  0  0  0  0  0  0
   31.9422   12.2555    6.0692 C   0  0  0  0  0  0  0  0  0  0  0  0
   31.4168   11.7703    7.2475 C   0  0  0  0  0  0  0  0  0  0  0  0
   30.5699   12.5634    8.0526 N   0  0  0  0  0  0  0  0  0  0  0  0
  1  2  1  0
  2  3  1  0
  2  4  1  0
  2  5  1  0
  5  6  1  0
  6  7  2  0
  7  8  1  0
  8  9  1  0
  8 10  2  0
 10 11  1  0
 11 12  2  0
 12 13  1  0
 12  6  1  0
A    1
 C1 
A    2
 C2 
A    3
 C3 
A    4
 C4 
A    5
 O1 
A    6
 C5 
A    7
 N1 
A    8
 C6 
A    9
CL1 
A   10
 C7 
A   11
 C8 
A   12
 C9 
A   13
 N2 
M  END
>  <ref_pdb>  (1351) 
Ax0310a

>  <ref_mols>  (1351) 
Ax0446a,Ax1080a,Ax0812a,Ax0719a,Ax1140a,Ax0528a,Ax0310a

>  <original SMILES>  (1351) 
CC(C)(C)Oc1nc(Cl)ccc1N

>  <rationale>  (1351) 
info info set:bb_densepocket2;hbond:S125; hydroph_interaction:P107; 

>  <experiment>  (1351) 
bb_densepocket2

>  <cluster_label>  (1351) 
3

>  <cluster_rank>  (1351) 
1008

>  <N_interactions>  (1351) 
2

>  <∆∆G>  (1351) 
-1.218126

>  <comRMSD>  (1351) 
0.988568

>  <ROCS_TanimotoCombo>  (1351) 
0.612

>  <ROCS_ShapeTanimoto>  (1351) 
0.213

>  <ROCS_ColorTanimoto>  (1351) 
0.399

$$$$
Z811810700
     RDKit          3D

 20 21  0  0  0  0  0  0  0  0999 V2000
   27.7519   13.9618    5.9841 C   0  0  0  0  0  0  0  0  0  0  0  0
   28.4033   14.6198    7.1775 C   0  0  0  0  0  0  0  0  0  0  0  0
   28.4673   16.0110    7.1746 O   0  0  0  0  0  0  0  0  0  0  0  0
   29.0363   16.4318    8.2927 C   0  0  0  0  0  0  0  0  0  0  0  0
   29.4172   15.2742    9.0985 C   0  0  0  0  0  0  0  0  0  0  0  0
   28.9811   14.2291    8.3196 C   0  0  0  0  0  0  0  0  0  0  0  0
   29.2457   12.9978    8.9214 C   0  0  0  0  0  0  0  0  0  0  0  0
   29.2510   11.9194    8.0032 N   0  0  0  0  0  0  0  0  0  0  0  0
   28.2137   11.9262    7.0744 C   0  0  0  0  0  0  0  0  0  0  0  0
   30.1556   10.8433    8.1698 C   0  0  0  0  0  0  0  0  0  0  0  0
   30.1260   10.0192    9.0648 O   0  0  0  0  0  0  0  0  0  0  0  0
   31.2727   10.6574    7.2348 C   0  0  0  0  0  0  0  0  0  0  0  0
   31.8596   11.6745    6.3714 C   0  0  0  0  0  0  0  0  0  0  0  0
   32.9009   11.3350    5.5332 C   0  0  0  0  0  0  0  0  0  0  0  0
   33.3719   10.0454    5.5247 C   0  0  0  0  0  0  0  0  0  0  0  0
   34.4366    9.7937    4.6243 N   0  0  0  0  0  0  0  0  0  0  0  0
   34.9566    8.4462    4.5740 C   0  0  0  0  0  0  0  0  0  0  0  0
   34.2134   10.3514    3.2978 C   0  0  0  0  0  0  0  0  0  0  0  0
   32.8564    9.0865    6.3192 N   0  0  0  0  0  0  0  0  0  0  0  0
   31.8260    9.3963    7.1530 C   0  0  0  0  0  0  0  0  0  0  0  0
  1  2  1  0
  2  3  1  0
  3  4  1  0
  4  5  2  0
  5  6  1  0
  6  7  1  0
  7  8  1  0
  8  9  1  0
  8 10  1  0
 10 11  2  0
 10 12  1  0
 12 13  2  0
 13 14  1  0
 14 15  2  0
 15 16  1  0
 16 17  1  0
 16 18  1  0
 15 19  1  0
 19 20  2  0
  6  2  2  0
 20 12  1  0
A    1
 C1 
A    2
 C2 
A    3
 O1 
A    4
 C3 
A    5
 C4 
A    6
 C5 
A    7
 C6 
A    8
 N1 
A    9
 C7 
A   10
 C8 
A   11
 O2 
A   12
 C9 
A   13
 C10
A   14
 C11
A   15
 C12
A   16
 N2 
A   17
 C13
A   18
 C14
A   19
 N3 
A   20
 C15
M  END
>  <ref_pdb>  (1352) 
Ax0310a

>  <ref_mols>  (1352) 
Ax0446a,Ax1080a,Ax0812a,Ax0719a,Ax1140a,Ax0528a,Ax0310a

>  <original SMILES>  (1352) 
Cc1occc1CN(C)C(=O)c1ccc(N(C)C)nc1

>  <rationale>  (1352) 
info info set:screening_pocket;hydroph_interaction:P107+Y89+Y90; pistack:H21; 

>  <experiment>  (1352) 
screening_pocket

>  <cluster_label>  (1352) 
3

>  <cluster_rank>  (1352) 
1009

>  <N_interactions>  (1352) 
4

>  <∆∆G>  (1352) 
-2.217613

>  <comRMSD>  (1352) 
0.813002

>  <ROCS_TanimotoCombo>  (1352) 
0.637

>  <ROCS_ShapeTanimoto>  (1352) 
0.241

>  <ROCS_ColorTanimoto>  (1352) 
0.396

$$$$
Z7993685784
     RDKit          3D

 16 17  0  0  0  0  0  0  0  0999 V2000
   28.4257   15.6292    7.5638 N   0  0  0  0  0  0  0  0  0  0  0  0
   29.0021   15.5242    8.5509 C   0  0  0  0  0  0  0  0  0  0  0  0
   29.8330   15.3346    9.8082 C   0  0  0  0  0  0  0  0  0  0  0  0
   30.5916   14.1576    9.6733 C   0  0  0  0  0  0  0  0  0  0  0  0
   29.8810   13.3399    8.6421 C   0  0  0  0  0  0  0  0  0  0  0  0
   30.8157   12.4685    8.0456 C   0  0  0  0  0  0  0  0  0  0  0  0
   30.5977   11.1629    8.4604 O   0  0  0  0  0  0  0  0  0  0  0  0
   31.3715   10.4032    7.7388 C   0  0  0  0  0  0  0  0  0  0  0  0
   31.4238    8.9886    7.7427 C   0  0  0  0  0  0  0  0  0  0  0  0
   32.3231    8.4571    6.8930 N   0  0  0  0  0  0  0  0  0  0  0  0
   33.1389    9.2481    6.0731 C   0  0  0  0  0  0  0  0  0  0  0  0
   34.0750    8.8180    5.1859 N   0  0  0  0  0  0  0  0  0  0  0  0
   34.6576    9.8984    4.5751 C   0  0  0  0  0  0  0  0  0  0  0  0
   34.0708   11.0344    5.0985 C   0  0  0  0  0  0  0  0  0  0  0  0
   33.1107   10.6042    6.0459 C   0  0  0  0  0  0  0  0  0  0  0  0
   32.1972   11.1917    6.9081 C   0  0  0  0  0  0  0  0  0  0  0  0
  1  2  3  0
  2  3  1  0
  3  4  1  0
  4  5  1  0
  5  6  1  0
  6  7  1  0
  7  8  1  0
  8  9  2  0
  9 10  1  0
 10 11  2  0
 11 12  1  0
 12 13  1  0
 13 14  2  0
 14 15  1  0
 15 16  2  0
 16  8  1  0
 15 11  1  0
A    1
 N1 
A    2
 C1 
A    3
 C2 
A    4
 C3 
A    5
 C4 
A    6
 C5 
A    7
 O1 
A    8
 C6 
A    9
 C7 
A   10
 N2 
A   11
 C8 
A   12
 N3 
A   13
 C9 
A   14
 C10
A   15
 C11
A   16
 C12
M  END
>  <ref_pdb>  (1353) 
Ax0310a

>  <ref_mols>  (1353) 
Ax0446a,Ax1080a,Ax0812a,Ax0719a,Ax1140a,Ax0528a,Ax0310a

>  <original SMILES>  (1353) 
N#CCCCCOc1cnc2[nH]ccc2c1

>  <rationale>  (1353) 
info info set:screening_pocket;hydroph_interaction:Y90; 

>  <experiment>  (1353) 
screening_pocket

>  <cluster_label>  (1353) 
3

>  <cluster_rank>  (1353) 
1010

>  <N_interactions>  (1353) 
1

>  <∆∆G>  (1353) 
-1.390149

>  <comRMSD>  (1353) 
0.644978

>  <ROCS_TanimotoCombo>  (1353) 
0.647

>  <ROCS_ShapeTanimoto>  (1353) 
0.227

>  <ROCS_ColorTanimoto>  (1353) 
0.42

$$$$
EN300_1269012
     RDKit          3D

 12 12  0  0  0  0  0  0  0  0999 V2000
   34.4510    8.8538    4.9916 C   0  0  0  0  0  0  0  0  0  0  0  0
   33.4477    9.7918    5.6079 C   0  0  0  0  0  0  0  0  0  0  0  0
   32.6407    9.3994    6.6562 N   0  0  0  0  0  0  0  0  0  0  0  0
   31.8603   10.4536    7.0131 C   0  0  0  0  0  0  0  0  0  0  0  0
   30.8457   10.4131    8.1114 C   0  0  0  0  0  0  0  0  0  0  0  0
   30.5545   11.4002    8.7564 O   0  0  0  0  0  0  0  0  0  0  0  0
   30.1433    9.1179    8.3288 C   0  0  0  0  0  0  0  0  0  0  0  0
   28.8247    9.3813    8.8531 C   0  0  0  0  0  0  0  0  0  0  0  0
   30.8012    8.1278    9.1921 C   0  0  0  0  0  0  0  0  0  0  0  0
   32.0824   11.8737    6.1242 S   0  0  0  0  0  0  0  0  0  0  0  0
   33.2667   11.0791    5.1924 C   0  0  0  0  0  0  0  0  0  0  0  0
   33.9654   11.8243    4.0661 C   0  0  0  0  0  0  0  0  0  0  0  0
  1  2  1  0
  2  3  1  0
  3  4  2  0
  4  5  1  0
  5  6  2  0
  5  7  1  0
  7  8  1  0
  7  9  1  0
  4 10  1  0
 10 11  1  0
 11 12  1  0
 11  2  2  0
A    1
 C1 
A    2
 C2 
A    3
 N1 
A    4
 C3 
A    5
 C4 
A    6
 O1 
A    7
 C5 
A    8
 C6 
A    9
 C7 
A   10
 S1 
A   11
 C8 
A   12
 C9 
M  END
>  <ref_pdb>  (1354) 
Ax0310a

>  <ref_mols>  (1354) 
Ax0446a,Ax1080a,Ax0812a,Ax0719a,Ax1140a,Ax0528a,Ax0310a

>  <original SMILES>  (1354) 
Cc1nc(C(=O)C(C)C)sc1C

>  <rationale>  (1354) 
info info set:bb_densepocket2;

>  <experiment>  (1354) 
bb_densepocket2

>  <cluster_label>  (1354) 
3

>  <cluster_rank>  (1354) 
1011

>  <N_interactions>  (1354) 
0

>  <∆∆G>  (1354) 
-5.912001

>  <comRMSD>  (1354) 
0.730903

>  <ROCS_TanimotoCombo>  (1354) 
0.623

>  <ROCS_ShapeTanimoto>  (1354) 
0.193

>  <ROCS_ColorTanimoto>  (1354) 
0.429

$$$$
Z1130245890
     RDKit          3D

 16 17  0  0  0  0  0  0  0  0999 V2000
   34.1817   11.1646    5.0601 C   0  0  0  0  0  0  0  0  0  0  0  0
   33.0312   10.9550    6.0466 C   0  0  0  0  0  0  0  0  0  0  0  0
   33.0238    9.4744    6.1341 C   0  0  0  0  0  0  0  0  0  0  0  0
   32.0431    8.7758    7.0304 C   0  0  0  0  0  0  0  0  0  0  0  0
   31.1072    9.6511    7.7912 C   0  0  0  0  0  0  0  0  0  0  0  0
   30.1282    9.0001    8.7068 C   0  0  0  0  0  0  0  0  0  0  0  0
   31.2117   11.2079    7.5956 C   0  0  0  0  0  0  0  0  0  0  0  0
   30.2107   12.0591    8.4185 C   0  0  0  0  0  0  0  0  0  0  0  0
   29.2166   12.8663    7.7611 N   0  0  0  0  0  0  0  0  0  0  0  0
   28.0296   13.2093    8.4189 C   0  0  0  0  0  0  0  0  0  0  0  0
   27.6293   14.5069    8.2899 C   0  0  0  0  0  0  0  0  0  0  0  0
   28.8927   15.1375    7.8356 C   0  0  0  0  0  0  0  0  0  0  0  0
   29.7689   14.0562    7.6548 C   0  0  1  0  0  0  0  0  0  0  0  0
   30.8545   14.2048    8.7342 C   0  0  0  0  0  0  0  0  0  0  0  0
   30.9514   15.1909    9.4662 O   0  0  0  0  0  0  0  0  0  0  0  0
   32.1671   11.7903    6.7365 C   0  0  0  0  0  0  0  0  0  0  0  0
  1  2  1  0
  2  3  2  0
  3  4  1  0
  4  5  2  0
  5  6  1  0
  5  7  1  0
  7  8  1  0
  8  9  1  0
  9 10  1  0
 10 11  1  0
 11 12  1  0
 12 13  1  0
 13 14  1  1
 14 15  1  0
  7 16  2  0
 16  2  1  0
 13  9  1  0
A    1
 C1 
A    2
 C2 
A    3
 C3 
A    4
 C4 
A    5
 C5 
A    6
 C6 
A    7
 C7 
A    8
 C8 
A    9
 N1 
A   10
 C9 
A   11
 C10
A   12
 C11
A   13
 C12
A   14
 C13
A   15
 O1 
A   16
 C14
M  END
>  <ref_pdb>  (1355) 
Ax0310a

>  <ref_mols>  (1355) 
Ax0446a,Ax1080a,Ax0812a,Ax0719a,Ax1140a,Ax0528a,Ax0310a

>  <original SMILES>  (1355) 
Cc1ccc(C)c(CN2CCC[C@H]2CO)c1

>  <rationale>  (1355) 
info info set:3d;hbond:S87; hydroph_interaction:V124; 

>  <experiment>  (1355) 
3d

>  <cluster_label>  (1355) 
3

>  <cluster_rank>  (1355) 
1012

>  <N_interactions>  (1355) 
2

>  <∆∆G>  (1355) 
-5.471802

>  <comRMSD>  (1355) 
0.955625

>  <ROCS_TanimotoCombo>  (1355) 
0.308

>  <ROCS_ShapeTanimoto>  (1355) 
0.206

>  <ROCS_ColorTanimoto>  (1355) 
0.102

$$$$
EN300_7509767
     RDKit          3D

 15 16  0  0  0  0  0  0  0  0999 V2000
   29.6096    8.2870    8.5632 C   0  0  0  0  0  0  0  0  0  0  0  0
   31.3100    8.2411    8.5558 S   0  0  0  0  0  0  0  0  0  0  0  0
   31.9120    9.2947    7.3265 C   0  0  0  0  0  0  0  0  0  0  0  0
   32.8752    8.7870    6.4952 N   0  0  0  0  0  0  0  0  0  0  0  0
   33.3494    9.6727    5.5543 C   0  0  0  0  0  0  0  0  0  0  0  0
   32.8558   11.1295    5.4189 C   0  0  0  0  0  0  0  0  0  0  0  0
   31.8809   11.5667    6.2834 C   0  0  0  0  0  0  0  0  0  0  0  0
   31.3790   10.7181    7.2315 C   0  0  0  0  0  0  0  0  0  0  0  0
   30.3302   11.2163    8.1383 C   0  0  0  0  0  0  0  0  0  0  0  0
   30.1236   10.4524    9.0377 O   0  0  0  0  0  0  0  0  0  0  0  0
   29.6749   12.4014    7.8931 N   0  0  0  0  0  0  0  0  0  0  0  0
   28.7744   13.1548    8.7664 C   0  0  0  0  0  0  0  0  0  0  0  0
   28.0145   14.0006    7.7476 C   0  0  0  0  0  0  0  0  0  0  0  0
   27.9109   13.1032    6.5426 C   0  0  0  0  0  0  0  0  0  0  0  0
   29.3901   12.7734    6.5290 C   0  0  0  0  0  0  0  0  0  0  0  0
  1  2  1  0
  2  3  1  0
  3  4  2  0
  4  5  1  0
  5  6  2  0
  6  7  1  0
  7  8  2  0
  8  9  1  0
  9 10  2  0
  9 11  1  0
 11 12  1  0
 12 13  1  0
 13 14  1  0
 14 15  1  0
  8  3  1  0
 15 11  1  0
A    1
 C1 
A    2
 S1 
A    3
 C2 
A    4
 N1 
A    5
 C3 
A    6
 C4 
A    7
 C5 
A    8
 C6 
A    9
 C7 
A   10
 O1 
A   11
 N2 
A   12
 C8 
A   13
 C9 
A   14
 C10
A   15
 C11
M  END
>  <ref_pdb>  (1356) 
Ax0310a

>  <ref_mols>  (1356) 
Ax0446a,Ax1080a,Ax0812a,Ax0719a,Ax1140a,Ax0528a,Ax0310a

>  <original SMILES>  (1356) 
CSc1ncccc1C(=O)N1CCCC1

>  <rationale>  (1356) 
info info set:bb_densepocket2;hydroph_interaction:P107; 

>  <experiment>  (1356) 
bb_densepocket2

>  <cluster_label>  (1356) 
3

>  <cluster_rank>  (1356) 
1013

>  <N_interactions>  (1356) 
2

>  <∆∆G>  (1356) 
-5.393392

>  <comRMSD>  (1356) 
0.898323

>  <ROCS_TanimotoCombo>  (1356) 
0.608

>  <ROCS_ShapeTanimoto>  (1356) 
0.218

>  <ROCS_ColorTanimoto>  (1356) 
0.39

$$$$
EN300_133725
     RDKit          3D

 13 13  0  0  0  0  0  0  0  0999 V2000
   29.9813   13.0289    6.6614 N   0  0  0  0  0  0  0  0  0  0  0  0
   31.1780   12.6526    6.0386 C   0  0  0  0  0  0  0  0  0  0  0  0
   32.2779   12.2866    6.7912 C   0  0  0  0  0  0  0  0  0  0  0  0
   33.3118   13.2208    6.9204 C   0  0  0  0  0  0  0  0  0  0  0  0
   33.5716   13.8418    8.5785 S   0  0  0  0  0  6  0  0  0  0  0  0
   34.9190   14.8180    8.3575 N   0  0  0  0  0  0  0  0  0  0  0  0
   34.0882   12.8126    9.3726 O   0  0  0  0  0  0  0  0  0  0  0  0
   32.4523   14.6090    9.0934 O   0  0  0  0  0  0  0  0  0  0  0  0
   32.9581   11.0755    6.1996 C   0  0  0  0  0  0  0  0  0  0  0  0
   32.0302   10.0890    6.1454 C   0  0  0  0  0  0  0  0  0  0  0  0
   31.5001    9.5656    7.4760 C   0  0  0  0  0  0  0  0  0  0  0  0
   30.8002   10.6466    8.0667 C   0  0  0  0  0  0  0  0  0  0  0  0
   31.7210   11.8991    7.9627 C   0  0  0  0  0  0  0  0  0  0  0  0
  1  2  3  0
  2  3  1  0
  3  4  1  0
  4  5  1  0
  5  6  1  0
  5  7  2  0
  5  8  2  0
  3  9  1  0
  9 10  1  0
 10 11  1  0
 11 12  1  0
 12 13  1  0
 13  3  1  0
A    1
 N1 
A    2
 C1 
A    3
 C2 
A    4
 C3 
A    5
 S1 
A    6
 N2 
A    7
 O1 
A    8
 O2 
A    9
 C4 
A   10
 C5 
A   11
 C6 
A   12
 C7 
A   13
 C8 
M  END
>  <ref_pdb>  (1357) 
Ax0310a

>  <ref_mols>  (1357) 
Ax0446a,Ax1080a,Ax0812a,Ax0719a,Ax1140a,Ax0528a,Ax0310a

>  <original SMILES>  (1357) 
N#CC1(CS(N)(=O)=O)CCCCC1

>  <rationale>  (1357) 
info info set:sulfonimide_whole;hbond:S87+G127+E85; hydroph_interaction:P107; 

>  <experiment>  (1357) 
sulfonimide_whole

>  <cluster_label>  (1357) 
3

>  <cluster_rank>  (1357) 
1014

>  <N_interactions>  (1357) 
4

>  <∆∆G>  (1357) 
-0.904017

>  <comRMSD>  (1357) 
0.782195

>  <ROCS_TanimotoCombo>  (1357) 
0.329

>  <ROCS_ShapeTanimoto>  (1357) 
0.171

>  <ROCS_ColorTanimoto>  (1357) 
0.158

$$$$
EN300_28262805
     RDKit          3D

 18 18  0  0  0  0  0  0  0  0999 V2000
   35.8573   11.7731    2.9541 C   0  0  0  0  0  0  0  0  0  0  0  0
   35.0992   11.1805    3.9997 O   0  0  0  0  0  0  0  0  0  0  0  0
   34.0242   11.9180    4.3664 C   0  0  0  0  0  0  0  0  0  0  0  0
   33.6614   13.2035    3.7891 O   0  0  0  0  0  0  0  0  0  0  0  0
   33.1714   11.2825    5.4566 C   0  0  0  0  0  0  0  0  0  0  0  0
   33.2080    9.8085    5.6638 C   0  0  0  0  0  0  0  0  0  0  0  0
   34.1740    9.0923    4.7065 C   0  0  0  0  0  0  0  0  0  0  0  0
   32.3912    9.4174    6.6447 N   0  0  0  0  0  0  0  0  0  0  0  0
   31.8470   10.6445    7.0582 N   0  0  0  0  0  0  0  0  0  0  0  0
   30.9165   10.8216    8.0756 C   0  0  0  0  0  0  0  0  0  0  0  0
   30.0844   11.6956    8.0616 O   0  0  0  0  0  0  0  0  0  0  0  0
   31.1075    9.9560    8.9981 O   0  0  0  0  0  0  0  0  0  0  0  0
   30.1897    8.9869    9.1687 C   0  0  0  0  0  0  0  0  0  0  0  0
   29.7355    9.0276    8.0021 C   0  0  0  0  0  0  0  0  0  0  0  0
   28.8432    9.3248    9.5124 C   0  0  0  0  0  0  0  0  0  0  0  0
   30.7178    7.6901    9.0411 C   0  0  0  0  0  0  0  0  0  0  0  0
   32.3068   11.7295    6.3757 C   0  0  0  0  0  0  0  0  0  0  0  0
   31.8269   13.0715    6.7215 C   0  0  0  0  0  0  0  0  0  0  0  0
  1  2  1  0
  2  3  1  0
  3  4  2  0
  3  5  1  0
  5  6  1  0
  6  7  1  0
  6  8  2  0
  8  9  1  0
  9 10  1  0
 10 11  2  0
 10 12  1  0
 12 13  1  0
 13 14  1  0
 13 15  1  0
 13 16  1  0
  9 17  1  0
 17 18  1  0
 17  5  2  0
A    1
 C1 
A    2
 O1 
A    3
 C2 
A    4
 O2 
A    5
 C3 
A    6
 C4 
A    7
 C5 
A    8
 N1 
A    9
 N2 
A   10
 C6 
A   11
 O3 
A   12
 O4 
A   13
 C7 
A   14
 C8 
A   15
 C9 
A   16
 C10
A   17
 C11
A   18
 C12
M  END
>  <ref_pdb>  (1358) 
Ax0310a

>  <ref_mols>  (1358) 
Ax0446a,Ax1080a,Ax0812a,Ax0719a,Ax1140a,Ax0528a,Ax0310a

>  <original SMILES>  (1358) 
COC(=O)c1c(C)nn(C(=O)OC(C)(C)C)c1C

>  <rationale>  (1358) 
info info set:bb_densepocket2;hydroph_interaction:P107; 

>  <experiment>  (1358) 
bb_densepocket2

>  <cluster_label>  (1358) 
3

>  <cluster_rank>  (1358) 
1015

>  <N_interactions>  (1358) 
1

>  <∆∆G>  (1358) 
-3.183754

>  <comRMSD>  (1358) 
0.918769

>  <ROCS_TanimotoCombo>  (1358) 
0.617

>  <ROCS_ShapeTanimoto>  (1358) 
0.248

>  <ROCS_ColorTanimoto>  (1358) 
0.37

$$$$
Z45528382
     RDKit          3D

 14 14  0  0  0  0  0  0  0  0999 V2000
   35.2940   12.8223    5.4594 C   0  0  0  0  0  0  0  0  0  0  0  0
   34.6900   13.9920    6.2075 C   0  0  0  0  0  0  0  0  0  0  0  0
   33.3253   13.8914    6.3145 N   0  0  0  0  0  0  0  0  0  0  0  0
   32.7382   13.3243    7.7803 S   0  0  0  0  0  6  0  0  0  0  0  0
   31.5531   14.0361    8.2086 O   0  0  0  0  0  0  0  0  0  0  0  0
   33.8623   13.1946    8.6860 O   0  0  0  0  0  0  0  0  0  0  0  0
   32.2035   11.7083    7.4974 C   0  0  0  0  0  0  0  0  0  0  0  0
   32.9803   10.7601    6.8913 C   0  0  0  0  0  0  0  0  0  0  0  0
   32.6026    9.4597    6.7536 C   0  0  0  0  0  0  0  0  0  0  0  0
   31.3868    9.1001    7.2613 C   0  0  0  0  0  0  0  0  0  0  0  0
   30.5662   10.0513    7.8384 C   0  0  0  0  0  0  0  0  0  0  0  0
   30.9712   11.3609    7.9346 C   0  0  0  0  0  0  0  0  0  0  0  0
   30.2442   12.3800    8.4541 O   0  0  0  0  0  0  0  0  0  0  0  0
   29.1161   12.8522    7.7174 C   0  0  0  0  0  0  0  0  0  0  0  0
  1  2  1  0
  2  3  1  0
  3  4  1  0
  4  5  2  0
  4  6  2  0
  4  7  1  0
  7  8  2  0
  8  9  1  0
  9 10  2  0
 10 11  1  0
 11 12  2  0
 12 13  1  0
 13 14  1  0
 12  7  1  0
A    1
 C1 
A    2
 C2 
A    3
 N1 
A    4
 S1 
A    5
 O1 
A    6
 O2 
A    7
 C3 
A    8
 C4 
A    9
 C5 
A   10
 C6 
A   11
 C7 
A   12
 C8 
A   13
 O3 
A   14
 C9 
M  END
>  <ref_pdb>  (1359) 
Ax0310a

>  <ref_mols>  (1359) 
Ax0446a,Ax1080a,Ax0812a,Ax0719a,Ax1140a,Ax0528a,Ax0310a

>  <original SMILES>  (1359) 
CCNS(=O)(=O)c1ccccc1OC

>  <rationale>  (1359) 
info info set:3d;hbond:S87+G127; 

>  <experiment>  (1359) 
3d

>  <cluster_label>  (1359) 
3

>  <cluster_rank>  (1359) 
1016

>  <N_interactions>  (1359) 
2

>  <∆∆G>  (1359) 
-4.673936

>  <comRMSD>  (1359) 
0.919915

>  <ROCS_TanimotoCombo>  (1359) 
0.31

>  <ROCS_ShapeTanimoto>  (1359) 
0.178

>  <ROCS_ColorTanimoto>  (1359) 
0.132

$$$$
EN300_8058703
     RDKit          3D

 13 13  0  0  0  0  0  0  0  0999 V2000
   34.4308   14.5370    7.3786 C   0  0  0  0  0  0  0  0  0  0  0  0
   33.1428   13.6966    8.2799 S   0  0  0  0  0  6  0  0  0  0  0  0
   33.8263   12.6537    8.9261 O   0  0  0  0  0  0  0  0  0  0  0  0
   32.2880   14.5748    9.0499 O   0  0  0  0  0  0  0  0  0  0  0  0
   32.2655   13.0669    6.9812 N   0  0  0  0  0  0  0  0  0  0  0  0
   32.0546   11.6881    7.0669 C   0  0  0  0  0  0  0  0  0  0  0  0
   31.0664   11.2211    7.8689 C   0  0  0  0  0  0  0  0  0  0  0  0
   30.8559    9.7964    7.9749 C   0  0  0  0  0  0  0  0  0  0  0  0
   31.6420    8.9070    7.2705 C   0  0  0  0  0  0  0  0  0  0  0  0
   32.6700    9.4216    6.4275 C   0  0  0  0  0  0  0  0  0  0  0  0
   32.8633   10.8126    6.3384 C   0  0  0  0  0  0  0  0  0  0  0  0
   33.9338   11.4768    5.4759 C   0  0  0  0  0  0  0  0  0  0  0  0
   34.9465   10.5355    5.1037 O   0  0  0  0  0  0  0  0  0  0  0  0
  1  2  1  0
  2  3  2  0
  2  4  2  0
  2  5  1  0
  5  6  1  0
  6  7  2  0
  7  8  1  0
  8  9  2  0
  9 10  1  0
 10 11  2  0
 11 12  1  0
 12 13  1  0
 11  6  1  0
A    1
 C1 
A    2
 S1 
A    3
 O1 
A    4
 O2 
A    5
 N1 
A    6
 C2 
A    7
 C3 
A    8
 C4 
A    9
 C5 
A   10
 C6 
A   11
 C7 
A   12
 C8 
A   13
 O3 
M  END
>  <ref_pdb>  (1360) 
Ax0310a

>  <ref_mols>  (1360) 
Ax0446a,Ax1080a,Ax0812a,Ax0719a,Ax1140a,Ax0528a,Ax0310a

>  <original SMILES>  (1360) 
CS(=O)(=O)Nc1ccccc1CO

>  <rationale>  (1360) 
info info set:sulfonimide_whole;hbond:S87+G127; 

>  <experiment>  (1360) 
sulfonimide_whole

>  <cluster_label>  (1360) 
3

>  <cluster_rank>  (1360) 
1017

>  <N_interactions>  (1360) 
2

>  <∆∆G>  (1360) 
-7.121576

>  <comRMSD>  (1360) 
0.384343

>  <ROCS_TanimotoCombo>  (1360) 
0.33

>  <ROCS_ShapeTanimoto>  (1360) 
0.188

>  <ROCS_ColorTanimoto>  (1360) 
0.142

$$$$
EN300_05794
     RDKit          3D

 15 16  0  0  0  0  0  0  0  0999 V2000
   35.0720   14.8086    7.7940 C   0  0  0  0  0  0  0  0  0  0  0  0
   35.7047   13.8183    6.9941 N   0  0  0  0  0  0  0  0  0  0  0  0
   35.1378   13.6263    5.4477 S   0  0  0  0  0  6  0  0  0  0  0  0
   36.2914   13.2126    4.6837 O   0  0  0  0  0  0  0  0  0  0  0  0
   34.3354   14.7790    5.1403 O   0  0  0  0  0  0  0  0  0  0  0  0
   34.0611   12.2567    5.8396 C   0  0  0  0  0  0  0  0  0  0  0  0
   34.5823   11.0077    5.5232 C   0  0  0  0  0  0  0  0  0  0  0  0
   33.9160    9.8018    5.7759 C   0  0  0  0  0  0  0  0  0  0  0  0
   32.5756    9.9386    6.4251 C   0  0  0  0  0  0  0  0  0  0  0  0
   32.0524   11.1579    6.7147 C   0  0  0  0  0  0  0  0  0  0  0  0
   32.8111   12.4285    6.4243 C   0  0  0  0  0  0  0  0  0  0  0  0
   30.8332   11.2655    7.2691 O   0  0  0  0  0  0  0  0  0  0  0  0
   30.4886   10.1674    8.1289 C   0  0  0  0  0  0  0  0  0  0  0  0
   31.1335    8.9434    7.9364 C   0  0  0  0  0  0  0  0  0  0  0  0
   31.8893    8.8210    6.7186 O   0  0  0  0  0  0  0  0  0  0  0  0
  1  2  1  0
  2  3  1  0
  3  4  2  0
  3  5  2  0
  3  6  1  0
  6  7  2  0
  7  8  1  0
  8  9  2  0
  9 10  1  0
 10 11  2  0
 10 12  1  0
 12 13  1  0
 13 14  1  0
 14 15  1  0
 11  6  1  0
 15  9  1  0
A    1
 C1 
A    2
 N1 
A    3
 S1 
A    4
 O1 
A    5
 O2 
A    6
 C2 
A    7
 C3 
A    8
 C4 
A    9
 C5 
A   10
 C6 
A   11
 C7 
A   12
 O3 
A   13
 C8 
A   14
 C9 
A   15
 O4 
M  END
>  <ref_pdb>  (1361) 
Ax0310a

>  <ref_mols>  (1361) 
Ax0446a,Ax1080a,Ax0812a,Ax0719a,Ax1140a,Ax0528a,Ax0310a

>  <original SMILES>  (1361) 
CNS(=O)(=O)c1ccc2c(c1)OCCO2

>  <rationale>  (1361) 
info info set:sulfonimide_whole;hbond:G127; 

>  <experiment>  (1361) 
sulfonimide_whole

>  <cluster_label>  (1361) 
3

>  <cluster_rank>  (1361) 
1018

>  <N_interactions>  (1361) 
2

>  <∆∆G>  (1361) 
-5.528686

>  <comRMSD>  (1361) 
0.834309

>  <ROCS_TanimotoCombo>  (1361) 
0.328

>  <ROCS_ShapeTanimoto>  (1361) 
0.178

>  <ROCS_ColorTanimoto>  (1361) 
0.15

$$$$
Z1838996171
     RDKit          3D

 20 22  0  0  0  0  0  0  0  0999 V2000
   28.7985   16.4126    8.7420 C   0  0  0  0  0  0  0  0  0  0  0  0
   28.8304   15.8587    7.4627 O   0  0  0  0  0  0  0  0  0  0  0  0
   28.5091   14.5795    7.5518 C   0  0  0  0  0  0  0  0  0  0  0  0
   29.4720   13.8597    8.3940 C   0  0  0  0  0  0  0  0  0  0  0  0
   30.2523   12.9886    7.4701 C   0  0  0  0  0  0  0  0  0  0  0  0
   30.6577   13.3993    6.3936 O   0  0  0  0  0  0  0  0  0  0  0  0
   30.4113   11.6582    8.0306 N   0  0  0  0  0  0  0  0  0  0  0  0
   31.2606   10.8063    7.4399 C   0  0  0  0  0  0  0  0  0  0  0  0
   31.3353    9.3103    7.7186 C   0  0  0  0  0  0  0  0  0  0  0  0
   32.3228    8.6171    6.9492 N   0  0  0  0  0  0  0  0  0  0  0  0
   33.1082    9.2553    6.0524 C   0  0  0  0  0  0  0  0  0  0  0  0
   34.0689    8.7087    5.2666 N   0  0  0  0  0  0  0  0  0  0  0  0
   34.7034    9.5780    4.4586 N   0  0  0  0  0  0  0  0  0  0  0  0
   34.1040   10.7390    4.7539 C   0  0  0  0  0  0  0  0  0  0  0  0
   34.4858   11.8843    4.1150 C   0  0  0  0  0  0  0  0  0  0  0  0
   33.1033   10.5770    5.7456 C   0  0  0  0  0  0  0  0  0  0  0  0
   32.1025   11.4248    6.4999 C   0  0  0  0  0  0  0  0  0  0  0  0
   28.1560   13.8033    6.2019 C   0  0  0  0  0  0  0  0  0  0  0  0
   26.9207   13.5579    6.9543 C   0  0  0  0  0  0  0  0  0  0  0  0
   27.1086   14.4077    8.1764 C   0  0  0  0  0  0  0  0  0  0  0  0
  1  2  1  0
  2  3  1  0
  3  4  1  0
  4  5  1  0
  5  6  2  0
  5  7  1  0
  7  8  1  0
  8  9  2  0
  9 10  1  0
 10 11  2  0
 11 12  1  0
 12 13  1  0
 13 14  2  0
 14 15  1  0
 14 16  1  0
 16 17  2  0
  3 18  1  0
 18 19  1  0
 19 20  1  0
 20  3  1  0
 17  8  1  0
 16 11  1  0
A    1
 C1 
A    2
 O1 
A    3
 C2 
A    4
 C3 
A    5
 C4 
A    6
 O2 
A    7
 N1 
A    8
 C5 
A    9
 C6 
A   10
 N2 
A   11
 C7 
A   12
 N3 
A   13
 N4 
A   14
 C8 
A   15
 C9 
A   16
 C10
A   17
 C11
A   18
 C12
A   19
 C13
A   20
 C14
M  END
>  <ref_pdb>  (1362) 
Ax0310a

>  <ref_mols>  (1362) 
Ax0446a,Ax1080a,Ax0812a,Ax0719a,Ax1140a,Ax0528a,Ax0310a

>  <original SMILES>  (1362) 
COC1(CC(=O)Nc2cnc3[nH]nc(C)c3c2)CCC1

>  <rationale>  (1362) 
info info set:screening_pocket;hbond:S105+Y90; hydroph_interaction:P107+Y89; 

>  <experiment>  (1362) 
screening_pocket

>  <cluster_label>  (1362) 
3

>  <cluster_rank>  (1362) 
1019

>  <N_interactions>  (1362) 
4

>  <∆∆G>  (1362) 
-6.436722

>  <comRMSD>  (1362) 
0.648174

>  <ROCS_TanimotoCombo>  (1362) 
0.624

>  <ROCS_ShapeTanimoto>  (1362) 
0.256

>  <ROCS_ColorTanimoto>  (1362) 
0.368

$$$$
EN300_110166
     RDKit          3D

 16 16  0  0  0  0  0  0  0  0999 V2000
   35.0147   14.6210    8.0217 N   0  0  0  0  0  0  0  0  0  0  0  0
   34.9913   13.5528    8.9322 C   0  0  0  0  0  0  0  0  0  0  0  0
   33.9440   12.9274    9.0327 O   0  0  0  0  0  0  0  0  0  0  0  0
   36.1703   13.2416    9.6828 C   0  0  0  0  0  0  0  0  0  0  0  0
   37.3108   13.9148    9.4021 C   0  0  0  0  0  0  0  0  0  0  0  0
   38.5798   13.6847   10.1149 C   0  0  0  0  0  0  0  0  0  0  0  0
   38.6254   12.7600   11.1140 C   0  0  0  0  0  0  0  0  0  0  0  0
   40.0828   12.4399   12.0107 S   0  0  0  0  0  6  0  0  0  0  0  0
   40.7434   11.2163   11.0568 N   0  0  0  0  0  0  0  0  0  0  0  0
   39.7150   11.8353   13.2750 O   0  0  0  0  0  0  0  0  0  0  0  0
   40.9624   13.5744   11.8648 O   0  0  0  0  0  0  0  0  0  0  0  0
   37.4592   12.1216   11.3390 C   0  0  0  0  0  0  0  0  0  0  0  0
   37.3127   11.1188   12.3931 N   0  0  0  0  0  4  0  0  0  0  0  0
   36.6832   11.5646   13.3551 O   0  0  0  0  0  0  0  0  0  0  0  0
   37.3261    9.9387   12.0636 O   0  0  0  0  0  1  0  0  0  0  0  0
   36.2990   12.2915   10.6925 C   0  0  0  0  0  0  0  0  0  0  0  0
  1  2  1  0
  2  3  2  0
  2  4  1  0
  4  5  2  0
  5  6  1  0
  6  7  2  0
  7  8  1  0
  8  9  1  0
  8 10  2  0
  8 11  2  0
  7 12  1  0
 12 13  1  0
 13 14  2  0
 13 15  1  0
 12 16  2  0
 16  4  1  0
M  CHG  2  13   1  15  -1
A    1
 N1 
A    2
 C1 
A    3
 O1 
A    4
 C2 
A    5
 C3 
A    6
 C4 
A    7
 C5 
A    8
 S1 
A    9
 N2 
A   10
 O2 
A   11
 O3 
A   12
 C6 
A   13
 N3 
A   14
 O4 
A   15
 O5 
A   16
 C7 
M  END
>  <ref_pdb>  (1363) 
Ax0310a

>  <ref_mols>  (1363) 
Ax0446a,Ax1080a,Ax0812a,Ax0719a,Ax1140a,Ax0528a,Ax0310a

>  <original SMILES>  (1363) 
NC(=O)c1ccc(S(N)(=O)=O)c([N+](=O)[O-])c1

>  <rationale>  (1363) 
info info set:sulfonimide_joint;hbond:G127+E85; hydroph_interaction:E85; 

>  <experiment>  (1363) 
sulfonimide_joint

>  <cluster_label>  (1363) 
3

>  <cluster_rank>  (1363) 
1020

>  <N_interactions>  (1363) 
4

>  <∆∆G>  (1363) 
-1.961298

>  <comRMSD>  (1363) 
0.419203

>  <ROCS_TanimotoCombo>  (1363) 
0.298

>  <ROCS_ShapeTanimoto>  (1363) 
0.185

>  <ROCS_ColorTanimoto>  (1363) 
0.113

$$$$
Z2066099892
     RDKit          3D

 14 15  0  0  0  0  0  0  0  0999 V2000
   29.9014    8.6354    8.5116 C   0  0  0  0  0  0  0  0  0  0  0  0
   31.2456    8.5359    8.0731 N   0  0  0  0  0  0  0  0  0  0  0  0
   31.8681    9.4313    7.2142 C   0  0  0  0  0  0  0  0  0  0  0  0
   32.8870    8.8288    6.3779 N   0  0  0  0  0  0  0  0  0  0  0  0
   33.6158    9.5603    5.4783 C   0  0  0  0  0  0  0  0  0  0  0  0
   33.3495   11.0262    5.3635 C   0  0  0  0  0  0  0  0  0  0  0  0
   32.3037   11.7441    6.1955 C   0  0  0  0  0  0  0  0  0  0  0  0
   31.5649   10.8183    7.1477 C   0  0  0  0  0  0  0  0  0  0  0  0
   30.5118   11.3913    8.0195 C   0  0  0  0  0  0  0  0  0  0  0  0
   30.0985   10.7197    8.8986 O   0  0  0  0  0  0  0  0  0  0  0  0
   30.0217   12.6609    7.7782 N   0  0  0  0  0  0  0  0  0  0  0  0
   29.4262   12.9988    6.5252 C   0  0  0  0  0  0  0  0  0  0  0  0
   28.2045   13.4037    7.1955 C   0  0  0  0  0  0  0  0  0  0  0  0
   28.7776   13.2827    8.4793 C   0  0  0  0  0  0  0  0  0  0  0  0
  1  2  1  0
  2  3  1  0
  3  4  2  0
  4  5  1  0
  5  6  2  0
  6  7  1  0
  7  8  2  0
  8  9  1  0
  9 10  2  0
  9 11  1  0
 11 12  1  0
 12 13  1  0
 13 14  1  0
  8  3  1  0
 14 11  1  0
A    1
 C1 
A    2
 N1 
A    3
 C2 
A    4
 N2 
A    5
 C3 
A    6
 C4 
A    7
 C5 
A    8
 C6 
A    9
 C7 
A   10
 O1 
A   11
 N3 
A   12
 C8 
A   13
 C9 
A   14
 C10
M  END
>  <ref_pdb>  (1364) 
Ax0310a

>  <ref_mols>  (1364) 
Ax0446a,Ax1080a,Ax0812a,Ax0719a,Ax1140a,Ax0528a,Ax0310a

>  <original SMILES>  (1364) 
CNc1ncccc1C(=O)N1CCC1

>  <rationale>  (1364) 
info info set:screening_pocket;hbond:S105; hydroph_interaction:P107; 

>  <experiment>  (1364) 
screening_pocket

>  <cluster_label>  (1364) 
3

>  <cluster_rank>  (1364) 
1021

>  <N_interactions>  (1364) 
2

>  <∆∆G>  (1364) 
-5.443119

>  <comRMSD>  (1364) 
0.56806

>  <ROCS_TanimotoCombo>  (1364) 
0.625

>  <ROCS_ShapeTanimoto>  (1364) 
0.243

>  <ROCS_ColorTanimoto>  (1364) 
0.382

$$$$
Z1258762864
     RDKit          3D

 11 12  0  0  0  0  0  0  0  0999 V2000
   30.5614   10.1578    8.1039 C   0  0  0  0  0  0  0  0  0  0  0  0
   30.4130   11.5588    7.4743 C   0  0  0  0  0  0  0  0  0  0  0  0
   31.0732   11.6404    6.1822 O   0  0  0  0  0  0  0  0  0  0  0  0
   32.3889   11.3312    6.2274 C   0  0  0  0  0  0  0  0  0  0  0  0
   33.0149   12.3006    7.2160 C   0  0  0  0  0  0  0  0  0  0  0  0
   33.7310   13.5612    6.5874 C   0  0  0  0  0  0  0  0  0  0  0  0
   34.4207   13.1931    5.4977 O   0  0  0  0  0  0  0  0  0  0  0  0
   33.6581   12.8830    4.6003 C   0  0  0  0  0  0  0  0  0  0  0  0
   33.1771   11.4636    4.8910 C   0  0  0  0  0  0  0  0  0  0  0  0
   32.4890    9.8246    6.5865 C   0  0  0  0  0  0  0  0  0  0  0  0
   31.7588    9.4033    7.7716 N   0  0  0  0  0  0  0  0  0  0  0  0
  1  2  1  0
  2  3  1  0
  3  4  1  0
  4  5  1  0
  5  6  1  0
  6  7  1  0
  7  8  1  0
  8  9  1  0
  4 10  1  0
 10 11  1  0
 11  1  1  0
  9  4  1  0
A    1
 C1 
A    2
 C2 
A    3
 O1 
A    4
 C3 
A    5
 C4 
A    6
 C5 
A    7
 O2 
A    8
 C6 
A    9
 C7 
A   10
 C8 
A   11
 N1 
M  END
>  <ref_pdb>  (1365) 
Ax0310a

>  <ref_mols>  (1365) 
Ax0446a,Ax1080a,Ax0812a,Ax0719a,Ax1140a,Ax0528a,Ax0310a

>  <original SMILES>  (1365) 
C1COC2(CCOCC2)CN1

>  <rationale>  (1365) 
info info set:3d;hbond:S105; hydroph_interaction:P107; 

>  <experiment>  (1365) 
3d

>  <cluster_label>  (1365) 
3

>  <cluster_rank>  (1365) 
1022

>  <N_interactions>  (1365) 
2

>  <∆∆G>  (1365) 
-0.061218

>  <comRMSD>  (1365) 
0.671848

>  <ROCS_TanimotoCombo>  (1365) 
0.292

>  <ROCS_ShapeTanimoto>  (1365) 
0.178

>  <ROCS_ColorTanimoto>  (1365) 
0.115

$$$$
EN300_396107
     RDKit          3D

 10 10  0  0  0  0  0  0  0  0999 V2000
   34.3255    8.8807    5.1826 N   0  0  0  0  0  0  0  0  0  0  0  0
   33.2610    9.5997    5.8820 C   0  0  0  0  0  0  0  0  0  0  0  0
   33.1651   10.9214    5.6051 N   0  0  0  0  0  0  0  0  0  0  0  0
   32.1802   11.5419    6.2645 C   0  0  0  0  0  0  0  0  0  0  0  0
   31.2713   10.7565    7.2356 C   0  0  0  0  0  0  0  0  0  0  0  0
   30.3250   11.9098    7.7023 C   0  0  0  0  0  0  0  0  0  0  0  0
   30.5518   12.6008    8.6741 O   0  0  0  0  0  0  0  0  0  0  0  0
   31.4788    9.4433    7.4206 C   0  0  0  0  0  0  0  0  0  0  0  0
   30.6946    8.6699    8.2788 N   0  0  0  0  0  0  0  0  0  0  0  0
   32.4844    8.8698    6.7346 N   0  0  0  0  0  0  0  0  0  0  0  0
  1  2  1  0
  2  3  2  0
  3  4  1  0
  4  5  2  0
  5  6  1  0
  6  7  1  0
  5  8  1  0
  8  9  1  0
  8 10  2  0
 10  2  1  0
A    1
 N1 
A    2
 C1 
A    3
 N2 
A    4
 C2 
A    5
 C3 
A    6
 C4 
A    7
 O1 
A    8
 C5 
A    9
 N3 
A   10
 N4 
M  END
>  <ref_pdb>  (1366) 
Ax0310a

>  <ref_mols>  (1366) 
Ax0446a,Ax1080a,Ax0812a,Ax0719a,Ax1140a,Ax0528a,Ax0310a

>  <original SMILES>  (1366) 
Nc1ncc(CO)c(N)n1

>  <rationale>  (1366) 
info info set:bb_densepocket2;hbond:S105; 

>  <experiment>  (1366) 
bb_densepocket2

>  <cluster_label>  (1366) 
3

>  <cluster_rank>  (1366) 
1023

>  <N_interactions>  (1366) 
2

>  <∆∆G>  (1366) 
-3.717294

>  <comRMSD>  (1366) 
0.49136

>  <ROCS_TanimotoCombo>  (1366) 
0.613

>  <ROCS_ShapeTanimoto>  (1366) 
0.214

>  <ROCS_ColorTanimoto>  (1366) 
0.399

$$$$
EN300_26863033
     RDKit          3D

 17 17  0  0  0  0  0  0  0  0999 V2000
   35.0693   14.8888    6.7193 C   0  0  0  0  0  0  0  0  0  0  0  0
   34.5727   14.7976    8.0707 N   0  0  0  0  0  0  0  0  0  0  0  0
   33.3677   13.6990    8.4322 S   0  0  0  0  0  6  0  0  0  0  0  0
   34.1012   12.7431    9.1620 O   0  0  0  0  0  0  0  0  0  0  0  0
   32.2727   14.4259    9.0365 O   0  0  0  0  0  0  0  0  0  0  0  0
   32.8927   13.0528    6.8545 C   0  0  1  0  0  0  0  0  0  0  0  0
   33.8441   12.3598    6.1006 C   0  0  0  0  0  0  0  0  0  0  0  0
   33.5949   11.0116    5.8890 C   0  0  0  0  0  0  0  0  0  0  0  0
   32.5518   10.7525    6.8562 N   0  0  0  0  0  0  0  0  0  0  0  0
   31.9954    9.5090    7.0210 C   0  0  0  0  0  0  0  0  0  0  0  0
   32.5699    8.4560    7.0470 O   0  0  0  0  0  0  0  0  0  0  0  0
   30.6931    9.5853    7.1009 O   0  0  0  0  0  0  0  0  0  0  0  0
   29.7820    9.5284    8.2233 C   0  0  0  0  0  0  0  0  0  0  0  0
   28.9898   10.6615    8.4191 C   0  0  0  0  0  0  0  0  0  0  0  0
   28.9831    8.3023    8.3798 C   0  0  0  0  0  0  0  0  0  0  0  0
   30.6038    9.2397    9.2862 C   0  0  0  0  0  0  0  0  0  0  0  0
   31.8196   11.9971    7.0389 C   0  0  0  0  0  0  0  0  0  0  0  0
  1  2  1  0
  2  3  1  0
  3  4  2  0
  3  5  2  0
  6  3  1  1
  6  7  1  0
  7  8  1  0
  8  9  1  0
  9 10  1  0
 10 11  2  0
 10 12  1  0
 12 13  1  0
 13 14  1  0
 13 15  1  0
 13 16  1  0
  9 17  1  0
 17  6  1  0
A    1
 C1 
A    2
 N1 
A    3
 S1 
A    4
 O1 
A    5
 O2 
A    6
 C2 
A    7
 C3 
A    8
 C4 
A    9
 N2 
A   10
 C5 
A   11
 O3 
A   12
 O4 
A   13
 C6 
A   14
 C7 
A   15
 C8 
A   16
 C9 
A   17
 C10
M  END
>  <ref_pdb>  (1367) 
Ax0310a

>  <ref_mols>  (1367) 
Ax0446a,Ax1080a,Ax0812a,Ax0719a,Ax1140a,Ax0528a,Ax0310a

>  <original SMILES>  (1367) 
CNS(=O)(=O)[C@H]1CCN(C(=O)OC(C)(C)C)C1

>  <rationale>  (1367) 
info info set:sulfonimide_whole;hbond:S87+G127; 

>  <experiment>  (1367) 
sulfonimide_whole

>  <cluster_label>  (1367) 
3

>  <cluster_rank>  (1367) 
1024

>  <N_interactions>  (1367) 
3

>  <∆∆G>  (1367) 
-4.366667

>  <comRMSD>  (1367) 
0.761414

>  <ROCS_TanimotoCombo>  (1367) 
0.327

>  <ROCS_ShapeTanimoto>  (1367) 
0.201

>  <ROCS_ColorTanimoto>  (1367) 
0.127

$$$$
Z785179350
     RDKit          3D

 18 19  0  0  0  0  0  0  0  0999 V2000
   36.0863    7.1126    4.6291 C   0  0  0  0  0  0  0  0  0  0  0  0
   35.0106    8.1074    4.0595 C   0  0  0  0  0  0  0  0  0  0  0  0
   34.8511    9.3174    4.8974 N   0  0  0  0  0  0  0  0  0  0  0  0
   33.7065    9.7030    5.6812 C   0  0  0  0  0  0  0  0  0  0  0  0
   32.9084    8.8689    6.4097 N   0  0  0  0  0  0  0  0  0  0  0  0
   31.8703    9.3772    7.1678 C   0  0  0  0  0  0  0  0  0  0  0  0
   31.5397   10.7379    7.2635 C   0  0  0  0  0  0  0  0  0  0  0  0
   30.4924   11.1601    8.0691 C   0  0  0  0  0  0  0  0  0  0  0  0
   30.2024   10.3839    8.9529 O   0  0  0  0  0  0  0  0  0  0  0  0
   29.8547   12.3882    7.8021 N   0  0  0  0  0  0  0  0  0  0  0  0
   29.2817   12.3447    6.5068 C   0  0  0  0  0  0  0  0  0  0  0  0
   28.8643   13.6418    5.9112 C   0  0  0  0  0  0  0  0  0  0  0  0
   27.8721   14.0397    6.7438 C   0  0  0  0  0  0  0  0  0  0  0  0
   28.4298   14.4678    8.0939 C   0  0  0  0  0  0  0  0  0  0  0  0
   29.1367   13.2670    8.7507 C   0  0  0  0  0  0  0  0  0  0  0  0
   32.3020   11.6061    6.5305 C   0  0  0  0  0  0  0  0  0  0  0  0
   33.4455   11.0720    5.6914 C   0  0  0  0  0  0  0  0  0  0  0  0
   34.4067   12.1745    4.7819 Cl  0  0  0  0  0  0  0  0  0  0  0  0
  1  2  1  0
  2  3  1  0
  3  4  1  0
  4  5  2  0
  5  6  1  0
  6  7  2  0
  7  8  1  0
  8  9  2  0
  8 10  1  0
 10 11  1  0
 11 12  1  0
 12 13  1  0
 13 14  1  0
 14 15  1  0
  7 16  1  0
 16 17  2  0
 17 18  1  0
 17  4  1  0
 15 10  1  0
A    1
 C1 
A    2
 C2 
A    3
 N1 
A    4
 C3 
A    5
 N2 
A    6
 C4 
A    7
 C5 
A    8
 C6 
A    9
 O1 
A   10
 N3 
A   11
 C7 
A   12
 C8 
A   13
 C9 
A   14
 C10
A   15
 C11
A   16
 C12
A   17
 C13
A   18
CL1 
M  END
>  <ref_pdb>  (1368) 
Ax0310a

>  <ref_mols>  (1368) 
Ax0446a,Ax1080a,Ax0812a,Ax0719a,Ax1140a,Ax0528a,Ax0310a

>  <original SMILES>  (1368) 
CCNc1ncc(C(=O)N2CCCCC2)cc1Cl

>  <rationale>  (1368) 
info info set:screening_pocket;hbond:G127; hydroph_interaction:P107+Y89; 

>  <experiment>  (1368) 
screening_pocket

>  <cluster_label>  (1368) 
3

>  <cluster_rank>  (1368) 
1025

>  <N_interactions>  (1368) 
3

>  <∆∆G>  (1368) 
-2.983524

>  <comRMSD>  (1368) 
0.918665

>  <ROCS_TanimotoCombo>  (1368) 
0.628

>  <ROCS_ShapeTanimoto>  (1368) 
0.248

>  <ROCS_ColorTanimoto>  (1368) 
0.38

$$$$
EN300_129445
     RDKit          3D

 11 11  0  0  0  0  0  0  0  0999 V2000
   29.7394    8.4430   10.2808 C   0  0  0  0  0  0  0  0  0  0  0  0
   30.5156    8.3624    9.1392 C   0  0  0  0  0  0  0  0  0  0  0  0
   29.5955    7.4775    8.5513 C   0  0  0  0  0  0  0  0  0  0  0  0
   30.4795    9.6054    8.5412 O   0  0  0  0  0  0  0  0  0  0  0  0
   31.3897    9.8686    7.5962 C   0  0  0  0  0  0  0  0  0  0  0  0
   32.1493    8.9450    7.0028 N   0  0  0  0  0  0  0  0  0  0  0  0
   32.9860    9.4467    6.0643 C   0  0  0  0  0  0  0  0  0  0  0  0
   33.1106   10.9418    5.6676 C   0  0  0  0  0  0  0  0  0  0  0  0
   32.2807   11.8363    6.3538 C   0  0  0  0  0  0  0  0  0  0  0  0
   31.4134   11.3742    7.3122 C   0  0  0  0  0  0  0  0  0  0  0  0
   30.5896   12.2436    7.9911 O   0  0  0  0  0  0  0  0  0  0  0  0
  1  2  1  0
  2  3  1  0
  2  4  1  0
  4  5  1  0
  5  6  2  0
  6  7  1  0
  7  8  2  0
  8  9  1  0
  9 10  2  0
 10 11  1  0
 10  5  1  0
A    1
 C1 
A    2
 C2 
A    3
 C3 
A    4
 O1 
A    5
 C4 
A    6
 N1 
A    7
 C5 
A    8
 C6 
A    9
 C7 
A   10
 C8 
A   11
 O2 
M  END
>  <ref_pdb>  (1369) 
Ax0310a

>  <ref_mols>  (1369) 
Ax0446a,Ax1080a,Ax0812a,Ax0719a,Ax1140a,Ax0528a,Ax0310a

>  <original SMILES>  (1369) 
CC(C)Oc1ncccc1O

>  <rationale>  (1369) 
info info set:bb_densepocket2;hbond:S125; hydroph_interaction:P107+D109; 

>  <experiment>  (1369) 
bb_densepocket2

>  <cluster_label>  (1369) 
3

>  <cluster_rank>  (1369) 
1026

>  <N_interactions>  (1369) 
3

>  <∆∆G>  (1369) 
-3.021124

>  <comRMSD>  (1369) 
0.654696

>  <ROCS_TanimotoCombo>  (1369) 
0.612

>  <ROCS_ShapeTanimoto>  (1369) 
0.201

>  <ROCS_ColorTanimoto>  (1369) 
0.411

$$$$
EN300_39667203
     RDKit          3D

 16 17  0  0  0  0  0  0  0  0999 V2000
   28.7859   13.5339    9.2747 N   0  0  0  0  0  0  0  0  0  0  0  0
   30.0936   13.6609    8.2395 S   0  0  0  0  0  6  0  0  0  0  0  0
   29.4489   14.1350    7.0375 O   0  0  0  0  0  0  0  0  0  0  0  0
   31.1075   14.4338    8.9285 O   0  0  0  0  0  0  0  0  0  0  0  0
   30.7519   12.0478    7.8708 C   0  0  0  0  0  0  0  0  0  0  0  0
   30.2639   10.8953    8.4434 C   0  0  0  0  0  0  0  0  0  0  0  0
   30.7926    9.6613    8.1526 C   0  0  0  0  0  0  0  0  0  0  0  0
   31.8225    9.5291    7.2624 C   0  0  0  0  0  0  0  0  0  0  0  0
   32.3316   10.6831    6.6548 C   0  0  0  0  0  0  0  0  0  0  0  0
   33.3691   10.6474    5.7223 N   0  0  0  0  0  0  0  0  0  0  0  0
   33.9073    9.4723    5.2507 C   0  0  0  0  0  0  0  0  0  0  0  0
   35.2710    9.9161    4.8459 C   0  0  0  0  0  0  0  0  0  0  0  0
   35.3322   10.8011    3.7736 O   0  0  0  0  0  0  0  0  0  0  0  0
   34.8745   12.0205    4.3034 C   0  0  0  0  0  0  0  0  0  0  0  0
   33.4615   11.8276    4.8394 C   0  0  0  0  0  0  0  0  0  0  0  0
   31.7874   11.9319    6.9764 C   0  0  0  0  0  0  0  0  0  0  0  0
  1  2  1  0
  2  3  2  0
  2  4  2  0
  2  5  1  0
  5  6  2  0
  6  7  1  0
  7  8  2  0
  8  9  1  0
  9 10  1  0
 10 11  1  0
 11 12  1  0
 12 13  1  0
 13 14  1  0
 14 15  1  0
  9 16  2  0
 16  5  1  0
 15 10  1  0
A    1
 N1 
A    2
 S1 
A    3
 O1 
A    4
 O2 
A    5
 C1 
A    6
 C2 
A    7
 C3 
A    8
 C4 
A    9
 C5 
A   10
 N2 
A   11
 C6 
A   12
 C7 
A   13
 O3 
A   14
 C8 
A   15
 C9 
A   16
 C10
M  END
>  <ref_pdb>  (1370) 
Ax0310a

>  <ref_mols>  (1370) 
Ax0446a,Ax1080a,Ax0812a,Ax0719a,Ax1140a,Ax0528a,Ax0310a

>  <original SMILES>  (1370) 
NS(=O)(=O)c1cccc(N2CCOCC2)c1

>  <rationale>  (1370) 
info info set:sulfonimide_whole;hbond:S87+S125; 

>  <experiment>  (1370) 
sulfonimide_whole

>  <cluster_label>  (1370) 
3

>  <cluster_rank>  (1370) 
1027

>  <N_interactions>  (1370) 
2

>  <∆∆G>  (1370) 
-4.051215

>  <comRMSD>  (1370) 
0.881413

>  <ROCS_TanimotoCombo>  (1370) 
0.33

>  <ROCS_ShapeTanimoto>  (1370) 
0.197

>  <ROCS_ColorTanimoto>  (1370) 
0.134

$$$$
EN300_1611850
     RDKit          3D

 15 15  0  0  0  0  0  0  0  0999 V2000
   33.5789    8.8438    5.9762 C   0  0  0  0  0  0  0  0  0  0  0  0
   32.6327    8.4529    6.6855 O   0  0  0  0  0  0  0  0  0  0  0  0
   32.0836    9.5957    6.9963 C   0  0  0  0  0  0  0  0  0  0  0  0
   31.0532    9.6319    7.9166 C   0  0  0  0  0  0  0  0  0  0  0  0
   30.4493   10.9200    8.2562 C   0  0  0  0  0  0  0  0  0  0  0  0
   30.9266   12.0793    7.6487 C   0  0  0  0  0  0  0  0  0  0  0  0
   30.2163   13.6378    8.0417 S   0  0  0  0  0  6  0  0  0  0  0  0
   28.9104   13.3369    9.0377 N   0  0  0  0  0  0  0  0  0  0  0  0
   31.1779   14.3830    8.8393 O   0  0  0  0  0  0  0  0  0  0  0  0
   29.5612   14.1012    6.8448 O   0  0  0  0  0  0  0  0  0  0  0  0
   31.9775   11.9164    6.7309 C   0  0  0  0  0  0  0  0  0  0  0  0
   32.5092   13.1640    6.0589 C   0  0  0  0  0  0  0  0  0  0  0  0
   33.3325   13.8779    6.8634 F   0  0  0  0  0  0  0  0  0  0  0  0
   33.2637   12.8475    4.9740 F   0  0  0  0  0  0  0  0  0  0  0  0
   32.5328   10.7249    6.4174 C   0  0  0  0  0  0  0  0  0  0  0  0
  1  2  1  0
  2  3  1  0
  3  4  2  0
  4  5  1  0
  5  6  2  0
  6  7  1  0
  7  8  1  0
  7  9  2  0
  7 10  2  0
  6 11  1  0
 11 12  1  0
 12 13  1  0
 12 14  1  0
 11 15  2  0
 15  3  1  0
A    1
 C1 
A    2
 O1 
A    3
 C2 
A    4
 C3 
A    5
 C4 
A    6
 C5 
A    7
 S1 
A    8
 N1 
A    9
 O2 
A   10
 O3 
A   11
 C6 
A   12
 C7 
A   13
 F1 
A   14
 F2 
A   15
 C8 
M  END
>  <ref_pdb>  (1371) 
Ax0310a

>  <ref_mols>  (1371) 
Ax0446a,Ax1080a,Ax0812a,Ax0719a,Ax1140a,Ax0528a,Ax0310a

>  <original SMILES>  (1371) 
COc1ccc(S(N)(=O)=O)c(C(F)F)c1

>  <rationale>  (1371) 
info info set:sulfonimide_whole;hbond:S87+S125; 

>  <experiment>  (1371) 
sulfonimide_whole

>  <cluster_label>  (1371) 
3

>  <cluster_rank>  (1371) 
1028

>  <N_interactions>  (1371) 
2

>  <∆∆G>  (1371) 
-4.495808

>  <comRMSD>  (1371) 
0.499648

>  <ROCS_TanimotoCombo>  (1371) 
0.334

>  <ROCS_ShapeTanimoto>  (1371) 
0.202

>  <ROCS_ColorTanimoto>  (1371) 
0.132

$$$$
EN300_170018
     RDKit          3D

 17 17  0  0  0  0  0  0  0  0999 V2000
   29.2072   14.4873    9.3674 C   0  0  0  0  0  0  0  0  0  0  0  0
   30.0484   13.3676    8.9844 N   0  0  0  0  0  0  0  0  0  0  0  0
   29.7106   12.6490    7.5099 S   0  0  0  0  0  6  0  0  0  0  0  0
   29.9124   13.6641    6.5184 O   0  0  0  0  0  0  0  0  0  0  0  0
   28.4403   11.9988    7.5574 O   0  0  0  0  0  0  0  0  0  0  0  0
   30.9394   11.4333    7.2244 C   0  0  0  0  0  0  0  0  0  0  0  0
   30.7948    9.9737    7.6936 C   0  0  0  0  0  0  0  0  0  0  0  0
   31.7696    9.0387    7.3724 C   0  0  0  0  0  0  0  0  0  0  0  0
   32.9262    9.5430    6.5888 C   0  0  0  0  0  0  0  0  0  0  0  0
   33.8878    8.7112    6.2250 F   0  0  0  0  0  0  0  0  0  0  0  0
   33.0847   10.9755    6.1809 C   0  0  0  0  0  0  0  0  0  0  0  0
   34.3342   11.3937    5.4281 C   0  0  0  0  0  0  0  0  0  0  0  0
   35.1018   10.6115    4.8913 O   0  0  0  0  0  0  0  0  0  0  0  0
   34.4397   12.7471    5.4793 O   0  0  0  0  0  0  0  0  0  0  0  0
   35.7048   13.2277    5.9525 C   0  0  0  0  0  0  0  0  0  0  0  0
   32.0791   11.8617    6.5078 C   0  0  0  0  0  0  0  0  0  0  0  0
   32.1879   13.1381    6.1318 F   0  0  0  0  0  0  0  0  0  0  0  0
  1  2  1  0
  2  3  1  0
  3  4  2  0
  3  5  2  0
  3  6  1  0
  6  7  2  0
  7  8  1  0
  8  9  2  0
  9 10  1  0
  9 11  1  0
 11 12  1  0
 12 13  2  0
 12 14  1  0
 14 15  1  0
 11 16  2  0
 16 17  1  0
 16  6  1  0
A    1
 C1 
A    2
 N1 
A    3
 S1 
A    4
 O1 
A    5
 O2 
A    6
 C2 
A    7
 C3 
A    8
 C4 
A    9
 C5 
A   10
 F1 
A   11
 C6 
A   12
 C7 
A   13
 O3 
A   14
 O4 
A   15
 C8 
A   16
 C9 
A   17
 F2 
M  END
>  <ref_pdb>  (1372) 
Ax0310a

>  <ref_mols>  (1372) 
Ax0446a,Ax1080a,Ax0812a,Ax0719a,Ax1140a,Ax0528a,Ax0310a

>  <original SMILES>  (1372) 
CNS(=O)(=O)c1ccc(F)c(C(=O)OC)c1F

>  <rationale>  (1372) 
info info set:sulfonimide_whole;hbond:S87+S125; 

>  <experiment>  (1372) 
sulfonimide_whole

>  <cluster_label>  (1372) 
3

>  <cluster_rank>  (1372) 
1029

>  <N_interactions>  (1372) 
2

>  <∆∆G>  (1372) 
-5.439827

>  <comRMSD>  (1372) 
0.616183

>  <ROCS_TanimotoCombo>  (1372) 
0.333

>  <ROCS_ShapeTanimoto>  (1372) 
0.223

>  <ROCS_ColorTanimoto>  (1372) 
0.109

$$$$
EN300_29797
     RDKit          3D

 14 14  0  0  0  0  0  0  0  0999 V2000
   34.2574   12.7503    5.6121 C   0  0  0  0  0  0  0  0  0  0  0  0
   32.9272   12.8818    6.0961 O   0  0  0  0  0  0  0  0  0  0  0  0
   32.3797   11.7383    6.6101 C   0  0  0  0  0  0  0  0  0  0  0  0
   32.7246   10.4275    6.2527 C   0  0  0  0  0  0  0  0  0  0  0  0
   32.0820    9.3452    6.8581 C   0  0  0  0  0  0  0  0  0  0  0  0
   31.0894    9.5469    7.8128 C   0  0  0  0  0  0  0  0  0  0  0  0
   30.4357    8.4631    8.4134 N   0  0  0  0  0  0  0  0  0  0  0  0
   30.7516   10.8614    8.1643 C   0  0  0  0  0  0  0  0  0  0  0  0
   31.3950   11.9650    7.5742 C   0  0  0  0  0  0  0  0  0  0  0  0
   31.0823   13.3649    7.9342 N   0  0  0  0  0  0  0  0  0  0  0  0
   31.9144   13.9412    9.3211 S   0  0  0  0  0  6  0  0  0  0  0  0
   31.8483   15.6639    9.7551 C   0  0  0  0  0  0  0  0  0  0  0  0
   30.9267   13.6651   10.2954 O   0  0  0  0  0  0  0  0  0  0  0  0
   33.2698   13.4014    9.3627 O   0  0  0  0  0  0  0  0  0  0  0  0
  1  2  1  0
  2  3  1  0
  3  4  2  0
  4  5  1  0
  5  6  2  0
  6  7  1  0
  6  8  1  0
  8  9  2  0
  9 10  1  0
 10 11  1  0
 11 12  1  0
 11 13  2  0
 11 14  2  0
  9  3  1  0
A    1
 C1 
A    2
 O1 
A    3
 C2 
A    4
 C3 
A    5
 C4 
A    6
 C5 
A    7
 N1 
A    8
 C6 
A    9
 C7 
A   10
 N2 
A   11
 S1 
A   12
 C8 
A   13
 O2 
A   14
 O3 
M  END
>  <ref_pdb>  (1373) 
Ax0310a

>  <ref_mols>  (1373) 
Ax0446a,Ax1080a,Ax0812a,Ax0719a,Ax1140a,Ax0528a,Ax0310a

>  <original SMILES>  (1373) 
COc1ccc(N)cc1NS(C)(=O)=O

>  <rationale>  (1373) 
info info set:sulfonimide_whole;hbond:S87+S105+G127; 

>  <experiment>  (1373) 
sulfonimide_whole

>  <cluster_label>  (1373) 
3

>  <cluster_rank>  (1373) 
1030

>  <N_interactions>  (1373) 
4

>  <∆∆G>  (1373) 
-5.736723

>  <comRMSD>  (1373) 
0.629321

>  <ROCS_TanimotoCombo>  (1373) 
0.297

>  <ROCS_ShapeTanimoto>  (1373) 
0.168

>  <ROCS_ColorTanimoto>  (1373) 
0.129

$$$$
EN300_137121
     RDKit          3D

 15 16  0  0  0  0  0  0  0  0999 V2000
   33.3710   13.5229    6.7873 C   0  0  0  0  0  0  0  0  0  0  0  0
   33.0690   12.2883    6.1072 N   0  0  0  0  0  0  0  0  0  0  0  0
   34.2913   11.8962    5.3723 C   0  0  0  0  0  0  0  0  0  0  0  0
   34.4336   10.4347    5.0822 C   0  0  0  0  0  0  0  0  0  0  0  0
   33.6579    9.5547    5.7942 C   0  0  0  0  0  0  0  0  0  0  0  0
   32.5825    9.9837    6.7127 C   0  0  0  0  0  0  0  0  0  0  0  0
   31.8861    9.0254    7.4091 C   0  0  0  0  0  0  0  0  0  0  0  0
   30.7481    9.3265    8.3450 C   0  0  0  0  0  0  0  0  0  0  0  0
   30.3833   10.6285    8.4983 C   0  0  0  0  0  0  0  0  0  0  0  0
   31.1164   11.7424    7.7701 C   0  0  0  0  0  0  0  0  0  0  0  0
   30.5235   13.3881    8.0526 S   0  0  0  0  0  6  0  0  0  0  0  0
   29.1429   13.3417    8.9602 N   0  0  0  0  0  0  0  0  0  0  0  0
   29.9979   13.7750    6.7713 O   0  0  0  0  0  0  0  0  0  0  0  0
   31.4630   14.1835    8.8160 O   0  0  0  0  0  0  0  0  0  0  0  0
   32.2903   11.3552    6.8388 C   0  0  0  0  0  0  0  0  0  0  0  0
  1  2  1  0
  2  3  1  0
  3  4  1  0
  4  5  1  0
  5  6  1  0
  6  7  2  0
  7  8  1  0
  8  9  2  0
  9 10  1  0
 10 11  1  0
 11 12  1  0
 11 13  2  0
 11 14  2  0
 10 15  2  0
 15  2  1  0
 15  6  1  0
A    1
 C1 
A    2
 N1 
A    3
 C2 
A    4
 C3 
A    5
 C4 
A    6
 C5 
A    7
 C6 
A    8
 C7 
A    9
 C8 
A   10
 C9 
A   11
 S1 
A   12
 N2 
A   13
 O1 
A   14
 O2 
A   15
 C10
M  END
>  <ref_pdb>  (1374) 
Ax0310a

>  <ref_mols>  (1374) 
Ax0446a,Ax1080a,Ax0812a,Ax0719a,Ax1140a,Ax0528a,Ax0310a

>  <original SMILES>  (1374) 
CN1CCCc2cccc(S(N)(=O)=O)c21

>  <rationale>  (1374) 
info info set:sulfonimide_whole;hbond:S87+S125; 

>  <experiment>  (1374) 
sulfonimide_whole

>  <cluster_label>  (1374) 
3

>  <cluster_rank>  (1374) 
1031

>  <N_interactions>  (1374) 
2

>  <∆∆G>  (1374) 
-6.017709

>  <comRMSD>  (1374) 
0.971826

>  <ROCS_TanimotoCombo>  (1374) 
0.328

>  <ROCS_ShapeTanimoto>  (1374) 
0.176

>  <ROCS_ColorTanimoto>  (1374) 
0.152

$$$$
Z240530268
     RDKit          3D

 18 19  0  0  0  0  0  0  0  0999 V2000
   30.0769   12.3958    6.5714 C   0  0  0  0  0  0  0  0  0  0  0  0
   29.5604   11.6259    7.6783 N   0  0  0  0  0  0  0  0  0  0  0  0
   28.1466   11.7255    7.8918 C   0  0  0  0  0  0  0  0  0  0  0  0
   28.0776   13.1472    7.8897 C   0  0  0  0  0  0  0  0  0  0  0  0
   28.3411   14.0357    6.8259 C   0  0  0  0  0  0  0  0  0  0  0  0
   28.2089   15.2810    7.2002 N   0  0  0  0  0  0  0  0  0  0  0  0
   27.8574   15.1318    8.4757 N   0  0  0  0  0  0  0  0  0  0  0  0
   27.6035   16.1632    9.3105 C   0  0  0  0  0  0  0  0  0  0  0  0
   27.7705   13.9096    8.9234 C   0  0  0  0  0  0  0  0  0  0  0  0
   30.3783   10.6629    8.1644 C   0  0  0  0  0  0  0  0  0  0  0  0
   30.2255   10.0401    9.1846 O   0  0  0  0  0  0  0  0  0  0  0  0
   31.5039   10.3321    7.3506 C   0  0  0  0  0  0  0  0  0  0  0  0
   32.3138   11.2762    6.7115 C   0  0  0  0  0  0  0  0  0  0  0  0
   33.3658   10.8188    5.9240 C   0  0  0  0  0  0  0  0  0  0  0  0
   33.5250    9.4524    5.8404 C   0  0  0  0  0  0  0  0  0  0  0  0
   34.4952    8.8387    5.1095 O   0  0  0  0  0  0  0  0  0  0  0  0
   32.7480    8.5864    6.4681 N   0  0  0  0  0  0  0  0  0  0  0  0
   31.7587    9.0310    7.2068 C   0  0  0  0  0  0  0  0  0  0  0  0
  1  2  1  0
  2  3  1  0
  3  4  1  0
  4  5  1  0
  5  6  2  0
  6  7  1  0
  7  8  1  0
  7  9  1  0
  2 10  1  0
 10 11  2  0
 10 12  1  0
 12 13  2  0
 13 14  1  0
 14 15  2  0
 15 16  1  0
 15 17  1  0
 17 18  2  0
  9  4  2  0
 18 12  1  0
A    1
 C1 
A    2
 N1 
A    3
 C2 
A    4
 C3 
A    5
 C4 
A    6
 N2 
A    7
 N3 
A    8
 C5 
A    9
 C6 
A   10
 C7 
A   11
 O1 
A   12
 C8 
A   13
 C9 
A   14
 C10
A   15
 C11
A   16
 O2 
A   17
 N4 
A   18
 C12
M  END
>  <ref_pdb>  (1375) 
Ax0310a

>  <ref_mols>  (1375) 
Ax0446a,Ax1080a,Ax0812a,Ax0719a,Ax1140a,Ax0528a,Ax0310a

>  <original SMILES>  (1375) 
CN(Cc1cnn(C)c1)C(=O)c1ccc(O)nc1

>  <rationale>  (1375) 
info info set:screening_pocket;

>  <experiment>  (1375) 
screening_pocket

>  <cluster_label>  (1375) 
3

>  <cluster_rank>  (1375) 
1032

>  <N_interactions>  (1375) 
0

>  <∆∆G>  (1375) 
-4.360106

>  <comRMSD>  (1375) 
0.736945

>  <ROCS_TanimotoCombo>  (1375) 
0.649

>  <ROCS_ShapeTanimoto>  (1375) 
0.23

>  <ROCS_ColorTanimoto>  (1375) 
0.419

$$$$
Z240616422
     RDKit          3D

 25 27  0  0  0  0  0  0  0  0999 V2000
   28.9406   16.7598    8.4651 C   0  0  0  0  0  0  0  0  0  0  0  0
   29.5592   15.5752    8.1672 O   0  0  0  0  0  0  0  0  0  0  0  0
   30.4551   15.0807    9.0276 C   0  0  0  0  0  0  0  0  0  0  0  0
   31.5021   15.4549    9.5258 O   0  0  0  0  0  0  0  0  0  0  0  0
   29.7644   13.9169    9.2150 C   0  0  0  0  0  0  0  0  0  0  0  0
   30.5571   12.7621    8.9247 N   0  0  0  0  0  0  0  0  0  0  0  0
   30.7171   12.3171    7.6264 C   0  0  0  0  0  0  0  0  0  0  0  0
   29.9770   12.9590    6.5854 O   0  0  0  0  0  0  0  0  0  0  0  0
   31.6683   11.1900    7.1383 C   0  0  0  0  0  0  0  0  0  0  0  0
   31.4045    9.7776    7.5356 C   0  0  0  0  0  0  0  0  0  0  0  0
   30.2678    9.3621    8.4474 C   0  0  0  0  0  0  0  0  0  0  0  0
   32.2866    8.9228    6.9983 O   0  0  0  0  0  0  0  0  0  0  0  0
   33.1523    9.7172    6.2620 C   0  0  0  0  0  0  0  0  0  0  0  0
   34.1756    9.1892    5.5670 N   0  0  0  0  0  0  0  0  0  0  0  0
   35.0173   10.1853    4.9644 C   0  0  0  0  0  0  0  0  0  0  0  0
   34.7867   11.6317    5.1202 N   0  0  0  0  0  0  0  0  0  0  0  0
   35.9264   12.5255    5.1927 C   0  0  0  0  0  0  0  0  0  0  0  0
   33.5954   12.0715    5.6989 C   0  0  0  0  0  0  0  0  0  0  0  0
   33.2447   13.2540    5.6728 O   0  0  0  0  0  0  0  0  0  0  0  0
   32.8233   11.0909    6.3460 C   0  0  0  0  0  0  0  0  0  0  0  0
   28.5453   14.1041    8.3504 C   0  0  0  0  0  0  0  0  0  0  0  0
   27.7953   13.0108    8.8749 C   0  0  0  0  0  0  0  0  0  0  0  0
   27.2978   13.4523   10.2479 C   0  0  0  0  0  0  0  0  0  0  0  0
   28.1405   13.9289   11.1203 C   0  0  0  0  0  0  0  0  0  0  0  0
   29.5118   14.2734   10.6576 C   0  0  0  0  0  0  0  0  0  0  0  0
  1  2  1  0
  2  3  1  0
  3  4  2  0
  3  5  1  0
  5  6  1  0
  6  7  1  0
  7  8  2  0
  7  9  1  0
  9 10  2  0
 10 11  1  0
 10 12  1  0
 12 13  1  0
 13 14  1  0
 14 15  2  0
 15 16  1  0
 16 17  1  0
 16 18  1  0
 18 19  2  0
 18 20  1  0
  5 21  1  0
 21 22  1  0
 22 23  1  0
 23 24  1  0
 24 25  1  0
 25  5  1  0
 20  9  1  0
 20 13  2  0
A    1
 C1 
A    2
 O1 
A    3
 C2 
A    4
 O2 
A    5
 C3 
A    6
 N1 
A    7
 C4 
A    8
 O3 
A    9
 C5 
A   10
 C6 
A   11
 C7 
A   12
 O4 
A   13
 C8 
A   14
 N2 
A   15
 C9 
A   16
 N3 
A   17
 C10
A   18
 C11
A   19
 O5 
A   20
 C12
A   21
 C13
A   22
 C14
A   23
 C15
A   24
 C16
A   25
 C17
M  END
>  <ref_pdb>  (1376) 
Ax0310a

>  <ref_mols>  (1376) 
Ax0446a,Ax1080a,Ax0812a,Ax0719a,Ax1140a,Ax0528a,Ax0310a

>  <original SMILES>  (1376) 
COC(=O)C1(NC(=O)c2c(C)oc3ncn(C)c(=O)c23)CCCCC1

>  <rationale>  (1376) 
info info set:screening_whole;hbond:S87+S125; hydroph_interaction:Y90; 

>  <experiment>  (1376) 
screening_whole

>  <cluster_label>  (1376) 
3

>  <cluster_rank>  (1376) 
1033

>  <N_interactions>  (1376) 
4

>  <∆∆G>  (1376) 
-0.498795

>  <comRMSD>  (1376) 
0.658599

>  <ROCS_TanimotoCombo>  (1376) 
0.46

>  <ROCS_ShapeTanimoto>  (1376) 
0.261

>  <ROCS_ColorTanimoto>  (1376) 
0.198

$$$$
EN300_1941383
     RDKit          3D

 15 15  0  0  0  0  0  0  0  0999 V2000
   29.0851    8.3556    8.3586 C   0  0  0  0  0  0  0  0  0  0  0  0
   30.3220    9.1632    8.3119 C   0  0  0  0  0  0  0  0  0  0  0  0
   30.9702    8.2399    9.2487 C   0  0  0  0  0  0  0  0  0  0  0  0
   29.8452   10.4866    8.7714 C   0  0  0  0  0  0  0  0  0  0  0  0
   30.5590   11.6318    8.7108 O   0  0  0  0  0  0  0  0  0  0  0  0
   31.2492    9.6233    7.3863 C   0  0  0  0  0  0  0  0  0  0  0  0
   31.1614   11.0743    6.8924 C   0  0  0  0  0  0  0  0  0  0  0  0
   32.2337   11.4460    5.8703 C   0  0  0  0  0  0  0  0  0  0  0  0
   33.2218   10.3771    5.4775 C   0  0  0  0  0  0  0  0  0  0  0  0
   34.2391   10.8303    4.4193 C   0  0  0  0  0  0  0  0  0  0  0  0
   34.3481    9.9292    3.4005 F   0  0  0  0  0  0  0  0  0  0  0  0
   33.8802   11.9988    3.8233 F   0  0  0  0  0  0  0  0  0  0  0  0
   35.4987   11.0205    4.8874 F   0  0  0  0  0  0  0  0  0  0  0  0
   33.1373    9.1465    6.0543 C   0  0  0  0  0  0  0  0  0  0  0  0
   32.2096    8.7549    6.9705 N   0  0  0  0  0  0  0  0  0  0  0  0
  1  2  1  0
  2  3  1  0
  2  4  1  0
  4  5  2  0
  2  6  1  0
  6  7  2  0
  7  8  1  0
  8  9  2  0
  9 10  1  0
 10 11  1  0
 10 12  1  0
 10 13  1  0
  9 14  1  0
 14 15  2  0
 15  6  1  0
A    1
 C1 
A    2
 C2 
A    3
 C3 
A    4
 C4 
A    5
 O1 
A    6
 C5 
A    7
 C6 
A    8
 C7 
A    9
 C8 
A   10
 C9 
A   11
 F1 
A   12
 F2 
A   13
 F3 
A   14
 C10
A   15
 N1 
M  END
>  <ref_pdb>  (1377) 
Ax0310a

>  <ref_mols>  (1377) 
Ax0446a,Ax1080a,Ax0812a,Ax0719a,Ax1140a,Ax0528a,Ax0310a

>  <original SMILES>  (1377) 
CC(C)(C=O)c1ccc(C(F)(F)F)cn1

>  <rationale>  (1377) 
info info set:bb_densepocket2;hbond:S125+G127; hydroph_interaction:P107; 

>  <experiment>  (1377) 
bb_densepocket2

>  <cluster_label>  (1377) 
3

>  <cluster_rank>  (1377) 
1034

>  <N_interactions>  (1377) 
3

>  <∆∆G>  (1377) 
-2.551853

>  <comRMSD>  (1377) 
0.522912

>  <ROCS_TanimotoCombo>  (1377) 
0.611

>  <ROCS_ShapeTanimoto>  (1377) 
0.226

>  <ROCS_ColorTanimoto>  (1377) 
0.385

$$$$
Z1611165371
     RDKit          3D

 20 22  0  0  0  0  0  0  0  0999 V2000
   36.1267   10.7698    3.7250 C   0  0  0  0  0  0  0  0  0  0  0  0
   34.9149   10.7953    4.6043 C   0  0  0  0  0  0  0  0  0  0  0  0
   34.3235   12.0130    4.9302 C   0  0  0  0  0  0  0  0  0  0  0  0
   33.1892   12.1040    5.7474 C   0  0  0  0  0  0  0  0  0  0  0  0
   32.6349   13.3213    6.0468 C   0  0  0  0  0  0  0  0  0  0  0  0
   32.6559   10.9361    6.2335 C   0  0  0  0  0  0  0  0  0  0  0  0
   31.5614   10.7968    7.0327 O   0  0  0  0  0  0  0  0  0  0  0  0
   31.4858    9.4555    7.1991 C   0  0  0  0  0  0  0  0  0  0  0  0
   30.4790    8.9968    7.9311 N   0  0  0  0  0  0  0  0  0  0  0  0
   29.7434    9.9094    8.7733 C   0  0  0  0  0  0  0  0  0  0  0  0
   29.1068   11.2055    8.2198 C   0  0  0  0  0  0  0  0  0  0  0  0
   29.5668   12.5014    8.1736 C   0  0  0  0  0  0  0  0  0  0  0  0
   28.5360   13.4056    7.5462 C   0  0  0  0  0  0  0  0  0  0  0  0
   28.5685   14.7441    7.3265 C   0  0  0  0  0  0  0  0  0  0  0  0
   28.6154   15.8444    7.1689 N   0  0  0  0  0  0  0  0  0  0  0  0
   27.4340   12.8176    7.1586 C   0  0  0  0  0  0  0  0  0  0  0  0
   27.5545   11.2390    7.5287 S   0  0  0  0  0  0  0  0  0  0  0  0
   32.4130    8.7674    6.6053 N   0  0  0  0  0  0  0  0  0  0  0  0
   33.1594    9.7008    5.9778 C   0  0  0  0  0  0  0  0  0  0  0  0
   34.3863    9.5941    5.0929 C   0  0  0  0  0  0  0  0  0  0  0  0
  1  2  1  0
  2  3  2  0
  3  4  1  0
  4  5  1  0
  4  6  2  0
  6  7  1  0
  7  8  1  0
  8  9  1  0
  9 10  1  0
 10 11  1  0
 11 12  2  0
 12 13  1  0
 13 14  1  0
 14 15  3  0
 13 16  2  0
 16 17  1  0
  8 18  2  0
 18 19  1  0
 19 20  2  0
 20  2  1  0
 19  6  1  0
 17 11  1  0
A    1
 C1 
A    2
 C2 
A    3
 C3 
A    4
 C4 
A    5
 C5 
A    6
 C6 
A    7
 O1 
A    8
 C7 
A    9
 N1 
A   10
 C8 
A   11
 C9 
A   12
 C10
A   13
 C11
A   14
 C12
A   15
 N2 
A   16
 C13
A   17
 S1 
A   18
 N3 
A   19
 C14
A   20
 C15
M  END
>  <ref_pdb>  (1378) 
Ax0310a

>  <ref_mols>  (1378) 
Ax0446a,Ax1080a,Ax0812a,Ax0719a,Ax1140a,Ax0528a,Ax0310a

>  <original SMILES>  (1378) 
Cc1cc(C)c2oc(NCc3cc(C#N)cs3)nc2c1

>  <rationale>  (1378) 
info info set:screening_pocket;hbond:S105; hydroph_interaction:Y90; 

>  <experiment>  (1378) 
screening_pocket

>  <cluster_label>  (1378) 
3

>  <cluster_rank>  (1378) 
1035

>  <N_interactions>  (1378) 
2

>  <∆∆G>  (1378) 
-1.639229

>  <comRMSD>  (1378) 
0.564722

>  <ROCS_TanimotoCombo>  (1378) 
0.637

>  <ROCS_ShapeTanimoto>  (1378) 
0.284

>  <ROCS_ColorTanimoto>  (1378) 
0.354

$$$$
Z1821325250
     RDKit          3D

 12 13  0  0  0  0  0  0  0  0999 V2000
   29.6559   14.0834    9.3775 N   0  0  0  0  0  0  0  0  0  0  0  0
   31.1068   14.1555    9.2503 C   0  0  0  0  0  0  0  0  0  0  0  0
   31.7193   15.2455    9.7096 N   0  0  0  0  0  0  0  0  0  0  0  0
   33.0598   15.2564    9.5878 C   0  0  0  0  0  0  0  0  0  0  0  0
   33.8310   14.1234    8.9641 C   0  0  0  0  0  0  0  0  0  0  0  0
   33.2782   12.9960    8.4813 N   0  0  0  0  0  0  0  0  0  0  0  0
   31.8885   13.0096    8.6250 C   0  0  0  0  0  0  0  0  0  0  0  0
   31.0953   11.9383    8.2535 O   0  0  0  0  0  0  0  0  0  0  0  0
   31.2897   11.1821    7.1732 C   0  0  0  0  0  0  0  0  0  0  0  0
   31.5438    9.6890    7.3546 C   0  0  0  0  0  0  0  0  0  0  0  0
   32.6678    9.6628    6.3729 C   0  0  0  0  0  0  0  0  0  0  0  0
   32.6990   11.2001    6.4117 C   0  0  0  0  0  0  0  0  0  0  0  0
  1  2  1  0
  2  3  2  0
  3  4  1  0
  4  5  2  0
  5  6  1  0
  6  7  2  0
  7  8  1  0
  8  9  1  0
  9 10  1  0
 10 11  1  0
 11 12  1  0
  7  2  1  0
 12  9  1  0
A    1
 N1 
A    2
 C1 
A    3
 N2 
A    4
 C2 
A    5
 C3 
A    6
 N3 
A    7
 C4 
A    8
 O1 
A    9
 C5 
A   10
 C6 
A   11
 C7 
A   12
 C8 
M  END
>  <ref_pdb>  (1379) 
Ax0310a

>  <ref_mols>  (1379) 
Ax0446a,Ax1080a,Ax0812a,Ax0719a,Ax1140a,Ax0528a,Ax0310a

>  <original SMILES>  (1379) 
Nc1nccnc1OC1CCC1

>  <rationale>  (1379) 
info info set:3d;hbond:S87+G127; 

>  <experiment>  (1379) 
3d

>  <cluster_label>  (1379) 
3

>  <cluster_rank>  (1379) 
1036

>  <N_interactions>  (1379) 
2

>  <∆∆G>  (1379) 
-1.952416

>  <comRMSD>  (1379) 
0.700875

>  <ROCS_TanimotoCombo>  (1379) 
0.302

>  <ROCS_ShapeTanimoto>  (1379) 
0.155

>  <ROCS_ColorTanimoto>  (1379) 
0.147

$$$$
EN300_26627313
     RDKit          3D

 19 19  0  0  0  0  0  0  0  0999 V2000
   30.4588   12.8833    6.9323 C   0  0  0  0  0  0  0  0  0  0  0  0
   31.4771   11.9198    6.3963 C   0  0  0  0  0  0  0  0  0  0  0  0
   31.6948   10.5501    6.9236 C   0  0  0  0  0  0  0  0  0  0  0  0
   30.6058   10.7721    7.9686 C   0  0  0  0  0  0  0  0  0  0  0  0
   29.5623   11.3594    7.9203 O   0  0  0  0  0  0  0  0  0  0  0  0
   31.1783   10.1143    8.9809 O   0  0  0  0  0  0  0  0  0  0  0  0
   30.2328    9.1588    9.2417 C   0  0  0  0  0  0  0  0  0  0  0  0
   28.8512    9.4018    9.4075 C   0  0  0  0  0  0  0  0  0  0  0  0
   30.1095    8.4920    7.9976 C   0  0  0  0  0  0  0  0  0  0  0  0
   30.8086    7.8322    9.2094 C   0  0  0  0  0  0  0  0  0  0  0  0
   32.5328    9.4834    6.6178 C   0  0  0  0  0  0  0  0  0  0  0  0
   33.4938    9.7044    5.4781 C   0  0  0  0  0  0  0  0  0  0  0  0
   34.4053    8.7549    5.0245 N   0  0  0  0  0  0  0  0  0  0  0  0
   33.4382   10.9300    4.8551 C   0  0  0  0  0  0  0  0  0  0  0  0
   32.5384   11.9500    5.2387 C   0  0  0  0  0  0  0  0  0  0  0  0
   32.5956   13.4272    4.2884 S   0  0  0  0  0  6  0  0  0  0  0  0
   33.2563   13.1342    3.0414 O   0  0  0  0  0  0  0  0  0  0  0  0
   33.0141   14.4615    5.1744 O   0  0  0  0  0  0  0  0  0  0  0  0
   31.0807   13.7670    3.9211 F   0  0  0  0  0  0  0  0  0  0  0  0
  1  2  1  0
  2  3  2  0
  3  4  1  0
  4  5  2  0
  4  6  1  0
  6  7  1  0
  7  8  1  0
  7  9  1  0
  7 10  1  0
  3 11  1  0
 11 12  2  0
 12 13  1  0
 12 14  1  0
 14 15  2  0
 15 16  1  0
 16 17  2  0
 16 18  2  0
 16 19  1  0
 15  2  1  0
A    1
 C1 
A    2
 C2 
A    3
 C3 
A    4
 C4 
A    5
 O1 
A    6
 O2 
A    7
 C5 
A    8
 C6 
A    9
 C7 
A   10
 C8 
A   11
 C9 
A   12
 C10
A   13
 N1 
A   14
 C11
A   15
 C12
A   16
 S1 
A   17
 O3 
A   18
 O4 
A   19
 F1 
M  END
>  <ref_pdb>  (1380) 
Ax0310a

>  <ref_mols>  (1380) 
Ax0446a,Ax1080a,Ax0812a,Ax0719a,Ax1140a,Ax0528a,Ax0310a

>  <original SMILES>  (1380) 
Cc1c(C(=O)OC(C)(C)C)cc(N)cc1S(=O)(=O)F

>  <rationale>  (1380) 
info info set:bb_densepocket2;hbond:S105; 

>  <experiment>  (1380) 
bb_densepocket2

>  <cluster_label>  (1380) 
3

>  <cluster_rank>  (1380) 
1037

>  <N_interactions>  (1380) 
1

>  <∆∆G>  (1380) 
-3.066093

>  <comRMSD>  (1380) 
0.983356

>  <ROCS_TanimotoCombo>  (1380) 
0.617

>  <ROCS_ShapeTanimoto>  (1380) 
0.232

>  <ROCS_ColorTanimoto>  (1380) 
0.384

$$$$
EN300_210219
     RDKit          3D

 16 16  0  0  0  0  0  0  0  0999 V2000
   33.0110   13.6166    7.3056 C   0  0  0  0  0  0  0  0  0  0  0  0
   31.9589   13.3725    6.7106 O   0  0  0  0  0  0  0  0  0  0  0  0
   31.7758   12.0825    6.9826 C   0  0  0  0  0  0  0  0  0  0  0  0
   30.6544   11.7327    7.9149 C   0  0  0  0  0  0  0  0  0  0  0  0
   30.0062   13.0660    8.2061 C   0  0  0  0  0  0  0  0  0  0  0  0
   30.2853   13.6384    9.3937 N   0  0  0  0  0  0  0  0  0  0  0  0
   29.2184   13.5634    7.4119 O   0  0  0  0  0  0  0  0  0  0  0  0
   30.3742   10.5035    8.3334 C   0  0  0  0  0  0  0  0  0  0  0  0
   31.1707    9.3323    7.8567 C   0  0  0  0  0  0  0  0  0  0  0  0
   30.6364    7.9009    8.5220 Cl  0  0  0  0  0  0  0  0  0  0  0  0
   32.3310    9.5939    6.8620 C   0  0  0  0  0  0  0  0  0  0  0  0
   32.5869   11.0649    6.4654 C   0  0  0  0  0  0  0  0  0  0  0  0
   33.9521   11.4208    5.3502 S   0  0  0  0  0  6  0  0  0  0  0  0
   33.2915   11.4323    3.8102 N   0  0  0  0  0  0  0  0  0  0  0  0
   34.3821   12.7890    5.5468 O   0  0  0  0  0  0  0  0  0  0  0  0
   34.8669   10.3116    5.3245 O   0  0  0  0  0  0  0  0  0  0  0  0
  1  2  1  0
  2  3  1  0
  3  4  2  0
  4  5  1  0
  5  6  1  0
  5  7  2  0
  4  8  1  0
  8  9  2  0
  9 10  1  0
  9 11  1  0
 11 12  2  0
 12 13  1  0
 13 14  1  0
 13 15  2  0
 13 16  2  0
 12  3  1  0
A    1
 C1 
A    2
 O1 
A    3
 C2 
A    4
 C3 
A    5
 C4 
A    6
 N1 
A    7
 O2 
A    8
 C5 
A    9
 C6 
A   10
CL1 
A   11
 C7 
A   12
 C8 
A   13
 S1 
A   14
 N2 
A   15
 O3 
A   16
 O4 
M  END
>  <ref_pdb>  (1381) 
Ax0310a

>  <ref_mols>  (1381) 
Ax0446a,Ax1080a,Ax0812a,Ax0719a,Ax1140a,Ax0528a,Ax0310a

>  <original SMILES>  (1381) 
COc1c(C(N)=O)cc(Cl)cc1S(N)(=O)=O

>  <rationale>  (1381) 
info info set:sulfonimide_whole;hbond:S87; 

>  <experiment>  (1381) 
sulfonimide_whole

>  <cluster_label>  (1381) 
3

>  <cluster_rank>  (1381) 
1038

>  <N_interactions>  (1381) 
2

>  <∆∆G>  (1381) 
-4.488825

>  <comRMSD>  (1381) 
0.640375

>  <ROCS_TanimotoCombo>  (1381) 
0.334

>  <ROCS_ShapeTanimoto>  (1381) 
0.218

>  <ROCS_ColorTanimoto>  (1381) 
0.116

$$$$
EN300_1850299
     RDKit          3D

 16 17  0  0  0  0  0  0  0  0999 V2000
   27.9647   15.4660    8.8252 C   0  0  0  0  0  0  0  0  0  0  0  0
   27.9345   14.9067    7.5279 O   0  0  0  0  0  0  0  0  0  0  0  0
   28.8591   13.9478    7.3401 C   0  0  0  0  0  0  0  0  0  0  0  0
   29.6289   13.9317    6.0278 C   0  0  0  0  0  0  0  0  0  0  0  0
   30.6913   12.9567    5.7059 C   0  0  0  0  0  0  0  0  0  0  0  0
   30.8664   11.9409    6.8568 C   0  0  0  0  0  0  0  0  0  0  0  0
   31.9398   10.9287    6.3791 C   0  0  0  0  0  0  0  0  0  0  0  0
   33.0810   10.9658    5.4317 C   0  0  0  0  0  0  0  0  0  0  0  0
   33.5609    9.5159    5.5587 C   0  0  0  0  0  0  0  0  0  0  0  0
   34.5702    8.9363    4.9095 N   0  0  0  0  0  0  0  0  0  0  0  0
   32.8069    8.8582    6.4347 N   0  0  0  0  0  0  0  0  0  0  0  0
   31.8384    9.6994    6.9180 O   0  0  0  0  0  0  0  0  0  0  0  0
   30.1665   11.9734    8.0116 C   0  0  0  0  0  0  0  0  0  0  0  0
   30.4839   10.9511    8.9643 O   0  0  0  0  0  0  0  0  0  0  0  0
   30.5280    9.5933    8.5820 C   0  0  0  0  0  0  0  0  0  0  0  0
   29.1766   12.9554    8.2788 C   0  0  0  0  0  0  0  0  0  0  0  0
  1  2  1  0
  2  3  1  0
  3  4  2  0
  4  5  1  0
  5  6  2  0
  6  7  1  0
  7  8  2  0
  8  9  1  0
  9 10  1  0
  9 11  2  0
 11 12  1  0
  6 13  1  0
 13 14  1  0
 14 15  1  0
 13 16  2  0
 16  3  1  0
 12  7  1  0
A    1
 C1 
A    2
 O1 
A    3
 C2 
A    4
 C3 
A    5
 C4 
A    6
 C5 
A    7
 C6 
A    8
 C7 
A    9
 C8 
A   10
 N1 
A   11
 N2 
A   12
 O2 
A   13
 C9 
A   14
 O3 
A   15
 C10
A   16
 C11
M  END
>  <ref_pdb>  (1382) 
Ax0310a

>  <ref_mols>  (1382) 
Ax0446a,Ax1080a,Ax0812a,Ax0719a,Ax1140a,Ax0528a,Ax0310a

>  <original SMILES>  (1382) 
COc1ccc(-c2cc(N)no2)c(OC)c1

>  <rationale>  (1382) 
info info set:bb_densepocket2;hbond:S105; hydroph_interaction:P107; 

>  <experiment>  (1382) 
bb_densepocket2

>  <cluster_label>  (1382) 
3

>  <cluster_rank>  (1382) 
1039

>  <N_interactions>  (1382) 
2

>  <∆∆G>  (1382) 
-4.288026

>  <comRMSD>  (1382) 
0.862532

>  <ROCS_TanimotoCombo>  (1382) 
0.616

>  <ROCS_ShapeTanimoto>  (1382) 
0.217

>  <ROCS_ColorTanimoto>  (1382) 
0.399

$$$$
EN300_648591
     RDKit          3D

 14 14  0  0  0  0  0  0  0  0999 V2000
   29.4665    8.1734    8.4986 C   0  0  0  0  0  0  0  0  0  0  0  0
   30.6616    8.8817    8.9965 C   0  0  0  0  0  0  0  0  0  0  0  0
   30.8779   10.2091    8.3247 C   0  0  0  0  0  0  0  0  0  0  0  0
   30.1557   11.1726    8.5106 O   0  0  0  0  0  0  0  0  0  0  0  0
   31.9573   10.2885    7.5027 N   0  0  0  0  0  0  0  0  0  0  0  0
   32.4343    9.2000    6.7086 C   0  0  0  0  0  0  0  0  0  0  0  0
   33.5444    9.7993    5.8607 C   0  0  1  0  0  0  0  0  0  0  0  0
   34.1300    8.9597    4.8174 N   0  0  0  0  0  0  0  0  0  0  0  0
   32.7044   10.9582    5.4585 C   0  0  2  0  0  0  0  0  0  0  0  0
   33.3732   11.8814    4.4746 C   0  0  0  0  0  0  0  0  0  0  0  0
   34.3637   12.5812    5.0578 F   0  0  0  0  0  0  0  0  0  0  0  0
   33.9089   11.1861    3.4459 F   0  0  0  0  0  0  0  0  0  0  0  0
   32.5079   12.7758    3.9573 F   0  0  0  0  0  0  0  0  0  0  0  0
   32.3469   11.5094    6.8245 C   0  0  0  0  0  0  0  0  0  0  0  0
  1  2  1  0
  2  3  1  0
  3  4  2  0
  3  5  1  0
  5  6  1  0
  6  7  1  0
  7  8  1  6
  7  9  1  0
  9 10  1  6
 10 11  1  0
 10 12  1  0
 10 13  1  0
  9 14  1  0
 14  5  1  0
A    1
 C1 
A    2
 C2 
A    3
 C3 
A    4
 O1 
A    5
 N1 
A    6
 C4 
A    7
 C5 
A    8
 N2 
A    9
 C6 
A   10
 C7 
A   11
 F1 
A   12
 F2 
A   13
 F3 
A   14
 C8 
M  END
>  <ref_pdb>  (1383) 
Ax0310a

>  <ref_mols>  (1383) 
Ax0446a,Ax1080a,Ax0812a,Ax0719a,Ax1140a,Ax0528a,Ax0310a

>  <original SMILES>  (1383) 
CCC(=O)N1C[C@@H](N)[C@H](C(F)(F)F)C1

>  <rationale>  (1383) 
info info set:bb_densepocket2;hbond:S105; hydroph_interaction:P107+V124; 

>  <experiment>  (1383) 
bb_densepocket2

>  <cluster_label>  (1383) 
3

>  <cluster_rank>  (1383) 
1040

>  <N_interactions>  (1383) 
3

>  <∆∆G>  (1383) 
-1.040491

>  <comRMSD>  (1383) 
0.58824

>  <ROCS_TanimotoCombo>  (1383) 
0.61

>  <ROCS_ShapeTanimoto>  (1383) 
0.213

>  <ROCS_ColorTanimoto>  (1383) 
0.397

$$$$
Z1939443817
     RDKit          3D

 13 15  0  0  0  0  0  0  0  0999 V2000
   29.3585   13.1223    9.2378 O   0  0  0  0  0  0  0  0  0  0  0  0
   30.2255   12.5899    8.5535 C   0  0  0  0  0  0  0  0  0  0  0  0
   31.1449   13.4901    7.8981 C   0  0  0  0  0  0  0  0  0  0  0  0
   32.1540   13.0343    7.0799 C   0  0  0  0  0  0  0  0  0  0  0  0
   32.3252   11.6867    6.8712 C   0  0  0  0  0  0  0  0  0  0  0  0
   31.4616   10.8074    7.5345 C   0  0  0  0  0  0  0  0  0  0  0  0
   30.4080   11.2242    8.3637 C   0  0  0  0  0  0  0  0  0  0  0  0
   31.8244    9.4143    7.2442 C   0  0  0  0  0  0  0  0  0  0  0  0
   33.0055    9.5442    6.4955 O   0  0  0  0  0  0  0  0  0  0  0  0
   33.3108   10.8275    6.0255 C   0  0  0  0  0  0  0  0  0  0  0  0
   34.5660   11.3803    5.7863 C   0  0  0  0  0  0  0  0  0  0  0  0
   34.4933   11.5606    4.5180 C   0  0  0  0  0  0  0  0  0  0  0  0
   33.3415   10.8844    4.4038 C   0  0  0  0  0  0  0  0  0  0  0  0
  1  2  1  0
  2  3  2  0
  3  4  1  0
  4  5  2  0
  5  6  1  0
  6  7  2  0
  6  8  1  0
  8  9  1  0
  9 10  1  0
 10 11  1  0
 11 12  1  0
 12 13  1  0
  7  2  1  0
 13 10  1  0
 10  5  1  0
A    1
 O1 
A    2
 C1 
A    3
 C2 
A    4
 C3 
A    5
 C4 
A    6
 C5 
A    7
 C6 
A    8
 C7 
A    9
 O2 
A   10
 C8 
A   11
 C9 
A   12
 C10
A   13
 C11
M  END
>  <ref_pdb>  (1384) 
Ax0310a

>  <ref_mols>  (1384) 
Ax0446a,Ax1080a,Ax0812a,Ax0719a,Ax1140a,Ax0528a,Ax0310a

>  <original SMILES>  (1384) 
Oc1ccc2c(c1)COC21CCC1

>  <rationale>  (1384) 
info info set:3d;hydroph_interaction:P107; 

>  <experiment>  (1384) 
3d

>  <cluster_label>  (1384) 
3

>  <cluster_rank>  (1384) 
1041

>  <N_interactions>  (1384) 
1

>  <∆∆G>  (1384) 
-0.442938

>  <comRMSD>  (1384) 
0.871159

>  <ROCS_TanimotoCombo>  (1384) 
0.304

>  <ROCS_ShapeTanimoto>  (1384) 
0.188

>  <ROCS_ColorTanimoto>  (1384) 
0.115

$$$$
Z2960004252
     RDKit          3D

 17 18  0  0  0  0  0  0  0  0999 V2000
   29.6569   14.2072    9.6181 C   0  0  0  0  0  0  0  0  0  0  0  0
   29.0056   13.2854    8.5816 C   0  0  1  0  0  0  0  0  0  0  0  0
   28.0902   14.0661    7.6538 C   0  0  0  0  0  0  0  0  0  0  0  0
   27.4560   13.2122    6.7996 F   0  0  0  0  0  0  0  0  0  0  0  0
   30.0280   12.5620    7.8211 N   0  0  0  0  0  0  0  0  0  0  0  0
   30.4469   11.3120    8.0609 C   0  0  0  0  0  0  0  0  0  0  0  0
   30.0414   10.5518    8.8952 O   0  0  0  0  0  0  0  0  0  0  0  0
   31.5947   10.7857    7.1794 C   0  0  0  0  0  0  0  0  0  0  0  0
   32.3693   11.8293    6.4384 C   0  0  0  0  0  0  0  0  0  0  0  0
   33.5173   11.3095    5.5852 C   0  0  0  0  0  0  0  0  0  0  0  0
   33.7055    9.8091    5.6083 C   0  0  0  0  0  0  0  0  0  0  0  0
   34.9293    9.5074    4.7425 C   0  0  0  0  0  0  0  0  0  0  0  0
   34.7412    9.3399    3.4014 C   0  0  0  0  0  0  0  0  0  0  0  0
   35.0767    8.0697    3.9116 C   0  0  0  0  0  0  0  0  0  0  0  0
   32.9252    8.9398    6.3121 N   0  0  0  0  0  0  0  0  0  0  0  0
   31.9193    9.4527    7.0630 C   0  0  0  0  0  0  0  0  0  0  0  0
   31.2180    8.4985    7.7433 O   0  0  0  0  0  0  0  0  0  0  0  0
  2  1  1  1
  2  3  1  0
  3  4  1  0
  2  5  1  0
  5  6  1  0
  6  7  2  0
  6  8  1  0
  8  9  2  0
  9 10  1  0
 10 11  2  0
 11 12  1  0
 12 13  1  0
 13 14  1  0
 11 15  1  0
 15 16  2  0
 16 17  1  0
 16  8  1  0
 14 12  1  0
A    1
 C1 
A    2
 C2 
A    3
 C3 
A    4
 F1 
A    5
 N1 
A    6
 C4 
A    7
 O1 
A    8
 C5 
A    9
 C6 
A   10
 C7 
A   11
 C8 
A   12
 C9 
A   13
 C10
A   14
 C11
A   15
 N2 
A   16
 C12
A   17
 O2 
M  END
>  <ref_pdb>  (1385) 
Ax0310a

>  <ref_mols>  (1385) 
Ax0446a,Ax1080a,Ax0812a,Ax0719a,Ax1140a,Ax0528a,Ax0310a

>  <original SMILES>  (1385) 
C[C@@H](CF)NC(=O)c1ccc(C2CC2)nc1O

>  <rationale>  (1385) 
info info set:screening_pocket;

>  <experiment>  (1385) 
screening_pocket

>  <cluster_label>  (1385) 
3

>  <cluster_rank>  (1385) 
1042

>  <N_interactions>  (1385) 
0

>  <∆∆G>  (1385) 
-3.586088

>  <comRMSD>  (1385) 
0.800433

>  <ROCS_TanimotoCombo>  (1385) 
0.651

>  <ROCS_ShapeTanimoto>  (1385) 
0.257

>  <ROCS_ColorTanimoto>  (1385) 
0.394

$$$$
Z79409640
     RDKit          3D

 18 19  0  0  0  0  0  0  0  0999 V2000
   33.8750    9.8100    5.4167 C   0  0  0  0  0  0  0  0  0  0  0  0
   32.7142   10.0320    6.3296 C   0  0  0  0  0  0  0  0  0  0  0  0
   32.2489    8.9603    7.0319 N   0  0  0  0  0  0  0  0  0  0  0  0
   31.2092    9.4513    7.7689 O   0  0  0  0  0  0  0  0  0  0  0  0
   31.0662   10.7762    7.5100 C   0  0  0  0  0  0  0  0  0  0  0  0
   30.0643   11.3937    8.1822 C   0  0  0  0  0  0  0  0  0  0  0  0
   31.9826   11.2133    6.6052 C   0  0  0  0  0  0  0  0  0  0  0  0
   32.1192   12.5067    6.1086 C   0  0  0  0  0  0  0  0  0  0  0  0
   33.3114   13.2349    6.4376 C   0  0  0  0  0  0  0  0  0  0  0  0
   34.2299   13.3227    5.6290 O   0  0  0  0  0  0  0  0  0  0  0  0
   33.3862   13.8654    7.7115 N   0  0  0  0  0  0  0  0  0  0  0  0
   32.3161   13.6514    8.5089 C   0  0  0  0  0  0  0  0  0  0  0  0
   34.5314   14.2743    8.2696 C   0  0  0  0  0  0  0  0  0  0  0  0
   34.6254   13.6009    9.5594 C   0  0  0  0  0  0  0  0  0  0  0  0
   35.9650   13.1037   10.1980 C   0  0  0  0  0  0  0  0  0  0  0  0
   37.2092   13.2330    9.4012 C   0  0  0  0  0  0  0  0  0  0  0  0
   36.9707   14.0362    8.1793 C   0  0  0  0  0  0  0  0  0  0  0  0
   35.7015   13.9497    7.3708 C   0  0  0  0  0  0  0  0  0  0  0  0
  1  2  1  0
  2  3  2  0
  3  4  1  0
  4  5  1  0
  5  6  1  0
  5  7  2  0
  7  8  1  0
  8  9  1  0
  9 10  2  0
  9 11  1  0
 11 12  1  0
 11 13  1  0
 13 14  1  0
 14 15  1  0
 15 16  1  0
 16 17  1  0
 17 18  1  0
  7  2  1  0
 18 13  1  0
A    1
 C1 
A    2
 C2 
A    3
 N1 
A    4
 O1 
A    5
 C3 
A    6
 C4 
A    7
 C5 
A    8
 C6 
A    9
 C7 
A   10
 O2 
A   11
 N2 
A   12
 C8 
A   13
 C9 
A   14
 C10
A   15
 C11
A   16
 C12
A   17
 C13
A   18
 C14
M  END
>  <ref_pdb>  (1386) 
Ax0310a

>  <ref_mols>  (1386) 
Ax0446a,Ax1080a,Ax0812a,Ax0719a,Ax1140a,Ax0528a,Ax0310a

>  <original SMILES>  (1386) 
Cc1noc(C)c1CC(=O)N(C)C1CCCCC1

>  <rationale>  (1386) 
info info set:3d;hydroph_interaction:P107+V84+E85; 

>  <experiment>  (1386) 
3d

>  <cluster_label>  (1386) 
3

>  <cluster_rank>  (1386) 
1043

>  <N_interactions>  (1386) 
3

>  <∆∆G>  (1386) 
-2.927203

>  <comRMSD>  (1386) 
0.704684

>  <ROCS_TanimotoCombo>  (1386) 
0.307

>  <ROCS_ShapeTanimoto>  (1386) 
0.213

>  <ROCS_ColorTanimoto>  (1386) 
0.094

$$$$
EN300_45273584
     RDKit          3D

 19 19  0  0  0  0  0  0  0  0999 V2000
   30.7984    7.8664    8.4954 C   0  0  0  0  0  0  0  0  0  0  0  0
   29.9896    9.0145    8.7077 C   0  0  0  0  0  0  0  0  0  0  0  0
   29.3654    8.8214    9.9788 C   0  0  0  0  0  0  0  0  0  0  0  0
   28.6719    8.8790    8.2678 C   0  0  0  0  0  0  0  0  0  0  0  0
   30.5509   10.2677    8.2821 C   0  0  0  0  0  0  0  0  0  0  0  0
   30.2596   11.4935    8.7976 O   0  0  0  0  0  0  0  0  0  0  0  0
   31.5668   10.3692    7.1412 C   0  0  0  0  0  0  0  0  0  0  0  0
   32.4188    9.1950    6.8463 C   0  0  0  0  0  0  0  0  0  0  0  0
   33.4094    9.3468    5.7180 C   0  0  0  0  0  0  0  0  0  0  0  0
   33.4479   10.6784    4.9830 C   0  0  0  0  0  0  0  0  0  0  0  0
   34.4128   10.8931    3.8170 B   0  0  0  0  0  0  0  0  0  0  0  0
   35.2845    9.8093    3.3788 O   0  0  0  0  0  0  0  0  0  0  0  0
   33.9320   11.7582    2.7350 O   0  0  0  0  0  0  0  0  0  0  0  0
   32.4682   11.7919    5.4485 C   0  0  0  0  0  0  0  0  0  0  0  0
   31.5988   11.5269    6.4955 C   0  0  0  0  0  0  0  0  0  0  0  0
   30.6196   12.5967    6.9257 C   0  0  0  0  0  0  0  0  0  0  0  0
   30.4721   13.4339    5.8047 F   0  0  0  0  0  0  0  0  0  0  0  0
   29.3482   12.1173    7.1148 F   0  0  0  0  0  0  0  0  0  0  0  0
   31.0697   13.3773    7.9431 F   0  0  0  0  0  0  0  0  0  0  0  0
  1  2  1  0
  2  3  1  0
  2  4  1  0
  2  5  1  0
  5  6  2  0
  5  7  1  0
  7  8  2  0
  8  9  1  0
  9 10  2  0
 10 11  1  0
 11 12  1  0
 11 13  1  0
 10 14  1  0
 14 15  2  0
 15 16  1  0
 16 17  1  0
 16 18  1  0
 16 19  1  0
 15  7  1  0
A    1
 C1 
A    2
 C2 
A    3
 C3 
A    4
 C4 
A    5
 C5 
A    6
 O1 
A    7
 C6 
A    8
 C7 
A    9
 C8 
A   10
 C9 
A   11
 B1 
A   12
 O2 
A   13
 O3 
A   14
 C10
A   15
 C11
A   16
 C12
A   17
 F1 
A   18
 F2 
A   19
 F3 
M  END
>  <ref_pdb>  (1387) 
Ax0310a

>  <ref_mols>  (1387) 
Ax0446a,Ax1080a,Ax0812a,Ax0719a,Ax1140a,Ax0528a,Ax0310a

>  <original SMILES>  (1387) 
CC(C)(C)C(=O)c1ccc(B(O)O)cc1C(F)(F)F

>  <rationale>  (1387) 
info info set:bb_densepocket2;hbond:S125; hydroph_interaction:P107; 

>  <experiment>  (1387) 
bb_densepocket2

>  <cluster_label>  (1387) 
3

>  <cluster_rank>  (1387) 
1044

>  <N_interactions>  (1387) 
2

>  <∆∆G>  (1387) 
-2.871345

>  <comRMSD>  (1387) 
0.585108

>  <ROCS_TanimotoCombo>  (1387) 
0.614

>  <ROCS_ShapeTanimoto>  (1387) 
0.259

>  <ROCS_ColorTanimoto>  (1387) 
0.355

$$$$
EN300_685406
     RDKit          3D

 16 17  0  0  0  0  0  0  0  0999 V2000
   28.4283   14.7509    7.5062 C   0  0  0  0  0  0  0  0  0  0  0  0
   29.4089   14.1435    8.4873 C   0  0  0  0  0  0  0  0  0  0  0  0
   30.4936   13.5151    7.7801 O   0  0  0  0  0  0  0  0  0  0  0  0
   30.4586   12.1846    7.9004 C   0  0  0  0  0  0  0  0  0  0  0  0
   29.6797   11.6060    8.6040 O   0  0  0  0  0  0  0  0  0  0  0  0
   31.4375   11.4192    7.0892 C   0  0  0  0  0  0  0  0  0  0  0  0
   32.4000   11.7578    5.8999 C   0  0  0  0  0  0  0  0  0  0  0  0
   33.2133   10.8784    5.2872 N   0  0  0  0  0  0  0  0  0  0  0  0
   33.2696    9.5190    5.6808 C   0  0  0  0  0  0  0  0  0  0  0  0
   34.1283    8.7522    4.9234 N   0  0  0  0  0  0  0  0  0  0  0  0
   35.1980    9.4069    4.2299 C   0  0  0  0  0  0  0  0  0  0  0  0
   32.5281    9.0516    6.6976 N   0  0  0  0  0  0  0  0  0  0  0  0
   31.6839    9.9122    7.3590 C   0  0  0  0  0  0  0  0  0  0  0  0
   30.8857    9.4078    8.5190 C   0  0  0  0  0  0  0  0  0  0  0  0
   29.6993    8.5479    8.4339 C   0  0  0  0  0  0  0  0  0  0  0  0
   30.9577    7.8829    8.6504 C   0  0  0  0  0  0  0  0  0  0  0  0
  1  2  1  0
  2  3  1  0
  3  4  1  0
  4  5  2  0
  4  6  1  0
  6  7  2  0
  7  8  1  0
  8  9  2  0
  9 10  1  0
 10 11  1  0
  9 12  1  0
 12 13  2  0
 13 14  1  0
 14 15  1  0
 15 16  1  0
 13  6  1  0
 16 14  1  0
A    1
 C1 
A    2
 C2 
A    3
 O1 
A    4
 C3 
A    5
 O2 
A    6
 C4 
A    7
 C5 
A    8
 N1 
A    9
 C6 
A   10
 N2 
A   11
 C7 
A   12
 N3 
A   13
 C8 
A   14
 C9 
A   15
 C10
A   16
 C11
M  END
>  <ref_pdb>  (1388) 
Ax0310a

>  <ref_mols>  (1388) 
Ax0446a,Ax1080a,Ax0812a,Ax0719a,Ax1140a,Ax0528a,Ax0310a

>  <original SMILES>  (1388) 
CCOC(=O)c1cnc(NC)nc1C1CC1

>  <rationale>  (1388) 
info info set:bb_densepocket2;hbond:S105; hydroph_interaction:V124; 

>  <experiment>  (1388) 
bb_densepocket2

>  <cluster_label>  (1388) 
3

>  <cluster_rank>  (1388) 
1045

>  <N_interactions>  (1388) 
2

>  <∆∆G>  (1388) 
-2.104226

>  <comRMSD>  (1388) 
0.74806

>  <ROCS_TanimotoCombo>  (1388) 
0.621

>  <ROCS_ShapeTanimoto>  (1388) 
0.269

>  <ROCS_ColorTanimoto>  (1388) 
0.352

$$$$
EN300_28319600
     RDKit          3D

 16 16  0  0  0  0  0  0  0  0999 V2000
   28.2350   13.7463    9.3559 C   0  0  0  0  0  0  0  0  0  0  0  0
   28.3275   12.8725    8.0944 C   0  0  0  0  0  0  0  0  0  0  0  0
   27.8573   13.5599    6.9718 C   0  0  0  0  0  0  0  0  0  0  0  0
   27.6124   11.5888    8.3055 C   0  0  0  0  0  0  0  0  0  0  0  0
   29.6970   12.4954    8.0070 O   0  0  0  0  0  0  0  0  0  0  0  0
   30.2401   12.4408    6.8094 C   0  0  0  0  0  0  0  0  0  0  0  0
   30.0780   13.2790    5.9451 O   0  0  0  0  0  0  0  0  0  0  0  0
   31.0431   11.3306    6.6336 N   0  0  0  0  0  0  0  0  0  0  0  0
   31.2113   10.1045    7.4661 C   0  0  0  0  0  0  0  0  0  0  0  0
   32.3912   10.0783    6.5208 C   0  0  0  0  0  0  0  0  0  0  0  0
   32.4629   11.4498    6.3617 C   0  0  2  0  0  0  0  0  0  0  0  0
   33.0260   12.0990    7.5409 C   0  0  0  0  0  0  0  0  0  0  0  0
   33.3993   13.7768    7.6106 S   0  0  0  0  0  6  0  0  0  0  0  0
   34.8609   13.7901    8.4142 N   0  0  0  0  0  0  0  0  0  0  0  0
   33.5571   14.2706    6.2632 O   0  0  0  0  0  0  0  0  0  0  0  0
   32.4704   14.2769    8.6062 O   0  0  0  0  0  0  0  0  0  0  0  0
  1  2  1  0
  2  3  1  0
  2  4  1  0
  2  5  1  0
  5  6  1  0
  6  7  2  0
  6  8  1  0
  8  9  1  0
  9 10  1  0
 10 11  1  0
 11 12  1  1
 12 13  1  0
 13 14  1  0
 13 15  2  0
 13 16  2  0
 11  8  1  0
A    1
 C1 
A    2
 C2 
A    3
 C3 
A    4
 C4 
A    5
 O1 
A    6
 C5 
A    7
 O2 
A    8
 N1 
A    9
 C6 
A   10
 C7 
A   11
 C8 
A   12
 C9 
A   13
 S1 
A   14
 N2 
A   15
 O3 
A   16
 O4 
M  END
>  <ref_pdb>  (1389) 
Ax0310a

>  <ref_mols>  (1389) 
Ax0446a,Ax1080a,Ax0812a,Ax0719a,Ax1140a,Ax0528a,Ax0310a

>  <original SMILES>  (1389) 
CC(C)(C)OC(=O)N1CC[C@@H]1CS(N)(=O)=O

>  <rationale>  (1389) 
info info set:sulfonimide_whole;hbond:S87+G127+E85; 

>  <experiment>  (1389) 
sulfonimide_whole

>  <cluster_label>  (1389) 
3

>  <cluster_rank>  (1389) 
1046

>  <N_interactions>  (1389) 
3

>  <∆∆G>  (1389) 
-3.030784

>  <comRMSD>  (1389) 
0.801812

>  <ROCS_TanimotoCombo>  (1389) 
0.328

>  <ROCS_ShapeTanimoto>  (1389) 
0.19

>  <ROCS_ColorTanimoto>  (1389) 
0.138

$$$$
EN300_5111787
     RDKit          3D

 14 14  0  0  0  0  0  0  0  0999 V2000
   34.4811    8.8778    4.8909 C   0  0  0  0  0  0  0  0  0  0  0  0
   33.4367    9.5242    5.7747 C   0  0  0  0  0  0  0  0  0  0  0  0
   33.4913   11.0619    5.6177 C   0  0  0  0  0  0  0  0  0  0  0  0
   32.4651   11.7684    6.4733 C   0  0  0  0  0  0  0  0  0  0  0  0
   31.6104   10.7863    7.3046 C   0  0  0  0  0  0  0  0  0  0  0  0
   30.6701   11.7313    8.0456 C   0  0  0  0  0  0  0  0  0  0  0  0
   29.8074   11.2362    8.6710 O   0  0  0  0  0  0  0  0  0  0  0  0
   30.7837   13.0801    7.9968 N   0  0  0  0  0  0  0  0  0  0  0  0
   29.8019   13.7671    8.8183 C   0  0  0  0  0  0  0  0  0  0  0  0
   28.9769   14.7876    7.9958 C   0  0  0  0  0  0  0  0  0  0  0  0
   28.4222   15.5456    7.3561 N   0  0  0  0  0  0  0  0  0  0  0  0
   31.6755    9.4542    7.3574 C   0  0  0  0  0  0  0  0  0  0  0  0
   30.7129    8.7353    8.3035 C   0  0  0  0  0  0  0  0  0  0  0  0
   32.5895    8.8047    6.5839 N   0  0  0  0  0  0  0  0  0  0  0  0
  1  2  1  0
  2  3  2  0
  3  4  1  0
  4  5  2  0
  5  6  1  0
  6  7  2  0
  6  8  1  0
  8  9  1  0
  9 10  1  0
 10 11  3  0
  5 12  1  0
 12 13  1  0
 12 14  2  0
 14  2  1  0
A    1
 C1 
A    2
 C2 
A    3
 C3 
A    4
 C4 
A    5
 C5 
A    6
 C6 
A    7
 O1 
A    8
 N1 
A    9
 C7 
A   10
 C8 
A   11
 N2 
A   12
 C9 
A   13
 C10
A   14
 N3 
M  END
>  <ref_pdb>  (1390) 
Ax0310a

>  <ref_mols>  (1390) 
Ax0446a,Ax1080a,Ax0812a,Ax0719a,Ax1140a,Ax0528a,Ax0310a

>  <original SMILES>  (1390) 
Cc1ccc(C(=O)NCC#N)c(C)n1

>  <rationale>  (1390) 
info info set:bb_densepocket2;hbond:S87; 

>  <experiment>  (1390) 
bb_densepocket2

>  <cluster_label>  (1390) 
3

>  <cluster_rank>  (1390) 
1047

>  <N_interactions>  (1390) 
2

>  <∆∆G>  (1390) 
-5.049984

>  <comRMSD>  (1390) 
0.640847

>  <ROCS_TanimotoCombo>  (1390) 
0.61

>  <ROCS_ShapeTanimoto>  (1390) 
0.23

>  <ROCS_ColorTanimoto>  (1390) 
0.38

$$$$
EN300_1440241
     RDKit          3D

 13 13  0  0  0  0  0  0  0  0999 V2000
   27.7050   13.6908    6.9610 C   0  0  0  0  0  0  0  0  0  0  0  0
   28.6532   13.1605    8.0015 C   0  0  0  0  0  0  0  0  0  0  0  0
   29.4578   12.0471    7.5297 O   0  0  0  0  0  0  0  0  0  0  0  0
   30.7509   12.1872    7.8689 C   0  0  0  0  0  0  0  0  0  0  0  0
   31.1763   12.9655    8.6993 O   0  0  0  0  0  0  0  0  0  0  0  0
   31.6254   11.2434    7.0546 C   0  0  0  0  0  0  0  0  0  0  0  0
   32.3419   11.8660    5.8687 C   0  0  0  0  0  0  0  0  0  0  0  0
   33.1906   10.8237    5.1554 C   0  0  0  0  0  0  0  0  0  0  0  0
   33.2240    9.3636    5.6657 C   0  0  0  0  0  0  0  0  0  0  0  0
   32.5492    8.8916    6.7331 N   0  0  0  0  0  0  0  0  0  0  0  0
   31.7726    9.7653    7.4323 C   0  0  0  0  0  0  0  0  0  0  0  0
   31.1121    9.1964    8.6165 C   0  0  0  0  0  0  0  0  0  0  0  0
   29.6163    8.1351    8.4921 Br  0  0  0  0  0  0  0  0  0  0  0  0
  1  2  1  0
  2  3  1  0
  3  4  1  0
  4  5  2  0
  4  6  1  0
  6  7  2  0
  7  8  1  0
  8  9  2  0
  9 10  1  0
 10 11  2  0
 11 12  1  0
 12 13  1  0
 11  6  1  0
A    1
 C1 
A    2
 C2 
A    3
 O1 
A    4
 C3 
A    5
 O2 
A    6
 C4 
A    7
 C5 
A    8
 C6 
A    9
 C7 
A   10
 N1 
A   11
 C8 
A   12
 C9 
A   13
BR1 
M  END
>  <ref_pdb>  (1391) 
Ax0310a

>  <ref_mols>  (1391) 
Ax0446a,Ax1080a,Ax0812a,Ax0719a,Ax1140a,Ax0528a,Ax0310a

>  <original SMILES>  (1391) 
CCOC(=O)c1cccnc1CBr

>  <rationale>  (1391) 
info info set:bb_densepocket2;hbond:G127; hydroph_interaction:P107; 

>  <experiment>  (1391) 
bb_densepocket2

>  <cluster_label>  (1391) 
3

>  <cluster_rank>  (1391) 
1048

>  <N_interactions>  (1391) 
2

>  <∆∆G>  (1391) 
-0.451556

>  <comRMSD>  (1391) 
0.92907

>  <ROCS_TanimotoCombo>  (1391) 
0.618

>  <ROCS_ShapeTanimoto>  (1391) 
0.214

>  <ROCS_ColorTanimoto>  (1391) 
0.404

$$$$
EN300_286196
     RDKit          3D

 15 15  0  0  0  0  0  0  0  0999 V2000
   32.5560   14.2204    3.8808 C   0  0  0  0  0  0  0  0  0  0  0  0
   31.9301   13.7507    5.0678 O   0  0  0  0  0  0  0  0  0  0  0  0
   32.8417   13.1328    5.8739 C   0  0  0  0  0  0  0  0  0  0  0  0
   34.0065   13.4504    6.0239 O   0  0  0  0  0  0  0  0  0  0  0  0
   32.2373   11.9254    6.6066 C   0  0  0  0  0  0  0  0  0  0  0  0
   32.8468   10.6010    6.3016 C   0  0  0  0  0  0  0  0  0  0  0  0
   32.2851    9.4645    6.9733 C   0  0  0  0  0  0  0  0  0  0  0  0
   31.1338    9.5091    7.9658 C   0  0  0  0  0  0  0  0  0  0  0  0
   30.4165    8.0919    8.8351 Br  0  0  0  0  0  0  0  0  0  0  0  0
   30.5326   10.8700    8.2503 C   0  0  0  0  0  0  0  0  0  0  0  0
   31.1541   12.0231    7.5191 C   0  0  0  0  0  0  0  0  0  0  0  0
   30.3846   13.5504    7.9031 S   0  0  0  0  0  6  0  0  0  0  0  0
   29.0795   13.2471    8.9241 N   0  0  0  0  0  0  0  0  0  0  0  0
   29.7513   13.9508    6.6758 O   0  0  0  0  0  0  0  0  0  0  0  0
   31.2949   14.3182    8.7231 O   0  0  0  0  0  0  0  0  0  0  0  0
  1  2  1  0
  2  3  1  0
  3  4  2  0
  3  5  1  0
  5  6  2  0
  6  7  1  0
  7  8  2  0
  8  9  1  0
  8 10  1  0
 10 11  2  0
 11 12  1  0
 12 13  1  0
 12 14  2  0
 12 15  2  0
 11  5  1  0
A    1
 C1 
A    2
 O1 
A    3
 C2 
A    4
 O2 
A    5
 C3 
A    6
 C4 
A    7
 C5 
A    8
 C6 
A    9
BR1 
A   10
 C7 
A   11
 C8 
A   12
 S1 
A   13
 N1 
A   14
 O3 
A   15
 O4 
M  END
>  <ref_pdb>  (1392) 
Ax0310a

>  <ref_mols>  (1392) 
Ax0446a,Ax1080a,Ax0812a,Ax0719a,Ax1140a,Ax0528a,Ax0310a

>  <original SMILES>  (1392) 
COC(=O)c1ccc(Br)cc1S(N)(=O)=O

>  <rationale>  (1392) 
info info set:sulfonimide_whole;hbond:S87+S125; 

>  <experiment>  (1392) 
sulfonimide_whole

>  <cluster_label>  (1392) 
3

>  <cluster_rank>  (1392) 
1049

>  <N_interactions>  (1392) 
2

>  <∆∆G>  (1392) 
-5.414768

>  <comRMSD>  (1392) 
0.624805

>  <ROCS_TanimotoCombo>  (1392) 
0.33

>  <ROCS_ShapeTanimoto>  (1392) 
0.191

>  <ROCS_ColorTanimoto>  (1392) 
0.14

$$$$
EN300_157623
     RDKit          3D

 16 16  0  0  0  0  0  0  0  0999 V2000
   33.8363    8.9470    5.2891 C   0  0  0  0  0  0  0  0  0  0  0  0
   33.0597    8.6262    6.4220 O   0  0  0  0  0  0  0  0  0  0  0  0
   32.3978    9.6969    6.8740 C   0  0  0  0  0  0  0  0  0  0  0  0
   31.2427    9.6536    7.6474 C   0  0  0  0  0  0  0  0  0  0  0  0
   30.6411   10.8414    8.0373 C   0  0  0  0  0  0  0  0  0  0  0  0
   31.1900   12.0577    7.6548 C   0  0  0  0  0  0  0  0  0  0  0  0
   30.4061   13.5497    8.1111 S   0  0  0  0  0  6  0  0  0  0  0  0
   29.0129   13.2331    8.9700 N   0  0  0  0  0  0  0  0  0  0  0  0
   31.2704   14.3481    8.9639 O   0  0  0  0  0  0  0  0  0  0  0  0
   29.8000   14.0128    6.8906 O   0  0  0  0  0  0  0  0  0  0  0  0
   32.3587   12.1187    6.8962 C   0  0  0  0  0  0  0  0  0  0  0  0
   32.8925   13.3342    6.5434 O   0  0  0  0  0  0  0  0  0  0  0  0
   34.2170   13.5509    7.0549 C   0  0  0  0  0  0  0  0  0  0  0  0
   32.9585   10.9364    6.5082 C   0  0  0  0  0  0  0  0  0  0  0  0
   34.1155   11.0922    5.7575 O   0  0  0  0  0  0  0  0  0  0  0  0
   34.6208    9.9375    5.0935 C   0  0  0  0  0  0  0  0  0  0  0  0
  1  2  1  0
  2  3  1  0
  3  4  2  0
  4  5  1  0
  5  6  2  0
  6  7  1  0
  7  8  1  0
  7  9  2  0
  7 10  2  0
  6 11  1  0
 11 12  1  0
 12 13  1  0
 11 14  2  0
 14 15  1  0
 15 16  1  0
 14  3  1  0
A    1
 C1 
A    2
 O1 
A    3
 C2 
A    4
 C3 
A    5
 C4 
A    6
 C5 
A    7
 S1 
A    8
 N1 
A    9
 O2 
A   10
 O3 
A   11
 C6 
A   12
 O4 
A   13
 C7 
A   14
 C8 
A   15
 O5 
A   16
 C9 
M  END
>  <ref_pdb>  (1393) 
Ax0310a

>  <ref_mols>  (1393) 
Ax0446a,Ax1080a,Ax0812a,Ax0719a,Ax1140a,Ax0528a,Ax0310a

>  <original SMILES>  (1393) 
COc1ccc(S(N)(=O)=O)c(OC)c1OC

>  <rationale>  (1393) 
info info set:sulfonimide_whole;hbond:S87+S125+G127; 

>  <experiment>  (1393) 
sulfonimide_whole

>  <cluster_label>  (1393) 
3

>  <cluster_rank>  (1393) 
1050

>  <N_interactions>  (1393) 
3

>  <∆∆G>  (1393) 
-2.511579

>  <comRMSD>  (1393) 
0.850053

>  <ROCS_TanimotoCombo>  (1393) 
0.345

>  <ROCS_ShapeTanimoto>  (1393) 
0.208

>  <ROCS_ColorTanimoto>  (1393) 
0.137

$$$$
EN300_28262930
     RDKit          3D

 19 20  0  0  0  0  0  0  0  0999 V2000
   28.9103    9.2446    9.5268 C   0  0  0  0  0  0  0  0  0  0  0  0
   30.0872    8.4069    9.4362 C   0  0  0  0  0  0  0  0  0  0  0  0
   29.4355    8.7109    8.1667 C   0  0  0  0  0  0  0  0  0  0  0  0
   29.8150    7.0096    9.3648 C   0  0  0  0  0  0  0  0  0  0  0  0
   31.2979    8.8409    8.8598 O   0  0  0  0  0  0  0  0  0  0  0  0
   31.1624   10.0159    8.2451 C   0  0  0  0  0  0  0  0  0  0  0  0
   30.2890   11.0751    8.5995 O   0  0  0  0  0  0  0  0  0  0  0  0
   31.9871   10.0968    7.2234 N   0  0  0  0  0  0  0  0  0  0  0  0
   32.4216    8.9219    6.5575 N   0  0  0  0  0  0  0  0  0  0  0  0
   33.2271    9.3309    5.5671 C   0  0  0  0  0  0  0  0  0  0  0  0
   33.2113   10.8244    5.7218 C   0  0  0  0  0  0  0  0  0  0  0  0
   34.0607   11.5330    4.6713 C   0  0  0  0  0  0  0  0  0  0  0  0
   33.9992   13.0114    4.9117 C   0  0  0  0  0  0  0  0  0  0  0  0
   33.2292   13.5102    6.0077 C   0  0  0  0  0  0  0  0  0  0  0  0
   32.4728   12.6775    6.9222 C   0  0  0  0  0  0  0  0  0  0  0  0
   31.7368   13.1774    8.0199 N   0  0  0  0  0  0  0  0  0  0  0  0
   30.6032   13.6730    7.8566 N   0  0  0  0  0  4  0  0  0  0  0  0
   29.5754   14.1631    7.7631 N   0  0  0  0  0  2  0  0  0  0  0  0
   32.4994   11.2619    6.7043 C   0  0  0  0  0  0  0  0  0  0  0  0
  1  2  1  0
  2  3  1  0
  2  4  1  0
  2  5  1  0
  5  6  1  0
  6  7  2  0
  6  8  1  0
  8  9  1  0
  9 10  2  0
 10 11  1  0
 11 12  2  0
 12 13  1  0
 13 14  2  0
 14 15  1  0
 15 16  1  0
 16 17  2  0
 17 18  2  0
 15 19  2  0
 19  8  1  0
 19 11  1  0
M  CHG  2  17   1  18  -1
A    1
 C1 
A    2
 C2 
A    3
 C3 
A    4
 C4 
A    5
 O1 
A    6
 C5 
A    7
 O2 
A    8
 N1 
A    9
 N2 
A   10
 C6 
A   11
 C7 
A   12
 C8 
A   13
 C9 
A   14
 C10
A   15
 C11
A   16
 N3 
A   17
 N4 
A   18
 N5 
A   19
 C12
M  END
>  <ref_pdb>  (1394) 
Ax0310a

>  <ref_mols>  (1394) 
Ax0446a,Ax1080a,Ax0812a,Ax0719a,Ax1140a,Ax0528a,Ax0310a

>  <original SMILES>  (1394) 
CC(C)(C)OC(=O)n1ncc2cccc(N=[N+]=[N-])c21

>  <rationale>  (1394) 
info info set:bb_densepocket2;hbond:S87+G127; hydroph_interaction:V124+D109; 

>  <experiment>  (1394) 
bb_densepocket2

>  <cluster_label>  (1394) 
3

>  <cluster_rank>  (1394) 
1051

>  <N_interactions>  (1394) 
4

>  <∆∆G>  (1394) 
-2.497477

>  <comRMSD>  (1394) 
0.578486

>  <ROCS_TanimotoCombo>  (1394) 
0.611

>  <ROCS_ShapeTanimoto>  (1394) 
0.241

>  <ROCS_ColorTanimoto>  (1394) 
0.37

$$$$
EN300_147172
     RDKit          3D

  9  9  0  0  0  0  0  0  0  0999 V2000
   29.3099   12.6473    7.6916 C   0  0  0  0  0  0  0  0  0  0  0  0
   30.1047   11.6527    8.1586 N   0  0  0  0  0  0  0  0  0  0  0  0
   31.1680   11.0409    7.4177 C   0  0  0  0  0  0  0  0  0  0  0  0
   32.0974   11.8976    6.5332 C   0  0  0  0  0  0  0  0  0  0  0  0
   33.1927   11.1171    5.7703 C   0  0  0  0  0  0  0  0  0  0  0  0
   33.2321    9.6079    5.9753 C   0  0  0  0  0  0  0  0  0  0  0  0
   34.2157    8.8955    5.2892 N   0  0  0  0  0  0  0  0  0  0  0  0
   32.4134    8.9009    6.7553 N   0  0  0  0  0  0  0  0  0  0  0  0
   31.4470    9.5323    7.4369 C   0  0  0  0  0  0  0  0  0  0  0  0
  1  2  1  0
  2  3  1  0
  3  4  2  0
  4  5  1  0
  5  6  2  0
  6  7  1  0
  6  8  1  0
  8  9  2  0
  9  3  1  0
A    1
 C1 
A    2
 N1 
A    3
 C2 
A    4
 C3 
A    5
 C4 
A    6
 C5 
A    7
 N2 
A    8
 N3 
A    9
 C6 
M  END
>  <ref_pdb>  (1395) 
Ax0310a

>  <ref_mols>  (1395) 
Ax0446a,Ax1080a,Ax0812a,Ax0719a,Ax1140a,Ax0528a,Ax0310a

>  <original SMILES>  (1395) 
CNc1ccc(N)nc1

>  <rationale>  (1395) 
info info set:bb_densepocket2;hbond:S105+S125; 

>  <experiment>  (1395) 
bb_densepocket2

>  <cluster_label>  (1395) 
3

>  <cluster_rank>  (1395) 
1052

>  <N_interactions>  (1395) 
2

>  <∆∆G>  (1395) 
-4.949282

>  <comRMSD>  (1395) 
0.317576

>  <ROCS_TanimotoCombo>  (1395) 
0.608

>  <ROCS_ShapeTanimoto>  (1395) 
0.196

>  <ROCS_ColorTanimoto>  (1395) 
0.412

$$$$
EN300_28640894
     RDKit          3D

 12 12  0  0  0  0  0  0  0  0999 V2000
   28.8128   13.1609    7.7998 C   0  0  0  0  0  0  0  0  0  0  0  0
   30.1241   12.8130    7.3472 O   0  0  0  0  0  0  0  0  0  0  0  0
   30.5004   11.5363    7.8422 C   0  0  0  0  0  0  0  0  0  0  0  0
   29.9937   10.8641    8.8513 O   0  0  0  0  0  0  0  0  0  0  0  0
   31.5875   10.8571    7.0747 C   0  0  0  0  0  0  0  0  0  0  0  0
   32.5669   11.4911    6.1452 C   0  0  0  0  0  0  0  0  0  0  0  0
   33.5027   10.7883    5.4941 N   0  0  0  0  0  0  0  0  0  0  0  0
   33.4965    9.4614    5.7358 C   0  0  0  0  0  0  0  0  0  0  0  0
   34.4459    8.7725    5.0545 O   0  0  0  0  0  0  0  0  0  0  0  0
   32.6935    8.7443    6.5453 N   0  0  0  0  0  0  0  0  0  0  0  0
   31.7377    9.3684    7.2333 C   0  0  0  0  0  0  0  0  0  0  0  0
   30.8997    8.6266    8.0814 N   0  0  0  0  0  0  0  0  0  0  0  0
  1  2  1  0
  2  3  1  0
  3  4  2  0
  3  5  1  0
  5  6  2  0
  6  7  1  0
  7  8  2  0
  8  9  1  0
  8 10  1  0
 10 11  2  0
 11 12  1  0
 11  5  1  0
A    1
 C1 
A    2
 O1 
A    3
 C2 
A    4
 O2 
A    5
 C3 
A    6
 C4 
A    7
 N1 
A    8
 C5 
A    9
 O3 
A   10
 N2 
A   11
 C6 
A   12
 N3 
M  END
>  <ref_pdb>  (1396) 
Ax0310a

>  <ref_mols>  (1396) 
Ax0446a,Ax1080a,Ax0812a,Ax0719a,Ax1140a,Ax0528a,Ax0310a

>  <original SMILES>  (1396) 
COC(=O)c1cnc(O)nc1N

>  <rationale>  (1396) 
info info set:bb_densepocket2;hbond:S105; 

>  <experiment>  (1396) 
bb_densepocket2

>  <cluster_label>  (1396) 
3

>  <cluster_rank>  (1396) 
1053

>  <N_interactions>  (1396) 
1

>  <∆∆G>  (1396) 
-2.785645

>  <comRMSD>  (1396) 
0.539405

>  <ROCS_TanimotoCombo>  (1396) 
0.617

>  <ROCS_ShapeTanimoto>  (1396) 
0.238

>  <ROCS_ColorTanimoto>  (1396) 
0.379

$$$$
Z447995202
     RDKit          3D

 13 14  0  0  0  0  0  0  0  0999 V2000
   33.5103   13.2703    8.8971 N   0  0  0  0  0  0  0  0  0  0  0  0
   32.5482   12.5999    8.1734 C   0  0  0  0  0  0  0  0  0  0  0  0
   31.5105   11.9337    7.3382 C   0  0  0  0  0  0  0  0  0  0  0  0
   30.5323   13.0476    7.1381 N   0  0  0  0  0  0  0  0  0  0  0  0
   29.7473   12.9694    6.1035 C   0  0  0  0  0  0  0  0  0  0  0  0
   28.5469   13.5354    6.5187 C   0  0  0  0  0  0  0  0  0  0  0  0
   28.6609   14.0031    7.8122 C   0  0  0  0  0  0  0  0  0  0  0  0
   30.0492   13.5989    8.3049 C   0  0  0  0  0  0  0  0  0  0  0  0
   31.9031   11.3135    6.1772 C   0  0  0  0  0  0  0  0  0  0  0  0
   32.8760   10.3879    6.3699 C   0  0  0  0  0  0  0  0  0  0  0  0
   32.3322    9.2465    7.0190 O   0  0  0  0  0  0  0  0  0  0  0  0
   31.1954    9.4632    7.8736 C   0  0  0  0  0  0  0  0  0  0  0  0
   30.7353   10.7889    8.0574 C   0  0  0  0  0  0  0  0  0  0  0  0
  1  2  3  0
  2  3  1  0
  3  4  1  0
  4  5  1  0
  5  6  1  0
  6  7  1  0
  7  8  1  0
  3  9  1  0
  9 10  1  0
 10 11  1  0
 11 12  1  0
 12 13  1  0
 13  3  1  0
  8  4  1  0
A    1
 N1 
A    2
 C1 
A    3
 C2 
A    4
 N2 
A    5
 C3 
A    6
 C4 
A    7
 C5 
A    8
 C6 
A    9
 C7 
A   10
 C8 
A   11
 O1 
A   12
 C9 
A   13
 C10
M  END
>  <ref_pdb>  (1397) 
Ax0310a

>  <ref_mols>  (1397) 
Ax0446a,Ax1080a,Ax0812a,Ax0719a,Ax1140a,Ax0528a,Ax0310a

>  <original SMILES>  (1397) 
N#CC1(N2CCCC2)CCOCC1

>  <rationale>  (1397) 
info info set:3d;hbond:G127; hydroph_interaction:P107; 

>  <experiment>  (1397) 
3d

>  <cluster_label>  (1397) 
3

>  <cluster_rank>  (1397) 
1054

>  <N_interactions>  (1397) 
2

>  <∆∆G>  (1397) 
-1.759666

>  <comRMSD>  (1397) 
0.457809

>  <ROCS_TanimotoCombo>  (1397) 
0.29

>  <ROCS_ShapeTanimoto>  (1397) 
0.193

>  <ROCS_ColorTanimoto>  (1397) 
0.097

$$$$
Z2327124586
     RDKit          3D

 14 15  0  0  0  0  0  0  0  0999 V2000
   29.8448   15.1351    9.3827 O   0  0  0  0  0  0  0  0  0  0  0  0
   30.9383   14.6144    9.1934 C   0  0  0  0  0  0  0  0  0  0  0  0
   32.1208   14.8149    9.8291 O   0  0  0  0  0  0  0  0  0  0  0  0
   30.9961   13.6188    8.0426 C   0  0  2  0  0  0  0  0  0  0  0  0
   29.8915   13.4208    7.4856 C   0  0  0  0  0  0  0  0  0  0  0  0
   30.2987   12.2061    8.1507 C   0  0  1  0  0  0  0  0  0  0  0  0
   31.1173   11.2558    7.5988 C   0  0  0  0  0  0  0  0  0  0  0  0
   30.7477    9.8195    7.9688 C   0  0  0  0  0  0  0  0  0  0  0  0
   31.6430    8.7704    7.3280 C   0  0  0  0  0  0  0  0  0  0  0  0
   32.7621    9.1424    6.4351 C   0  0  0  0  0  0  0  0  0  0  0  0
   33.0875   10.5495    6.1210 C   0  0  0  0  0  0  0  0  0  0  0  0
   34.1172   10.8333    5.3131 F   0  0  0  0  0  0  0  0  0  0  0  0
   32.2235   11.6052    6.7390 C   0  0  0  0  0  0  0  0  0  0  0  0
   32.5201   12.8812    6.4580 F   0  0  0  0  0  0  0  0  0  0  0  0
  1  2  2  0
  2  3  1  0
  4  2  1  1
  4  5  1  0
  5  6  1  0
  6  7  1  6
  7  8  2  0
  8  9  1  0
  9 10  2  0
 10 11  1  0
 11 12  1  0
 11 13  2  0
 13 14  1  0
  6  4  1  0
 13  7  1  0
A    1
 O1 
A    2
 C1 
A    3
 O2 
A    4
 C2 
A    5
 C3 
A    6
 C4 
A    7
 C5 
A    8
 C6 
A    9
 C7 
A   10
 C8 
A   11
 C9 
A   12
 F1 
A   13
 C10
A   14
 F2 
M  END
>  <ref_pdb>  (1398) 
Ax0310a

>  <ref_mols>  (1398) 
Ax0446a,Ax1080a,Ax0812a,Ax0719a,Ax1140a,Ax0528a,Ax0310a

>  <original SMILES>  (1398) 
O=C(O)[C@@H]1C[C@H]1c1cccc(F)c1F

>  <rationale>  (1398) 
info info set:3d;hbond:S87; 

>  <experiment>  (1398) 
3d

>  <cluster_label>  (1398) 
3

>  <cluster_rank>  (1398) 
1055

>  <N_interactions>  (1398) 
1

>  <∆∆G>  (1398) 
-2.155532

>  <comRMSD>  (1398) 
0.749672

>  <ROCS_TanimotoCombo>  (1398) 
0.302

>  <ROCS_ShapeTanimoto>  (1398) 
0.204

>  <ROCS_ColorTanimoto>  (1398) 
0.098

$$$$
EN300_132452
     RDKit          3D

 15 16  0  0  0  0  0  0  0  0999 V2000
   33.3058   13.7686    4.5164 C   0  0  0  0  0  0  0  0  0  0  0  0
   34.2948   13.0703    5.2289 C   0  0  0  0  0  0  0  0  0  0  0  0
   34.1530   11.6991    5.4280 C   0  0  0  0  0  0  0  0  0  0  0  0
   34.9844   10.7467    4.9764 N   0  0  0  0  0  0  0  0  0  0  0  0
   34.4247    9.5416    5.4292 O   0  0  0  0  0  0  0  0  0  0  0  0
   33.2903    9.8161    6.1267 C   0  0  0  0  0  0  0  0  0  0  0  0
   32.4172    8.9212    6.7605 N   0  0  0  0  0  0  0  0  0  0  0  0
   31.3047    9.3596    7.4298 C   0  0  0  0  0  0  0  0  0  0  0  0
   31.1384   10.7447    7.4047 C   0  0  0  0  0  0  0  0  0  0  0  0
   29.7615   11.2977    8.2188 S   0  0  0  0  0  6  0  0  0  0  0  0
   30.2902   12.7902    8.7798 N   0  0  0  0  0  0  0  0  0  0  0  0
   29.7382   10.2347    9.1762 O   0  0  0  0  0  0  0  0  0  0  0  0
   28.6322   11.6195    7.3966 O   0  0  0  0  0  0  0  0  0  0  0  0
   32.0501   11.7646    6.7451 C   0  0  0  0  0  0  0  0  0  0  0  0
   33.1012   11.1544    6.1344 C   0  0  0  0  0  0  0  0  0  0  0  0
  1  2  1  0
  2  3  1  0
  3  4  2  0
  4  5  1  0
  5  6  1  0
  6  7  2  0
  7  8  1  0
  8  9  2  0
  9 10  1  0
 10 11  1  0
 10 12  2  0
 10 13  2  0
  9 14  1  0
 14 15  2  0
 15  3  1  0
 15  6  1  0
A    1
 C1 
A    2
 C2 
A    3
 C3 
A    4
 N1 
A    5
 O1 
A    6
 C4 
A    7
 N2 
A    8
 C5 
A    9
 C6 
A   10
 S1 
A   11
 N3 
A   12
 O2 
A   13
 O3 
A   14
 C7 
A   15
 C8 
M  END
>  <ref_pdb>  (1399) 
Ax0310a

>  <ref_mols>  (1399) 
Ax0446a,Ax1080a,Ax0812a,Ax0719a,Ax1140a,Ax0528a,Ax0310a

>  <original SMILES>  (1399) 
CCc1noc2ncc(S(N)(=O)=O)cc12

>  <rationale>  (1399) 
info info set:sulfonimide_whole;

>  <experiment>  (1399) 
sulfonimide_whole

>  <cluster_label>  (1399) 
3

>  <cluster_rank>  (1399) 
1056

>  <N_interactions>  (1399) 
0

>  <∆∆G>  (1399) 
-3.705161

>  <comRMSD>  (1399) 
0.779187

>  <ROCS_TanimotoCombo>  (1399) 
0.342

>  <ROCS_ShapeTanimoto>  (1399) 
0.194

>  <ROCS_ColorTanimoto>  (1399) 
0.148

$$$$
EN300_283805
     RDKit          3D

 13 13  0  0  0  0  0  0  0  0999 V2000
   29.9307    8.7035    8.5622 C   0  0  0  0  0  0  0  0  0  0  0  0
   30.9989    9.4820    7.8913 C   0  0  0  0  0  0  0  0  0  0  0  0
   32.0234    8.7790    6.9392 C   0  0  0  0  0  0  0  0  0  0  0  0
   32.9936    9.8758    6.3957 C   0  0  0  0  0  0  0  0  0  0  0  0
   33.0291   11.2997    6.6882 C   0  0  0  0  0  0  0  0  0  0  0  0
   33.9668   12.0731    6.1228 F   0  0  0  0  0  0  0  0  0  0  0  0
   31.9435   11.6681    7.6442 C   0  0  0  0  0  0  0  0  0  0  0  0
   32.0430   13.1451    7.9433 C   0  0  0  0  0  0  0  0  0  0  0  0
   30.3737   13.7589    8.0436 S   0  0  0  0  0  6  0  0  0  0  0  0
   29.3870   12.5671    8.6090 N   0  0  0  0  0  0  0  0  0  0  0  0
   30.3275   14.8432    9.0046 O   0  0  0  0  0  0  0  0  0  0  0  0
   29.8843   13.8386    6.6901 O   0  0  0  0  0  0  0  0  0  0  0  0
   31.0161   10.8132    8.1705 C   0  0  0  0  0  0  0  0  0  0  0  0
  1  2  1  0
  2  3  2  0
  3  4  1  0
  4  5  2  0
  5  6  1  0
  5  7  1  0
  7  8  1  0
  8  9  1  0
  9 10  1  0
  9 11  2  0
  9 12  2  0
  7 13  2  0
 13  2  1  0
A    1
 C1 
A    2
 C2 
A    3
 C3 
A    4
 C4 
A    5
 C5 
A    6
 F1 
A    7
 C6 
A    8
 C7 
A    9
 S1 
A   10
 N1 
A   11
 O1 
A   12
 O2 
A   13
 C8 
M  END
>  <ref_pdb>  (1400) 
Ax0310a

>  <ref_mols>  (1400) 
Ax0446a,Ax1080a,Ax0812a,Ax0719a,Ax1140a,Ax0528a,Ax0310a

>  <original SMILES>  (1400) 
Cc1ccc(F)c(CS(N)(=O)=O)c1

>  <rationale>  (1400) 
info info set:sulfonimide_whole;hbond:S87+S125; hydroph_interaction:V124; 

>  <experiment>  (1400) 
sulfonimide_whole

>  <cluster_label>  (1400) 
3

>  <cluster_rank>  (1400) 
1057

>  <N_interactions>  (1400) 
3

>  <∆∆G>  (1400) 
-5.089728

>  <comRMSD>  (1400) 
0.778723

>  <ROCS_TanimotoCombo>  (1400) 
0.327

>  <ROCS_ShapeTanimoto>  (1400) 
0.182

>  <ROCS_ColorTanimoto>  (1400) 
0.146

$$$$
EN300_637431
     RDKit          3D

 16 16  0  0  0  0  0  0  0  0999 V2000
   28.0402   13.3872    7.8793 C   0  0  0  0  0  0  0  0  0  0  0  0
   29.3237   13.8357    7.1826 C   0  0  0  0  0  0  0  0  0  0  0  0
   30.1197   12.7060    6.7252 O   0  0  0  0  0  0  0  0  0  0  0  0
   31.1777   12.3739    7.5131 C   0  0  0  0  0  0  0  0  0  0  0  0
   31.5807   13.0661    8.4461 O   0  0  0  0  0  0  0  0  0  0  0  0
   31.7812   11.0138    7.0929 C   0  0  0  0  0  0  0  0  0  0  0  0
   32.6759   10.7801    5.9472 C   0  0  0  0  0  0  0  0  0  0  0  0
   32.8211   12.2482    5.3295 C   0  0  0  0  0  0  0  0  0  0  0  0
   31.6850   12.9925    5.3720 F   0  0  0  0  0  0  0  0  0  0  0  0
   33.1907   12.2061    4.0233 F   0  0  0  0  0  0  0  0  0  0  0  0
   33.7634   12.9764    5.9746 F   0  0  0  0  0  0  0  0  0  0  0  0
   33.0759    9.4812    5.7900 C   0  0  0  0  0  0  0  0  0  0  0  0
   32.5327    8.7117    6.7798 O   0  0  0  0  0  0  0  0  0  0  0  0
   31.7733    9.5179    7.5849 C   0  0  0  0  0  0  0  0  0  0  0  0
   31.1345    8.8559    8.7609 C   0  0  0  0  0  0  0  0  0  0  0  0
   29.5045    8.0604    8.5114 Br  0  0  0  0  0  0  0  0  0  0  0  0
  1  2  1  0
  2  3  1  0
  3  4  1  0
  4  5  2  0
  4  6  1  0
  6  7  1  0
  7  8  1  0
  8  9  1  0
  8 10  1  0
  8 11  1  0
  7 12  2  0
 12 13  1  0
 13 14  1  0
 14 15  1  0
 15 16  1  0
 14  6  2  0
A    1
 C1 
A    2
 C2 
A    3
 O1 
A    4
 C3 
A    5
 O2 
A    6
 C4 
A    7
 C5 
A    8
 C6 
A    9
 F1 
A   10
 F2 
A   11
 F3 
A   12
 C7 
A   13
 O3 
A   14
 C8 
A   15
 C9 
A   16
BR1 
M  END
>  <ref_pdb>  (1401) 
Ax0310a

>  <ref_mols>  (1401) 
Ax0446a,Ax1080a,Ax0812a,Ax0719a,Ax1140a,Ax0528a,Ax0310a

>  <original SMILES>  (1401) 
CCOC(=O)c1c(C(F)(F)F)coc1CBr

>  <rationale>  (1401) 
info info set:bb_densepocket2;hbond:G127; hydroph_interaction:P107; 

>  <experiment>  (1401) 
bb_densepocket2

>  <cluster_label>  (1401) 
3

>  <cluster_rank>  (1401) 
1058

>  <N_interactions>  (1401) 
2

>  <∆∆G>  (1401) 
-0.428195

>  <comRMSD>  (1401) 
0.836208

>  <ROCS_TanimotoCombo>  (1401) 
0.617

>  <ROCS_ShapeTanimoto>  (1401) 
0.236

>  <ROCS_ColorTanimoto>  (1401) 
0.381

$$$$
Z55659692
     RDKit          3D

 25 28  0  0  0  0  0  0  0  0999 V2000
   31.7732   15.5768   10.1436 C   0  0  0  0  0  0  0  0  0  0  0  0
   31.5527   14.3537    9.4435 O   0  0  0  0  0  0  0  0  0  0  0  0
   30.3334   14.3579    8.8717 C   0  0  0  0  0  0  0  0  0  0  0  0
   29.4974   15.3908    9.1047 C   0  0  0  0  0  0  0  0  0  0  0  0
   28.1716   15.5541    8.5857 C   0  0  0  0  0  0  0  0  0  0  0  0
   27.6470   14.6045    7.7528 C   0  0  0  0  0  0  0  0  0  0  0  0
   28.4317   13.5062    7.4576 C   0  0  0  0  0  0  0  0  0  0  0  0
   29.7303   13.3370    7.9778 C   0  0  0  0  0  0  0  0  0  0  0  0
   30.3578   12.2069    7.6529 C   0  0  0  0  0  0  0  0  0  0  0  0
   31.5255   12.1473    7.1932 N   0  0  0  0  0  0  0  0  0  0  0  0
   31.9678   10.8818    6.9854 N   0  0  0  0  0  0  0  0  0  0  0  0
   31.4869    9.6632    7.3580 C   0  0  0  0  0  0  0  0  0  0  0  0
   32.2331    8.7107    6.9108 N   0  0  0  0  0  0  0  0  0  0  0  0
   33.2623    9.2953    6.2425 N   0  0  0  0  0  0  0  0  0  0  0  0
   33.1009   10.5996    6.3210 C   0  0  0  0  0  0  0  0  0  0  0  0
   33.9143   11.6268    5.8663 C   0  0  0  0  0  0  0  0  0  0  0  0
   34.5433   11.6496    4.6378 C   0  0  0  0  0  0  0  0  0  0  0  0
   35.3525   12.7358    4.3112 C   0  0  0  0  0  0  0  0  0  0  0  0
   35.5225   13.7917    5.2248 C   0  0  0  0  0  0  0  0  0  0  0  0
   34.8866   13.7701    6.4684 C   0  0  0  0  0  0  0  0  0  0  0  0
   34.0822   12.6792    6.7776 C   0  0  0  0  0  0  0  0  0  0  0  0
   33.4432   12.5987    7.9910 O   0  0  0  0  0  0  0  0  0  0  0  0
   34.0244   13.4606    8.9224 C   0  0  0  0  0  0  0  0  0  0  0  0
   30.0927    9.4901    8.2987 S   0  0  0  0  0  0  0  0  0  0  0  0
   29.4528   11.1590    8.0061 C   0  0  0  0  0  0  0  0  0  0  0  0
  1  2  1  0
  2  3  1  0
  3  4  2  0
  4  5  1  0
  5  6  2  0
  6  7  1  0
  7  8  2  0
  8  9  1  0
  9 10  2  0
 10 11  1  0
 11 12  1  0
 12 13  2  0
 13 14  1  0
 14 15  2  0
 15 16  1  0
 16 17  2  0
 17 18  1  0
 18 19  2  0
 19 20  1  0
 20 21  2  0
 21 22  1  0
 22 23  1  0
 12 24  1  0
 24 25  1  0
  8  3  1  0
 25  9  1  0
 15 11  1  0
 21 16  1  0
A    1
 C1 
A    2
 O1 
A    3
 C2 
A    4
 C3 
A    5
 C4 
A    6
 C5 
A    7
 C6 
A    8
 C7 
A    9
 C8 
A   10
 N1 
A   11
 N2 
A   12
 C9 
A   13
 N3 
A   14
 N4 
A   15
 C10
A   16
 C11
A   17
 C12
A   18
 C13
A   19
 C14
A   20
 C15
A   21
 C16
A   22
 O2 
A   23
 C17
A   24
 S1 
A   25
 C18
M  END
>  <ref_pdb>  (1402) 
Ax0310a

>  <ref_mols>  (1402) 
Ax0446a,Ax1080a,Ax0812a,Ax0719a,Ax1140a,Ax0528a,Ax0310a

>  <original SMILES>  (1402) 
COc1ccccc1C1=Nn2c(nnc2-c2ccccc2OC)SC1

>  <rationale>  (1402) 
info info set:screening_whole;hbond:S87+G127; hydroph_interaction:Y89+Y90; 

>  <experiment>  (1402) 
screening_whole

>  <cluster_label>  (1402) 
3

>  <cluster_rank>  (1402) 
1059

>  <N_interactions>  (1402) 
4

>  <∆∆G>  (1402) 
-4.099962

>  <comRMSD>  (1402) 
0.749888

>  <ROCS_TanimotoCombo>  (1402) 
0.456

>  <ROCS_ShapeTanimoto>  (1402) 
0.28

>  <ROCS_ColorTanimoto>  (1402) 
0.176

$$$$
Z339932428
     RDKit          3D

 22 23  0  0  0  0  0  0  0  0999 V2000
   31.2610    8.5524    8.1962 C   0  0  0  0  0  0  0  0  0  0  0  0
   31.9697    9.3857    7.1309 C   0  0  0  0  0  0  0  0  0  0  0  0
   32.9137    8.9277    6.3053 N   0  0  0  0  0  0  0  0  0  0  0  0
   33.5337    9.8024    5.3200 C   0  0  0  0  0  0  0  0  0  0  0  0
   34.5816    9.2196    4.3666 C   0  0  0  0  0  0  0  0  0  0  0  0
   35.4064    8.2841    4.8799 F   0  0  0  0  0  0  0  0  0  0  0  0
   34.0286    8.6306    3.2672 F   0  0  0  0  0  0  0  0  0  0  0  0
   35.3745   10.2006    3.8497 F   0  0  0  0  0  0  0  0  0  0  0  0
   33.1824   11.1307    5.2316 C   0  0  0  0  0  0  0  0  0  0  0  0
   32.1073   11.5971    6.1999 C   0  0  0  0  0  0  0  0  0  0  0  0
   31.5715   10.6642    7.0760 C   0  0  0  0  0  0  0  0  0  0  0  0
   30.5829   11.0230    7.9234 C   0  0  0  0  0  0  0  0  0  0  0  0
   30.5034   10.4639    8.9847 O   0  0  0  0  0  0  0  0  0  0  0  0
   29.7394   11.9419    7.4308 N   0  0  0  0  0  0  0  0  0  0  0  0
   30.1866   12.7628    6.3478 C   0  0  0  0  0  0  0  0  0  0  0  0
   28.5573   12.3870    8.0277 C   0  0  0  0  0  0  0  0  0  0  0  0
   28.5974   13.7439    7.9033 C   0  0  0  0  0  0  0  0  0  0  0  0
   28.3637   14.4340    6.6720 C   0  0  0  0  0  0  0  0  0  0  0  0
   28.5060   15.6519    6.9118 N   0  0  0  0  0  0  0  0  0  0  0  0
   28.7919   15.7224    8.1878 N   0  0  0  0  0  0  0  0  0  0  0  0
   28.9886   16.9907    8.6365 C   0  0  0  0  0  0  0  0  0  0  0  0
   28.8610   14.6232    8.8593 C   0  0  0  0  0  0  0  0  0  0  0  0
  1  2  1  0
  2  3  2  0
  3  4  1  0
  4  5  1  0
  5  6  1  0
  5  7  1  0
  5  8  1  0
  4  9  2  0
  9 10  1  0
 10 11  2  0
 11 12  1  0
 12 13  2  0
 12 14  1  0
 14 15  1  0
 14 16  1  0
 16 17  1  0
 17 18  1  0
 18 19  2  0
 19 20  1  0
 20 21  1  0
 20 22  1  0
 11  2  1  0
 22 17  2  0
A    1
 C1 
A    2
 C2 
A    3
 N1 
A    4
 C3 
A    5
 C4 
A    6
 F1 
A    7
 F2 
A    8
 F3 
A    9
 C5 
A   10
 C6 
A   11
 C7 
A   12
 C8 
A   13
 O1 
A   14
 N2 
A   15
 C9 
A   16
 C10
A   17
 C11
A   18
 C12
A   19
 N3 
A   20
 N4 
A   21
 C13
A   22
 C14
M  END
>  <ref_pdb>  (1403) 
Ax0310a

>  <ref_mols>  (1403) 
Ax0446a,Ax1080a,Ax0812a,Ax0719a,Ax1140a,Ax0528a,Ax0310a

>  <original SMILES>  (1403) 
Cc1nc(C(F)(F)F)ccc1C(=O)N(C)Cc1cnn(C)c1

>  <rationale>  (1403) 
info info set:screening_pocket;hydroph_interaction:P107; pistack:H21; 

>  <experiment>  (1403) 
screening_pocket

>  <cluster_label>  (1403) 
3

>  <cluster_rank>  (1403) 
1060

>  <N_interactions>  (1403) 
2

>  <∆∆G>  (1403) 
-0.467198

>  <comRMSD>  (1403) 
0.95062

>  <ROCS_TanimotoCombo>  (1403) 
0.645

>  <ROCS_ShapeTanimoto>  (1403) 
0.262

>  <ROCS_ColorTanimoto>  (1403) 
0.383

$$$$
EN300_2010404
     RDKit          3D

 15 15  0  0  0  0  0  0  0  0999 V2000
   31.2475    8.4993    8.4523 C   0  0  0  0  0  0  0  0  0  0  0  0
   32.0807    8.7278    7.3322 O   0  0  0  0  0  0  0  0  0  0  0  0
   32.0152   10.0356    7.0783 C   0  0  0  0  0  0  0  0  0  0  0  0
   32.7125   10.8070    6.1476 C   0  0  0  0  0  0  0  0  0  0  0  0
   33.6649   10.3022    5.2618 C   0  0  0  0  0  0  0  0  0  0  0  0
   34.1204    9.1646    5.2398 O   0  0  0  0  0  0  0  0  0  0  0  0
   32.2787   12.4681    6.2010 S   0  0  0  0  0  0  0  0  0  0  0  0
   31.1554   12.1955    7.4627 C   0  0  0  0  0  0  0  0  0  0  0  0
   30.2920   13.6268    8.0149 S   0  0  0  0  0  6  0  0  0  0  0  0
   28.9903   13.2747    8.9955 N   0  0  0  0  0  0  0  0  0  0  0  0
   31.2528   14.3760    8.7965 O   0  0  0  0  0  0  0  0  0  0  0  0
   29.6115   14.0813    6.8312 O   0  0  0  0  0  0  0  0  0  0  0  0
   31.0679   10.9015    7.8828 C   0  0  0  0  0  0  0  0  0  0  0  0
   30.2369   10.5595    8.8826 O   0  0  0  0  0  0  0  0  0  0  0  0
   29.1151    9.7335    8.6133 C   0  0  0  0  0  0  0  0  0  0  0  0
  1  2  1  0
  2  3  1  0
  3  4  2  0
  4  5  1  0
  5  6  2  0
  4  7  1  0
  7  8  1  0
  8  9  1  0
  9 10  1  0
  9 11  2  0
  9 12  2  0
  8 13  2  0
 13 14  1  0
 14 15  1  0
 13  3  1  0
A    1
 C1 
A    2
 O1 
A    3
 C2 
A    4
 C3 
A    5
 C4 
A    6
 O2 
A    7
 S1 
A    8
 C5 
A    9
 S2 
A   10
 N1 
A   11
 O3 
A   12
 O4 
A   13
 C6 
A   14
 O5 
A   15
 C7 
M  END
>  <ref_pdb>  (1404) 
Ax0310a

>  <ref_mols>  (1404) 
Ax0446a,Ax1080a,Ax0812a,Ax0719a,Ax1140a,Ax0528a,Ax0310a

>  <original SMILES>  (1404) 
COc1c(C=O)sc(S(N)(=O)=O)c1OC

>  <rationale>  (1404) 
info info set:sulfonimide_whole;hbond:S87+S125; 

>  <experiment>  (1404) 
sulfonimide_whole

>  <cluster_label>  (1404) 
3

>  <cluster_rank>  (1404) 
1061

>  <N_interactions>  (1404) 
2

>  <∆∆G>  (1404) 
-4.634166

>  <comRMSD>  (1404) 
0.564646

>  <ROCS_TanimotoCombo>  (1404) 
0.34

>  <ROCS_ShapeTanimoto>  (1404) 
0.196

>  <ROCS_ColorTanimoto>  (1404) 
0.145

$$$$
EN300_252023
     RDKit          3D

 10 10  0  0  0  0  0  0  0  0999 V2000
   34.0009   12.0561    4.8927 C   0  0  0  0  0  0  0  0  0  0  0  0
   33.1518   11.1460    5.7699 C   0  0  0  0  0  0  0  0  0  0  0  0
   32.1242   11.8417    6.5961 C   0  0  0  0  0  0  0  0  0  0  0  0
   31.2024   11.0577    7.5304 C   0  0  0  0  0  0  0  0  0  0  0  0
   30.1743   11.6015    8.3874 N   0  0  0  0  0  0  0  0  0  0  0  0
   31.4984    9.5447    7.4627 C   0  0  0  0  0  0  0  0  0  0  0  0
   30.7358    8.6733    8.2677 N   0  0  0  0  0  0  0  0  0  0  0  0
   32.4583    9.0010    6.6712 N   0  0  0  0  0  0  0  0  0  0  0  0
   33.2562    9.7697    5.8588 C   0  0  0  0  0  0  0  0  0  0  0  0
   34.3089    9.0507    5.0279 C   0  0  0  0  0  0  0  0  0  0  0  0
  1  2  1  0
  2  3  2  0
  3  4  1  0
  4  5  1  0
  4  6  2  0
  6  7  1  0
  6  8  1  0
  8  9  2  0
  9 10  1  0
  9  2  1  0
A    1
 C1 
A    2
 C2 
A    3
 C3 
A    4
 C4 
A    5
 N1 
A    6
 C5 
A    7
 N2 
A    8
 N3 
A    9
 C6 
A   10
 C7 
M  END
>  <ref_pdb>  (1405) 
Ax0310a

>  <ref_mols>  (1405) 
Ax0446a,Ax1080a,Ax0812a,Ax0719a,Ax1140a,Ax0528a,Ax0310a

>  <original SMILES>  (1405) 
Cc1cc(N)c(N)nc1C

>  <rationale>  (1405) 
info info set:bb_densepocket2;hbond:S105+S125; 

>  <experiment>  (1405) 
bb_densepocket2

>  <cluster_label>  (1405) 
3

>  <cluster_rank>  (1405) 
1062

>  <N_interactions>  (1405) 
2

>  <∆∆G>  (1405) 
-3.893908

>  <comRMSD>  (1405) 
0.280364

>  <ROCS_TanimotoCombo>  (1405) 
0.611

>  <ROCS_ShapeTanimoto>  (1405) 
0.217

>  <ROCS_ColorTanimoto>  (1405) 
0.395

$$$$
EN300_1144171
     RDKit          3D

 18 19  0  0  0  0  0  0  0  0999 V2000
   30.2021   10.2793    8.7269 N   0  0  0  0  0  0  0  0  0  0  0  0
   31.1025   10.1587    7.7577 C   0  0  0  0  0  0  0  0  0  0  0  0
   31.6997    8.9413    7.5224 N   0  0  0  0  0  0  0  0  0  0  0  0
   32.5875    8.9686    6.5149 N   0  0  0  0  0  0  0  0  0  0  0  0
   32.5298   10.2330    6.1248 C   0  0  0  0  0  0  0  0  0  0  0  0
   31.6391   11.0265    6.8414 C   0  0  0  0  0  0  0  0  0  0  0  0
   31.3330   12.6853    6.6011 S   0  0  0  0  0  6  0  0  0  0  0  0
   30.8399   13.2147    7.8416 O   0  0  0  0  0  0  0  0  0  0  0  0
   30.5219   12.8469    5.4328 O   0  0  0  0  0  0  0  0  0  0  0  0
   32.8769   13.4391    6.2395 C   0  0  0  0  0  0  0  0  0  0  0  0
   33.3041   13.5414    4.7558 C   0  0  0  0  0  0  0  0  0  0  0  0
   34.6621   14.2263    4.5431 C   0  0  0  0  0  0  0  0  0  0  0  0
   35.5305   14.7651    5.6845 C   0  0  0  0  0  0  0  0  0  0  0  0
   35.0063   14.5973    6.9624 C   0  0  0  0  0  0  0  0  0  0  0  0
   33.6728   13.9306    7.2458 C   0  0  0  0  0  0  0  0  0  0  0  0
   33.2706   13.8514    8.6341 N   0  0  0  0  0  4  0  0  0  0  0  0
   33.7304   12.9306    9.2737 O   0  0  0  0  0  0  0  0  0  0  0  0
   32.2441   14.4605    8.9636 O   0  0  0  0  0  1  0  0  0  0  0  0
  1  2  1  0
  2  3  1  0
  3  4  1  0
  4  5  2  0
  5  6  1  0
  6  7  1  0
  7  8  2  0
  7  9  2  0
  7 10  1  0
 10 11  2  0
 11 12  1  0
 12 13  2  0
 13 14  1  0
 14 15  2  0
 15 16  1  0
 16 17  2  0
 16 18  1  0
  6  2  2  0
 15 10  1  0
M  CHG  2  16   1  18  -1
A    1
 N1 
A    2
 C1 
A    3
 N2 
A    4
 N3 
A    5
 C2 
A    6
 C3 
A    7
 S1 
A    8
 O1 
A    9
 O2 
A   10
 C4 
A   11
 C5 
A   12
 C6 
A   13
 C7 
A   14
 C8 
A   15
 C9 
A   16
 N4 
A   17
 O3 
A   18
 O4 
M  END
>  <ref_pdb>  (1406) 
Ax0310a

>  <ref_mols>  (1406) 
Ax0446a,Ax1080a,Ax0812a,Ax0719a,Ax1140a,Ax0528a,Ax0310a

>  <original SMILES>  (1406) 
Nc1[nH]ncc1S(=O)(=O)c1ccccc1[N+](=O)[O-]

>  <rationale>  (1406) 
info info set:bb_whole;hbond:S125; hydroph_interaction:E85; 

>  <experiment>  (1406) 
bb_whole

>  <cluster_label>  (1406) 
3

>  <cluster_rank>  (1406) 
1063

>  <N_interactions>  (1406) 
2

>  <∆∆G>  (1406) 
-5.037043

>  <comRMSD>  (1406) 
0.62704

>  <ROCS_TanimotoCombo>  (1406) 
0.412

>  <ROCS_ShapeTanimoto>  (1406) 
0.195

>  <ROCS_ColorTanimoto>  (1406) 
0.216

$$$$
EN300_37468884
     RDKit          3D

 12 12  0  0  0  0  0  0  0  0999 V2000
   30.5706   13.6304    9.6955 N   0  0  0  0  0  0  0  0  0  0  0  0
   32.0073   13.8525    8.8826 S   0  0  0  0  0  6  0  0  0  0  0  0
   33.1307   13.0631    9.3127 O   0  0  0  0  0  0  0  0  0  0  0  0
   32.0181   15.2331    9.2459 O   0  0  0  0  0  0  0  0  0  0  0  0
   31.6417   13.2677    7.2433 C   0  0  0  0  0  0  0  0  0  0  0  0
   31.7659   11.7370    7.1841 C   0  0  0  0  0  0  0  0  0  0  0  0
   32.8465   11.2024    6.2485 C   0  0  0  0  0  0  0  0  0  0  0  0
   33.0358    9.8383    6.1562 C   0  0  0  0  0  0  0  0  0  0  0  0
   32.2707    8.9741    6.8986 N   0  0  0  0  0  0  0  0  0  0  0  0
   31.2753    9.4800    7.7507 C   0  0  0  0  0  0  0  0  0  0  0  0
   30.2777    8.2625    8.7380 Br  0  0  0  0  0  0  0  0  0  0  0  0
   31.0065   10.8366    7.9040 C   0  0  0  0  0  0  0  0  0  0  0  0
  1  2  1  0
  2  3  2  0
  2  4  2  0
  2  5  1  0
  5  6  1  0
  6  7  2  0
  7  8  1  0
  8  9  2  0
  9 10  1  0
 10 11  1  0
 10 12  2  0
 12  6  1  0
A    1
 N1 
A    2
 S1 
A    3
 O1 
A    4
 O2 
A    5
 C1 
A    6
 C2 
A    7
 C3 
A    8
 C4 
A    9
 N2 
A   10
 C5 
A   11
BR1 
A   12
 C6 
M  END
>  <ref_pdb>  (1407) 
Ax0310a

>  <ref_mols>  (1407) 
Ax0446a,Ax1080a,Ax0812a,Ax0719a,Ax1140a,Ax0528a,Ax0310a

>  <original SMILES>  (1407) 
NS(=O)(=O)Cc1ccnc(Br)c1

>  <rationale>  (1407) 
info info set:sulfonimide_whole;hbond:S87+S125+G127; 

>  <experiment>  (1407) 
sulfonimide_whole

>  <cluster_label>  (1407) 
3

>  <cluster_rank>  (1407) 
1064

>  <N_interactions>  (1407) 
3

>  <∆∆G>  (1407) 
-3.290407

>  <comRMSD>  (1407) 
0.414274

>  <ROCS_TanimotoCombo>  (1407) 
0.328

>  <ROCS_ShapeTanimoto>  (1407) 
0.177

>  <ROCS_ColorTanimoto>  (1407) 
0.151

$$$$
Z1000015046
     RDKit          3D

 15 15  0  0  0  0  0  0  0  0999 V2000
   30.4336    8.3713    9.2214 C   0  0  0  0  0  0  0  0  0  0  0  0
   30.2941    9.1785    8.0584 C   0  0  0  0  0  0  0  0  0  0  0  0
   31.5254    9.5647    7.3313 C   0  0  0  0  0  0  0  0  0  0  0  0
   32.3945    8.7069    6.7559 N   0  0  0  0  0  0  0  0  0  0  0  0
   33.3748    9.5273    6.2035 O   0  0  0  0  0  0  0  0  0  0  0  0
   33.0152   10.8729    6.5021 C   0  0  0  0  0  0  0  0  0  0  0  0
   34.0195   11.8873    5.9552 C   0  0  0  0  0  0  0  0  0  0  0  0
   31.8656   10.8640    7.1973 C   0  0  0  0  0  0  0  0  0  0  0  0
   31.0000   11.9012    7.7833 C   0  0  0  0  0  0  0  0  0  0  0  0
   30.1669   11.4427    8.7092 O   0  0  0  0  0  0  0  0  0  0  0  0
   30.9352   13.1947    7.4415 N   0  0  0  0  0  0  0  0  0  0  0  0
   30.2860   13.3147    6.1440 C   0  0  0  0  0  0  0  0  0  0  0  0
   30.3930   14.0481    8.5421 C   0  0  0  0  0  0  0  0  0  0  0  0
   29.1706   14.8388    8.0948 C   0  0  0  0  0  0  0  0  0  0  0  0
   28.2753   15.4353    7.7219 N   0  0  0  0  0  0  0  0  0  0  0  0
  1  2  1  0
  2  3  1  0
  3  4  2  0
  4  5  1  0
  5  6  1  0
  6  7  1  0
  6  8  2  0
  8  9  1  0
  9 10  2  0
  9 11  1  0
 11 12  1  0
 11 13  1  0
 13 14  1  0
 14 15  3  0
  8  3  1  0
A    1
 C1 
A    2
 C2 
A    3
 C3 
A    4
 N1 
A    5
 O1 
A    6
 C4 
A    7
 C5 
A    8
 C6 
A    9
 C7 
A   10
 O2 
A   11
 N2 
A   12
 C8 
A   13
 C9 
A   14
 C10
A   15
 N3 
M  END
>  <ref_pdb>  (1408) 
Ax0310a

>  <ref_mols>  (1408) 
Ax0446a,Ax1080a,Ax0812a,Ax0719a,Ax1140a,Ax0528a,Ax0310a

>  <original SMILES>  (1408) 
CCc1noc(C)c1C(=O)N(C)CC#N

>  <rationale>  (1408) 
info info set:screening_pocket;hydroph_interaction:V124; 

>  <experiment>  (1408) 
screening_pocket

>  <cluster_label>  (1408) 
3

>  <cluster_rank>  (1408) 
1065

>  <N_interactions>  (1408) 
1

>  <∆∆G>  (1408) 
-3.647454

>  <comRMSD>  (1408) 
0.662198

>  <ROCS_TanimotoCombo>  (1408) 
0.642

>  <ROCS_ShapeTanimoto>  (1408) 
0.212

>  <ROCS_ColorTanimoto>  (1408) 
0.43

$$$$
Z1255393169
     RDKit          3D

 12 12  0  0  0  0  0  0  0  0999 V2000
   30.5034   14.9349    9.6940 C   0  0  0  0  0  0  0  0  0  0  0  0
   30.2709   13.9655    8.5762 C   0  0  0  0  0  0  0  0  0  0  0  0
   31.3917   13.4824    7.9565 O   0  0  0  0  0  0  0  0  0  0  0  0
   30.9474   12.5913    7.0210 C   0  0  0  0  0  0  0  0  0  0  0  0
   30.1711   12.9308    6.1416 O   0  0  0  0  0  0  0  0  0  0  0  0
   31.3949   11.2639    7.0853 C   0  0  0  0  0  0  0  0  0  0  0  0
   32.3300   10.6703    6.2681 C   0  0  0  0  0  0  0  0  0  0  0  0
   32.9729   11.3707    5.2466 C   0  0  0  0  0  0  0  0  0  0  0  0
   32.6193    9.3764    6.4733 N   0  0  0  0  0  0  0  0  0  0  0  0
   31.7306    8.9891    7.4394 N   0  0  0  0  0  0  0  0  0  0  0  0
   31.0914   10.1112    7.9342 C   0  0  0  0  0  0  0  0  0  0  0  0
   30.3021   10.1317    9.0836 O   0  0  0  0  0  0  0  0  0  0  0  0
  1  2  1  0
  2  3  1  0
  3  4  1  0
  4  5  2  0
  4  6  1  0
  6  7  2  0
  7  8  1  0
  7  9  1  0
  9 10  2  0
 10 11  1  0
 11 12  2  0
 11  6  1  0
A    1
 C1 
A    2
 C2 
A    3
 O1 
A    4
 C3 
A    5
 O2 
A    6
 C4 
A    7
 C5 
A    8
 C6 
A    9
 N1 
A   10
 N2 
A   11
 C7 
A   12
 O3 
M  END
>  <ref_pdb>  (1409) 
Ax0310a

>  <ref_mols>  (1409) 
Ax0446a,Ax1080a,Ax0812a,Ax0719a,Ax1140a,Ax0528a,Ax0310a

>  <original SMILES>  (1409) 
CCOC(=O)C1=C(C)N=NC1=O

>  <rationale>  (1409) 
info info set:3d;hbond:S105; hydroph_interaction:P107; 

>  <experiment>  (1409) 
3d

>  <cluster_label>  (1409) 
3

>  <cluster_rank>  (1409) 
1066

>  <N_interactions>  (1409) 
2

>  <∆∆G>  (1409) 
-4.12331

>  <comRMSD>  (1409) 
0.720012

>  <ROCS_TanimotoCombo>  (1409) 
0.298

>  <ROCS_ShapeTanimoto>  (1409) 
0.171

>  <ROCS_ColorTanimoto>  (1409) 
0.126

$$$$
Z237731750
     RDKit          3D

 29 32  0  0  0  0  0  0  0  0999 V2000
   34.5139   15.0029    8.5687 C   0  0  0  0  0  0  0  0  0  0  0  0
   33.8396   13.7132    8.8246 C   0  0  0  0  0  0  0  0  0  0  0  0
   34.5493   12.7016    9.4483 O   0  0  0  0  0  0  0  0  0  0  0  0
   32.3719   13.4993    8.4254 C   0  0  0  0  0  0  0  0  0  0  0  0
   31.5537   13.9211    9.2147 O   0  0  0  0  0  0  0  0  0  0  0  0
   30.2762   14.2126    8.8170 C   0  0  0  0  0  0  0  0  0  0  0  0
   29.5782   15.4468    9.2279 C   0  0  0  0  0  0  0  0  0  0  0  0
   28.1426   15.7902    8.8003 C   0  0  0  0  0  0  0  0  0  0  0  0
   27.5251   14.7328    7.9157 C   0  0  0  0  0  0  0  0  0  0  0  0
   28.1580   13.6082    7.5367 C   0  0  0  0  0  0  0  0  0  0  0  0
   29.4385   13.3456    7.9470 C   0  0  0  0  0  0  0  0  0  0  0  0
   29.9211   12.1859    7.5226 N   0  0  0  0  0  0  0  0  0  0  0  0
   29.5135   11.0736    8.1327 C   0  0  0  0  0  0  0  0  0  0  0  0
   28.2425   11.0004    8.8524 C   0  0  0  0  0  0  0  0  0  0  0  0
   30.3528   10.0561    7.9945 C   0  0  0  0  0  0  0  0  0  0  0  0
   30.3192    8.6782    8.4950 C   0  0  0  0  0  0  0  0  0  0  0  0
   31.3029   10.6013    7.1733 N   0  0  0  0  0  0  0  0  0  0  0  0
   32.4067   10.3387    6.4888 C   0  0  0  0  0  0  0  0  0  0  0  0
   33.1443    9.1353    6.3143 C   0  0  0  0  0  0  0  0  0  0  0  0
   32.7316    8.1562    6.8748 O   0  0  0  0  0  0  0  0  0  0  0  0
   34.2720    9.3319    5.4701 N   0  0  0  0  0  0  0  0  0  0  0  0
   35.0173    8.3100    4.7789 C   0  0  0  0  0  0  0  0  0  0  0  0
   34.7366   10.5666    5.0467 C   0  0  0  0  0  0  0  0  0  0  0  0
   35.8768   10.6623    4.5881 O   0  0  0  0  0  0  0  0  0  0  0  0
   33.9009   11.6531    5.1376 N   0  0  0  0  0  0  0  0  0  0  0  0
   34.5134   12.9626    5.0901 C   0  0  0  0  0  0  0  0  0  0  0  0
   32.7801   11.5320    5.9007 C   0  0  0  0  0  0  0  0  0  0  0  0
   31.9238   12.5303    6.1610 N   0  0  0  0  0  0  0  0  0  0  0  0
   31.0490   11.9310    6.9078 C   0  0  0  0  0  0  0  0  0  0  0  0
  1  2  1  0
  2  3  2  0
  2  4  1  0
  4  5  1  0
  5  6  1  0
  6  7  2  0
  7  8  1  0
  8  9  2  0
  9 10  1  0
 10 11  2  0
 11 12  1  0
 12 13  1  0
 13 14  1  0
 13 15  2  0
 15 16  1  0
 15 17  1  0
 17 18  1  0
 18 19  1  0
 19 20  2  0
 19 21  1  0
 21 22  1  0
 21 23  1  0
 23 24  2  0
 23 25  1  0
 25 26  1  0
 25 27  1  0
 27 28  1  0
 28 29  2  0
 11  6  1  0
 29 12  1  0
 29 17  1  0
 27 18  2  0
A    1
 C1 
A    2
 C2 
A    3
 O1 
A    4
 C3 
A    5
 O2 
A    6
 C4 
A    7
 C5 
A    8
 C6 
A    9
 C7 
A   10
 C8 
A   11
 C9 
A   12
 N1 
A   13
 C10
A   14
 C11
A   15
 C12
A   16
 C13
A   17
 N2 
A   18
 C14
A   19
 C15
A   20
 O3 
A   21
 N3 
A   22
 C16
A   23
 C17
A   24
 O4 
A   25
 N4 
A   26
 C18
A   27
 C19
A   28
 N5 
A   29
 C20
M  END
>  <ref_pdb>  (1410) 
Ax0310a

>  <ref_mols>  (1410) 
Ax0446a,Ax1080a,Ax0812a,Ax0719a,Ax1140a,Ax0528a,Ax0310a

>  <original SMILES>  (1410) 
CC(=O)COc1ccccc1-n1c(C)c(C)n2c3c(=O)n(C)c(=O)n(C)c3nc12

>  <rationale>  (1410) 
info info set:screening_whole;hbond:S87+G127; hydroph_interaction:Y89+Y90+V124; 

>  <experiment>  (1410) 
screening_whole

>  <cluster_label>  (1410) 
3

>  <cluster_rank>  (1410) 
1067

>  <N_interactions>  (1410) 
5

>  <∆∆G>  (1410) 
-5.17082

>  <comRMSD>  (1410) 
0.756137

>  <ROCS_TanimotoCombo>  (1410) 
0.457

>  <ROCS_ShapeTanimoto>  (1410) 
0.311

>  <ROCS_ColorTanimoto>  (1410) 
0.146

$$$$
EN300_274087
     RDKit          3D

 13 13  0  0  0  0  0  0  0  0999 V2000
   30.3241   13.5274    8.1740 C   0  0  0  0  0  0  0  0  0  0  0  0
   31.4580   12.9532    7.3733 C   0  0  2  0  0  0  0  0  0  0  0  0
   31.5917   11.6033    7.3121 C   0  0  0  0  0  0  0  0  0  0  0  0
   30.8071   10.7875    8.1154 C   0  0  0  0  0  0  0  0  0  0  0  0
   31.0163    9.3356    8.0158 C   0  0  0  0  0  0  0  0  0  0  0  0
   31.9650    8.8366    7.1381 C   0  0  0  0  0  0  0  0  0  0  0  0
   32.7137    9.7125    6.3537 C   0  0  0  0  0  0  0  0  0  0  0  0
   34.0356    9.1654    5.1198 Br  0  0  0  0  0  0  0  0  0  0  0  0
   32.5246   11.0570    6.4448 C   0  0  0  0  0  0  0  0  0  0  0  0
   33.1039   13.5138    7.9349 S   0  0  0  0  0  6  0  0  0  0  0  0
   32.7100   14.5988    9.1359 N   0  0  0  0  0  0  0  0  0  0  0  0
   33.8140   14.1585    6.8548 O   0  0  0  0  0  0  0  0  0  0  0  0
   33.8078   12.6009    8.7480 O   0  0  0  0  0  0  0  0  0  0  0  0
  2  1  1  1
  2  3  1  0
  3  4  2  0
  4  5  1  0
  5  6  2  0
  6  7  1  0
  7  8  1  0
  7  9  2  0
  2 10  1  0
 10 11  1  0
 10 12  2  0
 10 13  2  0
  9  3  1  0
A    1
 C1 
A    2
 C2 
A    3
 C3 
A    4
 C4 
A    5
 C5 
A    6
 C6 
A    7
 C7 
A    8
BR1 
A    9
 C8 
A   10
 S1 
A   11
 N1 
A   12
 O1 
A   13
 O2 
M  END
>  <ref_pdb>  (1411) 
Ax0310a

>  <ref_mols>  (1411) 
Ax0446a,Ax1080a,Ax0812a,Ax0719a,Ax1140a,Ax0528a,Ax0310a

>  <original SMILES>  (1411) 
C[C@H](c1cccc(Br)c1)S(N)(=O)=O

>  <rationale>  (1411) 
info info set:sulfonimide_joint;hbond:S87+G127; 

>  <experiment>  (1411) 
sulfonimide_joint

>  <cluster_label>  (1411) 
3

>  <cluster_rank>  (1411) 
1068

>  <N_interactions>  (1411) 
3

>  <∆∆G>  (1411) 
-5.368087

>  <comRMSD>  (1411) 
0.796184

>  <ROCS_TanimotoCombo>  (1411) 
0.294

>  <ROCS_ShapeTanimoto>  (1411) 
0.17

>  <ROCS_ColorTanimoto>  (1411) 
0.124

$$$$
EN300_6722605
     RDKit          3D

 16 16  0  0  0  0  0  0  0  0999 V2000
   34.9742   13.8109    5.9513 C   0  0  0  0  0  0  0  0  0  0  0  0
   34.4790   14.6385    7.1159 C   0  0  0  0  0  0  0  0  0  0  0  0
   35.2798   14.6365    8.3466 N   0  0  0  0  0  0  0  0  0  0  0  0
   35.1120   13.5564    9.1592 C   0  0  0  0  0  0  0  0  0  0  0  0
   34.0089   13.0225    9.2532 O   0  0  0  0  0  0  0  0  0  0  0  0
   36.3554   13.0324    9.8718 C   0  0  0  0  0  0  0  0  0  0  0  0
   36.3721   11.8854   10.8505 C   0  0  0  0  0  0  0  0  0  0  0  0
   37.4513   11.2249   11.6265 C   0  0  0  0  0  0  0  0  0  0  0  0
   38.5879   12.0799   11.1134 C   0  0  0  0  0  0  0  0  0  0  0  0
   39.7471   11.7606   11.6119 N   0  0  0  0  0  0  0  0  0  0  0  0
   40.4291   12.8193   12.7120 S   0  0  0  0  0  6  0  0  0  0  0  0
   41.9406   12.0301   13.2147 C   0  0  0  0  0  0  0  0  0  0  0  0
   39.5948   12.8982   13.8757 O   0  0  0  0  0  0  0  0  0  0  0  0
   40.7873   13.9662   11.9109 O   0  0  0  0  0  0  0  0  0  0  0  0
   38.6252   13.1451   10.2056 C   0  0  0  0  0  0  0  0  0  0  0  0
   37.5179   13.6205    9.5874 C   0  0  0  0  0  0  0  0  0  0  0  0
  1  2  1  0
  2  3  1  0
  3  4  1  0
  4  5  2  0
  4  6  1  0
  6  7  2  0
  7  8  1  0
  8  9  2  0
  9 10  1  0
 10 11  1  0
 11 12  1  0
 11 13  2  0
 11 14  2  0
  9 15  1  0
 15 16  2  0
 16  6  1  0
A    1
 C1 
A    2
 C2 
A    3
 N1 
A    4
 C3 
A    5
 O1 
A    6
 C4 
A    7
 C5 
A    8
 C6 
A    9
 C7 
A   10
 N2 
A   11
 S1 
A   12
 C8 
A   13
 O2 
A   14
 O3 
A   15
 C9 
A   16
 C10
M  END
>  <ref_pdb>  (1412) 
Ax0310a

>  <ref_mols>  (1412) 
Ax0446a,Ax1080a,Ax0812a,Ax0719a,Ax1140a,Ax0528a,Ax0310a

>  <original SMILES>  (1412) 
CCNC(=O)c1ccc(NS(C)(=O)=O)cc1

>  <rationale>  (1412) 
info info set:sulfonimide_joint;hbond:G127+E85; hydroph_interaction:E85+L100; 

>  <experiment>  (1412) 
sulfonimide_joint

>  <cluster_label>  (1412) 
3

>  <cluster_rank>  (1412) 
1069

>  <N_interactions>  (1412) 
4

>  <∆∆G>  (1412) 
-4.031137

>  <comRMSD>  (1412) 
0.740511

>  <ROCS_TanimotoCombo>  (1412) 
0.298

>  <ROCS_ShapeTanimoto>  (1412) 
0.173

>  <ROCS_ColorTanimoto>  (1412) 
0.126

$$$$
Z3486763906
     RDKit          3D

 13 15  0  0  0  0  0  0  0  0999 V2000
   30.4100   13.7654    9.3987 N   0  0  0  0  0  0  0  0  0  0  0  0
   30.9949   13.3189    8.2179 C   0  0  2  0  0  0  0  0  0  0  0  0
   30.2847   12.4365    7.3502 C   0  0  0  0  0  0  0  0  0  0  0  0
   31.4403   11.7419    7.9001 C   0  0  2  0  0  0  0  0  0  0  0  0
   30.5386   10.5989    8.3872 C   0  0  0  0  0  0  0  0  0  0  0  0
   30.9319    9.7490    7.2408 C   0  0  0  0  0  0  0  0  0  0  0  0
   32.1788    9.0797    7.1850 C   0  0  0  0  0  0  0  0  0  0  0  0
   32.9246   10.1147    6.6435 C   0  0  0  0  0  0  0  0  0  0  0  0
   34.0526    9.7015    5.7063 C   0  0  0  0  0  0  0  0  0  0  0  0
   34.8908   10.8248    5.1174 C   0  0  0  0  0  0  0  0  0  0  0  0
   34.5447   12.2714    5.4960 C   0  0  0  0  0  0  0  0  0  0  0  0
   33.4808   12.5414    6.3551 C   0  0  0  0  0  0  0  0  0  0  0  0
   32.6126   11.4476    6.9689 C   0  0  0  0  0  0  0  0  0  0  0  0
  2  1  1  1
  2  3  1  0
  4  3  1  6
  4  5  1  0
  5  6  1  0
  6  7  1  0
  7  8  1  0
  8  9  2  0
  9 10  1  0
 10 11  2  0
 11 12  1  0
 12 13  2  0
  4  2  1  0
 13  8  1  0
 13  4  1  0
A    1
 N1 
A    2
 C1 
A    3
 C2 
A    4
 C3 
A    5
 C4 
A    6
 C5 
A    7
 C6 
A    8
 C7 
A    9
 C8 
A   10
 C9 
A   11
 C10
A   12
 C11
A   13
 C12
M  END
>  <ref_pdb>  (1413) 
Ax0310a

>  <ref_mols>  (1413) 
Ax0446a,Ax1080a,Ax0812a,Ax0719a,Ax1140a,Ax0528a,Ax0310a

>  <original SMILES>  (1413) 
N[C@@H]1C[C@]12CCCc1ccccc12

>  <rationale>  (1413) 
info info set:3d;hbond:S87+S125; 

>  <experiment>  (1413) 
3d

>  <cluster_label>  (1413) 
3

>  <cluster_rank>  (1413) 
1070

>  <N_interactions>  (1413) 
2

>  <∆∆G>  (1413) 
-0.862883

>  <comRMSD>  (1413) 
0.600131

>  <ROCS_TanimotoCombo>  (1413) 
0.293

>  <ROCS_ShapeTanimoto>  (1413) 
0.198

>  <ROCS_ColorTanimoto>  (1413) 
0.094

$$$$
EN300_82169
     RDKit          3D

 15 15  0  0  0  0  0  0  0  0999 V2000
   33.3738    8.7929    6.0320 C   0  0  0  0  0  0  0  0  0  0  0  0
   32.6680    9.9522    6.4749 C   0  0  0  0  0  0  0  0  0  0  0  0
   31.6104    9.6309    7.5278 C   0  0  0  0  0  0  0  0  0  0  0  0
   30.8491   10.8081    8.0052 C   0  0  0  0  0  0  0  0  0  0  0  0
   29.9545   10.5546    8.8880 F   0  0  0  0  0  0  0  0  0  0  0  0
   31.1254   12.1969    7.4697 C   0  0  0  0  0  0  0  0  0  0  0  0
   30.2287   13.5906    8.0061 S   0  0  0  0  0  6  0  0  0  0  0  0
   28.9271   13.1525    8.9230 N   0  0  0  0  0  0  0  0  0  0  0  0
   31.1128   14.3541    8.8616 O   0  0  0  0  0  0  0  0  0  0  0  0
   29.5783   14.0755    6.8213 O   0  0  0  0  0  0  0  0  0  0  0  0
   32.2125   12.3945    6.4207 C   0  0  0  0  0  0  0  0  0  0  0  0
   33.0341   11.2467    5.8761 C   0  0  0  0  0  0  0  0  0  0  0  0
   34.0780   11.3022    4.8695 N   0  0  0  0  0  4  0  0  0  0  0  0
   33.8315   10.6197    3.8645 O   0  0  0  0  0  0  0  0  0  0  0  0
   35.2231   11.5332    5.2649 O   0  0  0  0  0  1  0  0  0  0  0  0
  1  2  1  0
  2  3  2  0
  3  4  1  0
  4  5  1  0
  4  6  2  0
  6  7  1  0
  7  8  1  0
  7  9  2  0
  7 10  2  0
  6 11  1  0
 11 12  2  0
 12 13  1  0
 13 14  2  0
 13 15  1  0
 12  2  1  0
M  CHG  2  13   1  15  -1
A    1
 C1 
A    2
 C2 
A    3
 C3 
A    4
 C4 
A    5
 F1 
A    6
 C5 
A    7
 S1 
A    8
 N1 
A    9
 O1 
A   10
 O2 
A   11
 C6 
A   12
 C7 
A   13
 N2 
A   14
 O3 
A   15
 O4 
M  END
>  <ref_pdb>  (1414) 
Ax0310a

>  <ref_mols>  (1414) 
Ax0446a,Ax1080a,Ax0812a,Ax0719a,Ax1140a,Ax0528a,Ax0310a

>  <original SMILES>  (1414) 
Cc1cc(F)c(S(N)(=O)=O)cc1[N+](=O)[O-]

>  <rationale>  (1414) 
info info set:sulfonimide_whole;hbond:S87+S125; 

>  <experiment>  (1414) 
sulfonimide_whole

>  <cluster_label>  (1414) 
3

>  <cluster_rank>  (1414) 
1071

>  <N_interactions>  (1414) 
2

>  <∆∆G>  (1414) 
-2.261595

>  <comRMSD>  (1414) 
0.860226

>  <ROCS_TanimotoCombo>  (1414) 
0.335

>  <ROCS_ShapeTanimoto>  (1414) 
0.197

>  <ROCS_ColorTanimoto>  (1414) 
0.138

$$$$
Z2782126055
     RDKit          3D

 23 24  0  0  0  0  0  0  0  0999 V2000
   29.9029    8.4507    8.4490 C   0  0  0  0  0  0  0  0  0  0  0  0
   31.2722    8.4641    8.0189 N   0  0  0  0  0  0  0  0  0  0  0  0
   31.8497    9.4749    7.2200 C   0  0  0  0  0  0  0  0  0  0  0  0
   32.9485    9.0838    6.2551 C   0  0  0  0  0  0  0  0  0  0  0  0
   33.6259   10.0899    5.4037 C   0  0  0  0  0  0  0  0  0  0  0  0
   33.1731   11.5306    5.5413 C   0  0  0  0  0  0  0  0  0  0  0  0
   34.1320   12.2266    4.5141 C   0  0  0  0  0  0  0  0  0  0  0  0
   33.5489   13.2515    3.8465 F   0  0  0  0  0  0  0  0  0  0  0  0
   35.2356   12.7350    5.1242 F   0  0  0  0  0  0  0  0  0  0  0  0
   34.5953   11.3597    3.5735 F   0  0  0  0  0  0  0  0  0  0  0  0
   32.0871   11.9969    6.4659 C   0  0  0  0  0  0  0  0  0  0  0  0
   31.4893   10.8386    7.2684 C   0  0  0  0  0  0  0  0  0  0  0  0
   30.4303   11.3579    8.1559 C   0  0  0  0  0  0  0  0  0  0  0  0
   30.1950   10.5432    9.0042 O   0  0  0  0  0  0  0  0  0  0  0  0
   29.8021   12.5244    8.0028 N   0  0  0  0  0  0  0  0  0  0  0  0
   28.9375   12.7092    6.9790 C   0  0  0  0  0  0  0  0  0  0  0  0
   28.7274   14.1552    6.4836 C   0  0  0  0  0  0  0  0  0  0  0  0
   28.7266   15.3045    7.8402 S   0  0  0  0  0  6  0  0  0  0  0  0
   28.9912   16.6221    7.3606 O   0  0  0  0  0  0  0  0  0  0  0  0
   27.5186   15.0633    8.5621 O   0  0  0  0  0  0  0  0  0  0  0  0
   30.1216   14.7530    8.7930 C   0  0  1  0  0  0  0  0  0  0  0  0
   30.5920   15.5554   10.0027 C   0  0  0  0  0  0  0  0  0  0  0  0
   29.7772   13.4331    9.1430 C   0  0  0  0  0  0  0  0  0  0  0  0
  1  2  1  0
  2  3  1  0
  3  4  2  0
  4  5  1  0
  5  6  2  0
  6  7  1  0
  7  8  1  0
  7  9  1  0
  7 10  1  0
  6 11  1  0
 11 12  2  0
 12 13  1  0
 13 14  2  0
 13 15  1  0
 15 16  1  0
 16 17  1  0
 17 18  1  0
 18 19  2  0
 18 20  2  0
 18 21  1  0
 21 22  1  1
 21 23  1  0
 12  3  1  0
 23 15  1  0
A    1
 C1 
A    2
 N1 
A    3
 C2 
A    4
 C3 
A    5
 C4 
A    6
 C5 
A    7
 C6 
A    8
 F1 
A    9
 F2 
A   10
 F3 
A   11
 C7 
A   12
 C8 
A   13
 C9 
A   14
 O1 
A   15
 N2 
A   16
 C10
A   17
 C11
A   18
 S1 
A   19
 O2 
A   20
 O3 
A   21
 C12
A   22
 C13
A   23
 C14
M  END
>  <ref_pdb>  (1415) 
Ax0310a

>  <ref_mols>  (1415) 
Ax0446a,Ax1080a,Ax0812a,Ax0719a,Ax1140a,Ax0528a,Ax0310a

>  <original SMILES>  (1415) 
CNc1ccc(C(F)(F)F)cc1C(=O)N1CCS(=O)(=O)[C@@H](C)C1

>  <rationale>  (1415) 
info info set:screening_pocket;hbond:S105; hydroph_interaction:P107+Y90; 

>  <experiment>  (1415) 
screening_pocket

>  <cluster_label>  (1415) 
3

>  <cluster_rank>  (1415) 
1072

>  <N_interactions>  (1415) 
3

>  <∆∆G>  (1415) 
-4.543735

>  <comRMSD>  (1415) 
0.956143

>  <ROCS_TanimotoCombo>  (1415) 
0.624

>  <ROCS_ShapeTanimoto>  (1415) 
0.263

>  <ROCS_ColorTanimoto>  (1415) 
0.361

$$$$
Z55729778
     RDKit          3D

 24 27  0  0  0  0  0  0  0  0999 V2000
   28.9874    8.0275    8.3268 C   0  0  0  0  0  0  0  0  0  0  0  0
   29.0253    9.2398    9.0522 C   0  0  0  0  0  0  0  0  0  0  0  0
   30.4591    9.1517    9.0300 C   0  0  0  0  0  0  0  0  0  0  0  0
   30.9486    9.8973    7.9403 N   0  0  0  0  0  0  0  0  0  0  0  0
   30.8343   11.1642    8.2674 N   0  0  0  0  0  0  0  0  0  0  0  0
   31.6171   12.0338    7.8144 C   0  0  0  0  0  0  0  0  0  0  0  0
   31.2366   13.2854    8.3568 C   0  0  0  0  0  0  0  0  0  0  0  0
   31.8810   14.0367    9.2301 N   0  0  0  0  0  0  0  0  0  0  0  0
   31.1079   15.1464    9.4661 N   0  0  0  0  0  0  0  0  0  0  0  0
   30.0267   15.0320    8.7111 C   0  0  0  0  0  0  0  0  0  0  0  0
   30.0862   13.8584    8.0193 N   0  0  0  0  0  0  0  0  0  0  0  0
   29.1316   13.3012    7.0899 C   0  0  0  0  0  0  0  0  0  0  0  0
   27.7514   13.2190    7.6916 C   0  0  0  0  0  0  0  0  0  0  0  0
   27.2574   14.6240    7.7641 C   0  0  0  0  0  0  0  0  0  0  0  0
   27.6411   15.3827    9.0001 C   0  0  0  0  0  0  0  0  0  0  0  0
   28.9204   15.9796    8.5596 C   0  0  0  0  0  0  0  0  0  0  0  0
   32.6938   11.7245    6.8467 C   0  0  0  0  0  0  0  0  0  0  0  0
   33.5331   12.6530    6.2269 C   0  0  0  0  0  0  0  0  0  0  0  0
   34.5114   12.2254    5.3238 C   0  0  0  0  0  0  0  0  0  0  0  0
   34.6565   10.8713    5.0309 C   0  0  0  0  0  0  0  0  0  0  0  0
   33.8241    9.9383    5.6445 C   0  0  0  0  0  0  0  0  0  0  0  0
   32.8511   10.3734    6.5502 C   0  0  0  0  0  0  0  0  0  0  0  0
   31.9849    9.3947    7.2106 C   0  0  0  0  0  0  0  0  0  0  0  0
   32.2277    8.2119    7.1323 O   0  0  0  0  0  0  0  0  0  0  0  0
  1  2  1  0
  2  3  1  0
  3  4  1  0
  4  5  1  0
  5  6  2  0
  6  7  1  0
  7  8  2  0
  8  9  1  0
  9 10  2  0
 10 11  1  0
 11 12  1  0
 12 13  1  0
 13 14  1  0
 14 15  1  0
 15 16  1  0
  6 17  1  0
 17 18  2  0
 18 19  1  0
 19 20  2  0
 20 21  1  0
 21 22  2  0
 22 23  1  0
 23 24  2  0
 23  4  1  0
 11  7  1  0
 22 17  1  0
 16 10  1  0
A    1
 C1 
A    2
 C2 
A    3
 C3 
A    4
 N1 
A    5
 N2 
A    6
 C4 
A    7
 C5 
A    8
 N3 
A    9
 N4 
A   10
 C6 
A   11
 N5 
A   12
 C7 
A   13
 C8 
A   14
 C9 
A   15
 C10
A   16
 C11
A   17
 C12
A   18
 C13
A   19
 C14
A   20
 C15
A   21
 C16
A   22
 C17
A   23
 C18
A   24
 O1 
M  END
>  <ref_pdb>  (1416) 
Ax0310a

>  <ref_mols>  (1416) 
Ax0446a,Ax1080a,Ax0812a,Ax0719a,Ax1140a,Ax0528a,Ax0310a

>  <original SMILES>  (1416) 
CCCn1nc(-c2nnc3n2CCCCC3)c2ccccc2c1=O

>  <rationale>  (1416) 
info info set:screening_whole;hbond:S87; hydroph_interaction:Y89+Y90+V124+D109; 

>  <experiment>  (1416) 
screening_whole

>  <cluster_label>  (1416) 
3

>  <cluster_rank>  (1416) 
1073

>  <N_interactions>  (1416) 
5

>  <∆∆G>  (1416) 
-0.253802

>  <comRMSD>  (1416) 
0.536694

>  <ROCS_TanimotoCombo>  (1416) 
0.455

>  <ROCS_ShapeTanimoto>  (1416) 
0.271

>  <ROCS_ColorTanimoto>  (1416) 
0.184

$$$$
EN300_12606120
     RDKit          3D

 20 21  0  0  0  0  0  0  0  0999 V2000
   33.9102   13.5810    5.9905 C   0  0  0  0  0  0  0  0  0  0  0  0
   34.2025   13.8128    7.4345 C   0  0  0  0  0  0  0  0  0  0  0  0
   34.6397   15.0901    7.8854 C   0  0  0  0  0  0  0  0  0  0  0  0
   35.4051   13.2178    7.7944 O   0  0  0  0  0  0  0  0  0  0  0  0
   35.3097   13.3530    9.2298 B   0  0  0  0  0  0  0  0  0  0  0  0
   36.5672   12.8685   10.0987 C   0  0  0  0  0  0  0  0  0  0  0  0
   36.5197   12.8889   11.5095 C   0  0  0  0  0  0  0  0  0  0  0  0
   37.5489   12.4240   12.3013 C   0  0  0  0  0  0  0  0  0  0  0  0
   38.7639   11.8807   11.5533 C   0  0  0  0  0  0  0  0  0  0  0  0
   39.8638   11.3554   12.4137 C   0  0  0  0  0  0  0  0  0  0  0  0
   40.8493   12.6722   13.0528 S   0  0  0  0  0  6  0  0  0  0  0  0
   42.3895   11.9448   13.3516 N   0  0  0  0  0  0  0  0  0  0  0  0
   41.0694   13.6059   11.9773 O   0  0  0  0  0  0  0  0  0  0  0  0
   40.2702   13.0917   14.2940 O   0  0  0  0  0  0  0  0  0  0  0  0
   38.8604   11.8657   10.2258 C   0  0  0  0  0  0  0  0  0  0  0  0
   37.7006   12.4000    9.4312 C   0  0  0  0  0  0  0  0  0  0  0  0
   34.0044   12.6801    9.3522 O   0  0  0  0  0  0  0  0  0  0  0  0
   33.1720   13.1805    8.3833 C   0  0  0  0  0  0  0  0  0  0  0  0
   32.3750   12.1428    7.6068 C   0  0  0  0  0  0  0  0  0  0  0  0
   32.2620   14.1582    9.0943 C   0  0  0  0  0  0  0  0  0  0  0  0
  1  2  1  0
  2  3  1  0
  2  4  1  0
  4  5  1  0
  5  6  1  0
  6  7  2  0
  7  8  1  0
  8  9  2  0
  9 10  1  0
 10 11  1  0
 11 12  1  0
 11 13  2  0
 11 14  2  0
  9 15  1  0
 15 16  2  0
  5 17  1  0
 17 18  1  0
 18 19  1  0
 18 20  1  0
 18  2  1  0
 16  6  1  0
A    1
 C1 
A    2
 C2 
A    3
 C3 
A    4
 O1 
A    5
 B1 
A    6
 C4 
A    7
 C5 
A    8
 C6 
A    9
 C7 
A   10
 C8 
A   11
 S1 
A   12
 N1 
A   13
 O2 
A   14
 O3 
A   15
 C9 
A   16
 C10
A   17
 O4 
A   18
 C11
A   19
 C12
A   20
 C13
M  END
>  <ref_pdb>  (1417) 
Ax0310a

>  <ref_mols>  (1417) 
Ax0446a,Ax1080a,Ax0812a,Ax0719a,Ax1140a,Ax0528a,Ax0310a

>  <original SMILES>  (1417) 
CC1(C)OB(c2ccc(CS(N)(=O)=O)cc2)OC1(C)C

>  <rationale>  (1417) 
info info set:sulfonimide_joint;hbond:G127; hydroph_interaction:V84; 

>  <experiment>  (1417) 
sulfonimide_joint

>  <cluster_label>  (1417) 
3

>  <cluster_rank>  (1417) 
1074

>  <N_interactions>  (1417) 
2

>  <∆∆G>  (1417) 
-4.11227

>  <comRMSD>  (1417) 
0.745937

>  <ROCS_TanimotoCombo>  (1417) 
0.321

>  <ROCS_ShapeTanimoto>  (1417) 
0.221

>  <ROCS_ColorTanimoto>  (1417) 
0.1

$$$$
EN300_127394
     RDKit          3D

 12 12  0  0  0  0  0  0  0  0999 V2000
   28.7984    9.5120    8.8388 C   0  0  0  0  0  0  0  0  0  0  0  0
   30.0930    9.0883    8.4022 C   0  0  0  0  0  0  0  0  0  0  0  0
   30.7996    8.1152    9.2415 C   0  0  0  0  0  0  0  0  0  0  0  0
   30.8933   10.2883    8.1082 C   0  0  0  0  0  0  0  0  0  0  0  0
   30.7353   11.3814    8.6217 O   0  0  0  0  0  0  0  0  0  0  0  0
   31.9548   10.0479    7.0211 C   0  0  0  0  0  0  0  0  0  0  0  0
   31.9120   11.4684    6.4372 C   0  0  0  0  0  0  0  0  0  0  0  0
   32.8709   11.5719    5.3013 C   0  0  0  0  0  0  0  0  0  0  0  0
   33.6210   10.4535    4.9449 C   0  0  0  0  0  0  0  0  0  0  0  0
   34.4797   10.5316    3.9255 F   0  0  0  0  0  0  0  0  0  0  0  0
   33.4830    9.2459    5.6438 C   0  0  0  0  0  0  0  0  0  0  0  0
   32.6634    8.9742    6.6969 N   0  0  0  0  0  0  0  0  0  0  0  0
  1  2  1  0
  2  3  1  0
  2  4  1  0
  4  5  2  0
  4  6  1  0
  6  7  2  0
  7  8  1  0
  8  9  2  0
  9 10  1  0
  9 11  1  0
 11 12  2  0
 12  6  1  0
A    1
 C1 
A    2
 C2 
A    3
 C3 
A    4
 C4 
A    5
 O1 
A    6
 C5 
A    7
 C6 
A    8
 C7 
A    9
 C8 
A   10
 F1 
A   11
 C9 
A   12
 N1 
M  END
>  <ref_pdb>  (1418) 
Ax0310a

>  <ref_mols>  (1418) 
Ax0446a,Ax1080a,Ax0812a,Ax0719a,Ax1140a,Ax0528a,Ax0310a

>  <original SMILES>  (1418) 
CC(C)C(=O)c1ccc(F)cn1

>  <rationale>  (1418) 
info info set:bb_densepocket2;hydroph_interaction:P107; 

>  <experiment>  (1418) 
bb_densepocket2

>  <cluster_label>  (1418) 
3

>  <cluster_rank>  (1418) 
1075

>  <N_interactions>  (1418) 
1

>  <∆∆G>  (1418) 
-4.561602

>  <comRMSD>  (1418) 
0.677832

>  <ROCS_TanimotoCombo>  (1418) 
0.614

>  <ROCS_ShapeTanimoto>  (1418) 
0.199

>  <ROCS_ColorTanimoto>  (1418) 
0.415

$$$$
EN300_214630
     RDKit          3D

 15 16  0  0  0  0  0  0  0  0999 V2000
   34.7104   15.5627    3.9845 N   0  0  0  0  0  0  0  0  0  0  0  0
   35.7030   14.8256    5.1224 S   0  0  0  0  0  6  0  0  0  0  0  0
   35.4705   15.4242    6.4153 O   0  0  0  0  0  0  0  0  0  0  0  0
   36.9829   14.7585    4.4639 O   0  0  0  0  0  0  0  0  0  0  0  0
   34.7832   13.3426    5.0915 C   0  0  0  0  0  0  0  0  0  0  0  0
   34.9200   12.4796    3.8673 C   0  0  0  0  0  0  0  0  0  0  0  0
   33.9022   11.1557    4.1551 S   0  0  0  0  0  0  0  0  0  0  0  0
   33.4304   11.7954    5.7112 C   0  0  0  0  0  0  0  0  0  0  0  0
   32.4829   11.0712    6.5665 C   0  0  0  0  0  0  0  0  0  0  0  0
   32.5319    9.5949    6.5622 C   0  0  0  0  0  0  0  0  0  0  0  0
   31.6456    8.7087    7.3829 C   0  0  0  0  0  0  0  0  0  0  0  0
   30.7713    9.7067    8.1305 C   0  0  0  0  0  0  0  0  0  0  0  0
   30.7528   11.0847    8.1021 C   0  0  0  0  0  0  0  0  0  0  0  0
   31.6049   11.7749    7.3262 C   0  0  0  0  0  0  0  0  0  0  0  0
   33.9518   12.9343    6.0910 N   0  0  0  0  0  0  0  0  0  0  0  0
  1  2  1  0
  2  3  2  0
  2  4  2  0
  2  5  1  0
  5  6  2  0
  6  7  1  0
  7  8  1  0
  8  9  1  0
  9 10  2  0
 10 11  1  0
 11 12  2  0
 12 13  1  0
 13 14  2  0
  8 15  2  0
 15  5  1  0
 14  9  1  0
A    1
 N1 
A    2
 S1 
A    3
 O1 
A    4
 O2 
A    5
 C1 
A    6
 C2 
A    7
 S2 
A    8
 C3 
A    9
 C4 
A   10
 C5 
A   11
 C6 
A   12
 C7 
A   13
 C8 
A   14
 C9 
A   15
 N2 
M  END
>  <ref_pdb>  (1419) 
Ax0310a

>  <ref_mols>  (1419) 
Ax0446a,Ax1080a,Ax0812a,Ax0719a,Ax1140a,Ax0528a,Ax0310a

>  <original SMILES>  (1419) 
NS(=O)(=O)c1csc(-c2ccccc2)n1

>  <rationale>  (1419) 
info info set:sulfonimide_joint;

>  <experiment>  (1419) 
sulfonimide_joint

>  <cluster_label>  (1419) 
3

>  <cluster_rank>  (1419) 
1076

>  <N_interactions>  (1419) 
0

>  <∆∆G>  (1419) 
-5.655369

>  <comRMSD>  (1419) 
0.614423

>  <ROCS_TanimotoCombo>  (1419) 
0.305

>  <ROCS_ShapeTanimoto>  (1419) 
0.169

>  <ROCS_ColorTanimoto>  (1419) 
0.136

$$$$
Z4284179673
     RDKit          3D

 10 10  0  0  0  0  0  0  0  0999 V2000
   31.8975   14.1220    9.0451 O   0  0  0  0  0  0  0  0  0  0  0  0
   31.4910   13.5781    8.0258 C   0  0  0  0  0  0  0  0  0  0  0  0
   30.3652   13.6514    7.4594 O   0  0  0  0  0  1  0  0  0  0  0  0
   32.4771   12.6827    7.3065 C   0  0  0  0  0  0  0  0  0  0  0  0
   31.6484   11.5526    6.6767 C   0  0  1  0  0  0  0  0  0  0  0  0
   32.9693   10.8531    6.1546 C   0  0  0  0  0  0  0  0  0  0  0  0
   32.5357    9.4830    6.6474 C   0  0  0  0  0  0  0  0  0  0  0  0
   31.2919    9.4788    7.4787 C   0  0  0  0  0  0  0  0  0  0  0  0
   30.7552   10.7322    7.6435 C   0  0  1  0  0  0  0  0  0  0  0  0
   30.9151   10.9368    8.7796 O   0  0  0  0  0  0  0  0  0  0  0  0
  1  2  2  0
  2  3  1  0
  2  4  1  0
  5  4  1  1
  5  6  1  0
  6  7  1  0
  7  8  2  0
  8  9  1  0
  9 10  1  1
  9  5  1  0
M  CHG  1   3  -1
A    1
 O1 
A    2
 C1 
A    3
 O2 
A    4
 C2 
A    5
 C3 
A    6
 C4 
A    7
 C5 
A    8
 C6 
A    9
 C7 
A   10
 O3 
M  END
>  <ref_pdb>  (1420) 
Ax0310a

>  <ref_mols>  (1420) 
Ax0446a,Ax1080a,Ax0812a,Ax0719a,Ax1140a,Ax0528a,Ax0310a

>  <original SMILES>  (1420) 
O=C([O-])C[C@H]1CC=C[C@H]1O

>  <rationale>  (1420) 
info info set:3d;hbond:S87+S125; hydroph_interaction:P107; 

>  <experiment>  (1420) 
3d

>  <cluster_label>  (1420) 
3

>  <cluster_rank>  (1420) 
1077

>  <N_interactions>  (1420) 
3

>  <∆∆G>  (1420) 
-0.27295

>  <comRMSD>  (1420) 
0.602359

>  <ROCS_TanimotoCombo>  (1420) 
0.298

>  <ROCS_ShapeTanimoto>  (1420) 
0.161

>  <ROCS_ColorTanimoto>  (1420) 
0.137

$$$$
Z1801642779
     RDKit          3D

 19 21  0  0  0  0  0  0  0  0999 V2000
   35.2550    7.6656    3.5908 C   0  0  0  0  0  0  0  0  0  0  0  0
   34.3538    8.8774    3.6380 C   0  0  0  0  0  0  0  0  0  0  0  0
   34.3842    9.5484    5.2904 S   0  0  0  0  0  6  0  0  0  0  0  0
   35.4149   10.5445    5.1945 O   0  0  0  0  0  0  0  0  0  0  0  0
   34.5260    8.4528    6.1698 O   0  0  0  0  0  0  0  0  0  0  0  0
   33.0157   10.4631    5.9692 C   0  0  0  0  0  0  0  0  0  0  0  0
   32.0192    9.8628    6.9788 C   0  0  0  0  0  0  0  0  0  0  0  0
   31.0063   10.8015    7.4360 C   0  0  0  0  0  0  0  0  0  0  0  0
   30.9195   12.1200    7.0099 C   0  0  0  0  0  0  0  0  0  0  0  0
   29.9700   13.0383    7.4270 N   0  0  0  0  0  0  0  0  0  0  0  0
   28.6670   13.1348    6.7906 C   0  0  0  0  0  0  0  0  0  0  0  0
   27.8210   14.1445    7.5724 C   0  0  0  0  0  0  0  0  0  0  0  0
   28.5543   15.2463    8.3570 C   0  0  0  0  0  0  0  0  0  0  0  0
   29.6535   14.7762    9.0832 C   0  0  0  0  0  0  0  0  0  0  0  0
   30.5293   15.5196    9.7267 C   0  0  0  0  0  0  0  0  0  0  0  0
   29.8055   15.0693   10.6932 C   0  0  0  0  0  0  0  0  0  0  0  0
   29.8824   13.3328    8.8187 C   0  0  0  0  0  0  0  0  0  0  0  0
   31.8692   12.5662    6.0899 C   0  0  0  0  0  0  0  0  0  0  0  0
   32.8847   11.7793    5.5804 C   0  0  0  0  0  0  0  0  0  0  0  0
  1  2  1  0
  2  3  1  0
  3  4  2  0
  3  5  2  0
  3  6  1  0
  6  7  2  0
  7  8  1  0
  8  9  2  0
  9 10  1  0
 10 11  1  0
 11 12  1  0
 12 13  1  0
 13 14  1  0
 14 15  1  0
 15 16  1  0
 14 17  1  0
  9 18  1  0
 18 19  2  0
 19  6  1  0
 17 10  1  0
 16 14  1  0
A    1
 C1 
A    2
 C2 
A    3
 S1 
A    4
 O1 
A    5
 O2 
A    6
 C3 
A    7
 C4 
A    8
 C5 
A    9
 C6 
A   10
 N1 
A   11
 C7 
A   12
 C8 
A   13
 C9 
A   14
 C10
A   15
 C11
A   16
 C12
A   17
 C13
A   18
 C14
A   19
 C15
M  END
>  <ref_pdb>  (1421) 
Ax0310a

>  <ref_mols>  (1421) 
Ax0446a,Ax1080a,Ax0812a,Ax0719a,Ax1140a,Ax0528a,Ax0310a

>  <original SMILES>  (1421) 
CCS(=O)(=O)c1ccc(N2CCCC3(CC3)C2)cc1

>  <rationale>  (1421) 
info info set:3d;hydroph_interaction:P107+Y89+Y90; 

>  <experiment>  (1421) 
3d

>  <cluster_label>  (1421) 
3

>  <cluster_rank>  (1421) 
1078

>  <N_interactions>  (1421) 
3

>  <∆∆G>  (1421) 
-4.779028

>  <comRMSD>  (1421) 
0.818549

>  <ROCS_TanimotoCombo>  (1421) 
0.283

>  <ROCS_ShapeTanimoto>  (1421) 
0.208

>  <ROCS_ColorTanimoto>  (1421) 
0.075

$$$$
EN300_801016
     RDKit          3D

 14 15  0  0  0  0  0  0  0  0999 V2000
   29.3394    8.3343    8.4166 C   0  0  0  0  0  0  0  0  0  0  0  0
   30.5972    7.7511    8.4529 C   0  0  0  0  0  0  0  0  0  0  0  0
   31.2898    8.9086    8.6223 C   0  0  0  0  0  0  0  0  0  0  0  0
   31.7436    9.7405    7.4771 C   0  0  0  0  0  0  0  0  0  0  0  0
   32.6021    9.1042    6.6574 N   0  0  0  0  0  0  0  0  0  0  0  0
   33.0782    9.7855    5.6160 C   0  0  0  0  0  0  0  0  0  0  0  0
   34.0753    9.1242    4.6171 C   0  0  0  0  0  0  0  0  0  0  0  0
   34.6075    9.8542    3.4456 C   0  0  0  0  0  0  0  0  0  0  0  0
   34.1101   11.2908    3.3000 C   0  0  0  0  0  0  0  0  0  0  0  0
   33.2196   11.8262    4.2436 C   0  0  0  0  0  0  0  0  0  0  0  0
   32.7163   11.1155    5.3582 C   0  0  0  0  0  0  0  0  0  0  0  0
   31.8281   11.7381    6.2327 C   0  0  0  0  0  0  0  0  0  0  0  0
   31.3317   11.0487    7.3063 C   0  0  0  0  0  0  0  0  0  0  0  0
   30.4691   11.7381    8.1155 O   0  0  0  0  0  0  0  0  0  0  0  0
  1  2  1  0
  2  3  1  0
  3  4  1  0
  4  5  2  0
  5  6  1  0
  6  7  2  0
  7  8  1  0
  8  9  2  0
  9 10  1  0
 10 11  2  0
 11 12  1  0
 12 13  2  0
 13 14  1  0
 13  4  1  0
 11  6  1  0
A    1
 C1 
A    2
 C2 
A    3
 C3 
A    4
 C4 
A    5
 N1 
A    6
 C5 
A    7
 C6 
A    8
 C7 
A    9
 C8 
A   10
 C9 
A   11
 C10
A   12
 C11
A   13
 C12
A   14
 O1 
M  END
>  <ref_pdb>  (1422) 
Ax0310a

>  <ref_mols>  (1422) 
Ax0446a,Ax1080a,Ax0812a,Ax0719a,Ax1140a,Ax0528a,Ax0310a

>  <original SMILES>  (1422) 
CCCc1nc2ccccc2cc1O

>  <rationale>  (1422) 
info info set:bb_densepocket2;hbond:S125+G127; hydroph_interaction:P107+V124; 

>  <experiment>  (1422) 
bb_densepocket2

>  <cluster_label>  (1422) 
3

>  <cluster_rank>  (1422) 
1079

>  <N_interactions>  (1422) 
4

>  <∆∆G>  (1422) 
-0.458343

>  <comRMSD>  (1422) 
0.840894

>  <ROCS_TanimotoCombo>  (1422) 
0.61

>  <ROCS_ShapeTanimoto>  (1422) 
0.201

>  <ROCS_ColorTanimoto>  (1422) 
0.408

$$$$
EN300_155501
     RDKit          3D

 14 14  0  0  0  0  0  0  0  0999 V2000
   28.9157   14.2979    9.6100 C   0  0  0  0  0  0  0  0  0  0  0  0
   29.2555   13.1588    8.9172 N   0  0  0  0  0  0  0  0  0  0  0  0
   30.5325   13.2359    7.8613 S   0  0  0  0  0  6  0  0  0  0  0  0
   31.5408   14.0455    8.4871 O   0  0  0  0  0  0  0  0  0  0  0  0
   29.8683   13.5843    6.6179 O   0  0  0  0  0  0  0  0  0  0  0  0
   31.2652   11.6381    7.5474 C   0  0  0  0  0  0  0  0  0  0  0  0
   30.5228   10.4059    7.8443 C   0  0  0  0  0  0  0  0  0  0  0  0
   31.0881    9.1873    7.5350 C   0  0  0  0  0  0  0  0  0  0  0  0
   32.3323    9.1315    6.9428 C   0  0  0  0  0  0  0  0  0  0  0  0
   33.0442   10.2987    6.6883 C   0  0  0  0  0  0  0  0  0  0  0  0
   32.5300   11.5472    7.0088 C   0  0  0  0  0  0  0  0  0  0  0  0
   33.2030   12.6932    6.8412 N   0  0  0  0  0  4  0  0  0  0  0  0
   33.7717   12.9924    7.9170 O   0  0  0  0  0  0  0  0  0  0  0  0
   33.6509   12.9484    5.7238 O   0  0  0  0  0  1  0  0  0  0  0  0
  1  2  1  0
  2  3  1  0
  3  4  2  0
  3  5  2  0
  3  6  1  0
  6  7  2  0
  7  8  1  0
  8  9  2  0
  9 10  1  0
 10 11  2  0
 11 12  1  0
 12 13  2  0
 12 14  1  0
 11  6  1  0
M  CHG  2  12   1  14  -1
A    1
 C1 
A    2
 N1 
A    3
 S1 
A    4
 O1 
A    5
 O2 
A    6
 C2 
A    7
 C3 
A    8
 C4 
A    9
 C5 
A   10
 C6 
A   11
 C7 
A   12
 N2 
A   13
 O3 
A   14
 O4 
M  END
>  <ref_pdb>  (1423) 
Ax0310a

>  <ref_mols>  (1423) 
Ax0446a,Ax1080a,Ax0812a,Ax0719a,Ax1140a,Ax0528a,Ax0310a

>  <original SMILES>  (1423) 
CNS(=O)(=O)c1ccccc1[N+](=O)[O-]

>  <rationale>  (1423) 
info info set:sulfonimide_whole;hbond:S87; 

>  <experiment>  (1423) 
sulfonimide_whole

>  <cluster_label>  (1423) 
3

>  <cluster_rank>  (1423) 
1080

>  <N_interactions>  (1423) 
1

>  <∆∆G>  (1423) 
-5.569559

>  <comRMSD>  (1423) 
0.707138

>  <ROCS_TanimotoCombo>  (1423) 
0.332

>  <ROCS_ShapeTanimoto>  (1423) 
0.192

>  <ROCS_ColorTanimoto>  (1423) 
0.14

$$$$
EN300_26870847
     RDKit          3D

 13 13  0  0  0  0  0  0  0  0999 V2000
   30.0553   10.5571    9.0388 O   0  0  0  0  0  0  0  0  0  0  0  0
   30.3186   11.2553    8.1063 C   0  0  0  0  0  0  0  0  0  0  0  0
   31.4497   10.7918    7.2197 C   0  0  0  0  0  0  0  0  0  0  0  0
   32.2180   11.8207    6.3929 C   0  0  0  0  0  0  0  0  0  0  0  0
   33.3325   11.1226    5.5546 C   0  0  0  0  0  0  0  0  0  0  0  0
   33.4548    9.5791    5.7047 C   0  0  0  0  0  0  0  0  0  0  0  0
   32.7178    8.7770    6.4725 N   0  0  0  0  0  0  0  0  0  0  0  0
   31.7818    9.3383    7.1819 C   0  0  0  0  0  0  0  0  0  0  0  0
   30.9414    8.5613    8.0370 O   0  0  0  0  0  0  0  0  0  0  0  0
   29.6424   12.5671    7.6048 C   0  0  0  0  0  0  0  0  0  0  0  0
   30.0449   13.6735    8.2842 F   0  0  0  0  0  0  0  0  0  0  0  0
   28.2963   12.5399    7.7410 F   0  0  0  0  0  0  0  0  0  0  0  0
   29.8572   12.8104    6.2901 F   0  0  0  0  0  0  0  0  0  0  0  0
  1  2  2  0
  2  3  1  0
  3  4  2  0
  4  5  1  0
  5  6  2  0
  6  7  1  0
  7  8  2  0
  8  9  1  0
  2 10  1  0
 10 11  1  0
 10 12  1  0
 10 13  1  0
  8  3  1  0
A    1
 O1 
A    2
 C1 
A    3
 C2 
A    4
 C3 
A    5
 C4 
A    6
 C5 
A    7
 N1 
A    8
 C6 
A    9
 O2 
A   10
 C7 
A   11
 F1 
A   12
 F2 
A   13
 F3 
M  END
>  <ref_pdb>  (1424) 
Ax0310a

>  <ref_mols>  (1424) 
Ax0446a,Ax1080a,Ax0812a,Ax0719a,Ax1140a,Ax0528a,Ax0310a

>  <original SMILES>  (1424) 
O=C(c1cccnc1O)C(F)(F)F

>  <rationale>  (1424) 
info info set:bb_densepocket2;hydroph_interaction:P107; 

>  <experiment>  (1424) 
bb_densepocket2

>  <cluster_label>  (1424) 
3

>  <cluster_rank>  (1424) 
1081

>  <N_interactions>  (1424) 
1

>  <∆∆G>  (1424) 
-0.110403

>  <comRMSD>  (1424) 
0.532839

>  <ROCS_TanimotoCombo>  (1424) 
0.616

>  <ROCS_ShapeTanimoto>  (1424) 
0.235

>  <ROCS_ColorTanimoto>  (1424) 
0.38

$$$$
EN300_214628
     RDKit          3D

 15 16  0  0  0  0  0  0  0  0999 V2000
   35.2651   14.7573    6.9786 N   0  0  0  0  0  0  0  0  0  0  0  0
   35.0252   13.9219    5.5297 S   0  0  0  0  0  6  0  0  0  0  0  0
   34.1708   14.7094    4.6839 O   0  0  0  0  0  0  0  0  0  0  0  0
   36.3558   13.5004    5.1425 O   0  0  0  0  0  0  0  0  0  0  0  0
   34.1127   12.4751    5.9329 C   0  0  0  0  0  0  0  0  0  0  0  0
   34.5657   11.2159    5.5211 C   0  0  0  0  0  0  0  0  0  0  0  0
   33.8403   10.0708    5.9007 C   0  0  0  0  0  0  0  0  0  0  0  0
   32.6948   10.2086    6.6843 C   0  0  0  0  0  0  0  0  0  0  0  0
   32.0390    9.1111    7.0960 N   0  0  0  0  0  0  0  0  0  0  0  0
   30.9695    9.3599    7.8716 C   0  0  0  0  0  0  0  0  0  0  0  0
   30.1265    8.0506    8.5144 Cl  0  0  0  0  0  0  0  0  0  0  0  0
   30.5432   10.6302    8.1792 C   0  0  0  0  0  0  0  0  0  0  0  0
   31.1727   11.7212    7.7659 N   0  0  0  0  0  0  0  0  0  0  0  0
   32.2574   11.5100    7.0439 C   0  0  0  0  0  0  0  0  0  0  0  0
   32.9642   12.6095    6.6673 C   0  0  0  0  0  0  0  0  0  0  0  0
  1  2  1  0
  2  3  2  0
  2  4  2  0
  2  5  1  0
  5  6  2  0
  6  7  1  0
  7  8  2  0
  8  9  1  0
  9 10  2  0
 10 11  1  0
 10 12  1  0
 12 13  2  0
 13 14  1  0
 14 15  2  0
 15  5  1  0
 14  8  1  0
A    1
 N1 
A    2
 S1 
A    3
 O1 
A    4
 O2 
A    5
 C1 
A    6
 C2 
A    7
 C3 
A    8
 C4 
A    9
 N2 
A   10
 C5 
A   11
CL1 
A   12
 C6 
A   13
 N3 
A   14
 C7 
A   15
 C8 
M  END
>  <ref_pdb>  (1425) 
Ax0310a

>  <ref_mols>  (1425) 
Ax0446a,Ax1080a,Ax0812a,Ax0719a,Ax1140a,Ax0528a,Ax0310a

>  <original SMILES>  (1425) 
NS(=O)(=O)c1ccc2nc(Cl)cnc2c1

>  <rationale>  (1425) 
info info set:sulfonimide_whole;hbond:G127; 

>  <experiment>  (1425) 
sulfonimide_whole

>  <cluster_label>  (1425) 
3

>  <cluster_rank>  (1425) 
1082

>  <N_interactions>  (1425) 
2

>  <∆∆G>  (1425) 
-3.857168

>  <comRMSD>  (1425) 
0.785324

>  <ROCS_TanimotoCombo>  (1425) 
0.328

>  <ROCS_ShapeTanimoto>  (1425) 
0.177

>  <ROCS_ColorTanimoto>  (1425) 
0.15

$$$$
EN300_25100522
     RDKit          3D

 13 13  0  0  0  0  0  0  0  0999 V2000
   28.7560   13.7784    8.2270 C   0  0  0  0  0  0  0  0  0  0  0  0
   30.2494   13.7892    8.6406 C   0  0  0  0  0  0  0  0  0  0  0  0
   31.0349   12.9296    7.7918 O   0  0  0  0  0  0  0  0  0  0  0  0
   30.7420   11.6110    7.9660 C   0  0  0  0  0  0  0  0  0  0  0  0
   29.8352   11.2275    8.6318 O   0  0  0  0  0  0  0  0  0  0  0  0
   31.6333   10.6117    7.2613 C   0  0  0  0  0  0  0  0  0  0  0  0
   32.5232   11.0550    6.1598 C   0  0  0  0  0  0  0  0  0  0  0  0
   33.2358    9.9154    5.6886 N   0  0  0  0  0  0  0  0  0  0  0  0
   34.2164    9.7937    4.6509 C   0  0  0  0  0  0  0  0  0  0  0  0
   32.8473    8.8403    6.4085 N   0  0  0  0  0  0  0  0  0  0  0  0
   31.9183    9.2207    7.3400 C   0  0  0  0  0  0  0  0  0  0  0  0
   31.3624    8.3697    8.2296 N   0  0  0  0  0  0  0  0  0  0  0  0
   29.9842    8.4380    8.5500 C   0  0  0  0  0  0  0  0  0  0  0  0
  1  2  1  0
  2  3  1  0
  3  4  1  0
  4  5  2  0
  4  6  1  0
  6  7  2  0
  7  8  1  0
  8  9  1  0
  8 10  1  0
 10 11  2  0
 11 12  1  0
 12 13  1  0
 11  6  1  0
A    1
 C1 
A    2
 C2 
A    3
 O1 
A    4
 C3 
A    5
 O2 
A    6
 C4 
A    7
 C5 
A    8
 N1 
A    9
 C6 
A   10
 N2 
A   11
 C7 
A   12
 N3 
A   13
 C8 
M  END
>  <ref_pdb>  (1426) 
Ax0310a

>  <ref_mols>  (1426) 
Ax0446a,Ax1080a,Ax0812a,Ax0719a,Ax1140a,Ax0528a,Ax0310a

>  <original SMILES>  (1426) 
CCOC(=O)c1cn(C)nc1NC

>  <rationale>  (1426) 
info info set:bb_densepocket2;hbond:S105; 

>  <experiment>  (1426) 
bb_densepocket2

>  <cluster_label>  (1426) 
3

>  <cluster_rank>  (1426) 
1083

>  <N_interactions>  (1426) 
1

>  <∆∆G>  (1426) 
-6.275678

>  <comRMSD>  (1426) 
0.657197

>  <ROCS_TanimotoCombo>  (1426) 
0.615

>  <ROCS_ShapeTanimoto>  (1426) 
0.228

>  <ROCS_ColorTanimoto>  (1426) 
0.387

$$$$
Z829353558
     RDKit          3D

 18 19  0  0  0  0  0  0  0  0999 V2000
   27.3868   14.0396    6.2651 C   0  0  0  0  0  0  0  0  0  0  0  0
   28.2787   14.7227    7.2730 C   0  0  0  0  0  0  0  0  0  0  0  0
   28.5724   16.0035    7.4925 N   0  0  0  0  0  0  0  0  0  0  0  0
   29.4355   16.0852    8.5536 O   0  0  0  0  0  0  0  0  0  0  0  0
   29.6849   14.8358    8.9623 C   0  0  0  0  0  0  0  0  0  0  0  0
   30.6638   14.7493   10.1385 C   0  0  0  0  0  0  0  0  0  0  0  0
   28.9598   14.0154    8.1630 C   0  0  0  0  0  0  0  0  0  0  0  0
   28.9638   12.5766    8.2891 C   0  0  0  0  0  0  0  0  0  0  0  0
   30.3387   12.2977    8.2609 N   0  0  0  0  0  0  0  0  0  0  0  0
   30.7005   11.0578    8.2462 C   0  0  0  0  0  0  0  0  0  0  0  0
   30.2632   10.0483    9.0360 O   0  0  0  0  0  0  0  0  0  0  0  0
   31.7046   10.5392    7.2946 C   0  0  0  0  0  0  0  0  0  0  0  0
   32.3678   11.4890    6.5695 C   0  0  0  0  0  0  0  0  0  0  0  0
   33.4223   10.9787    5.5814 C   0  0  0  0  0  0  0  0  0  0  0  0
   33.5417    9.4282    5.5913 C   0  0  0  0  0  0  0  0  0  0  0  0
   32.7994    8.6455    6.3787 N   0  0  0  0  0  0  0  0  0  0  0  0
   31.9256    9.2203    7.1841 C   0  0  0  0  0  0  0  0  0  0  0  0
   31.2203    8.3514    7.9445 O   0  0  0  0  0  0  0  0  0  0  0  0
  1  2  1  0
  2  3  2  0
  3  4  1  0
  4  5  1  0
  5  6  1  0
  5  7  2  0
  7  8  1  0
  8  9  1  0
  9 10  1  0
 10 11  2  0
 10 12  1  0
 12 13  2  0
 13 14  1  0
 14 15  2  0
 15 16  1  0
 16 17  2  0
 17 18  1  0
  7  2  1  0
 17 12  1  0
A    1
 C1 
A    2
 C2 
A    3
 N1 
A    4
 O1 
A    5
 C3 
A    6
 C4 
A    7
 C5 
A    8
 C6 
A    9
 N2 
A   10
 C7 
A   11
 O2 
A   12
 C8 
A   13
 C9 
A   14
 C10
A   15
 C11
A   16
 N3 
A   17
 C12
A   18
 O3 
M  END
>  <ref_pdb>  (1427) 
Ax0310a

>  <ref_mols>  (1427) 
Ax0446a,Ax1080a,Ax0812a,Ax0719a,Ax1140a,Ax0528a,Ax0310a

>  <original SMILES>  (1427) 
Cc1noc(C)c1CNC(=O)c1cccnc1O

>  <rationale>  (1427) 
info info set:screening_pocket;hbond:Y90; hydroph_interaction:Y89+T126; 

>  <experiment>  (1427) 
screening_pocket

>  <cluster_label>  (1427) 
3

>  <cluster_rank>  (1427) 
1084

>  <N_interactions>  (1427) 
3

>  <∆∆G>  (1427) 
-3.102761

>  <comRMSD>  (1427) 
0.571592

>  <ROCS_TanimotoCombo>  (1427) 
0.631

>  <ROCS_ShapeTanimoto>  (1427) 
0.235

>  <ROCS_ColorTanimoto>  (1427) 
0.395

$$$$
EN300_66984
     RDKit          3D

 13 13  0  0  0  0  0  0  0  0999 V2000
   28.8838   14.1834    9.0486 C   0  0  0  0  0  0  0  0  0  0  0  0
   30.3762   13.6446    8.2403 S   0  0  0  0  0  6  0  0  0  0  0  0
   30.1441   13.6411    6.8173 O   0  0  0  0  0  0  0  0  0  0  0  0
   31.5152   14.2768    8.8748 O   0  0  0  0  0  0  0  0  0  0  0  0
   30.3775   12.0306    8.5741 N   0  0  0  0  0  0  0  0  0  0  0  0
   31.1364   11.1369    7.8841 C   0  0  0  0  0  0  0  0  0  0  0  0
   30.9055    9.6522    8.0600 C   0  0  0  0  0  0  0  0  0  0  0  0
   31.7074    8.8089    7.3231 C   0  0  0  0  0  0  0  0  0  0  0  0
   32.7676    9.2665    6.3831 C   0  0  0  0  0  0  0  0  0  0  0  0
   32.9228   10.6271    6.2828 C   0  0  0  0  0  0  0  0  0  0  0  0
   34.0435   11.0385    5.3108 C   0  0  0  0  0  0  0  0  0  0  0  0
   34.8546   10.2204    4.8900 O   0  0  0  0  0  0  0  0  0  0  0  0
   32.1630   11.5532    6.9819 C   0  0  0  0  0  0  0  0  0  0  0  0
  1  2  1  0
  2  3  2  0
  2  4  2  0
  2  5  1  0
  5  6  1  0
  6  7  2  0
  7  8  1  0
  8  9  2  0
  9 10  1  0
 10 11  1  0
 11 12  2  0
 10 13  2  0
 13  6  1  0
A    1
 C1 
A    2
 S1 
A    3
 O1 
A    4
 O2 
A    5
 N1 
A    6
 C2 
A    7
 C3 
A    8
 C4 
A    9
 C5 
A   10
 C6 
A   11
 C7 
A   12
 O3 
A   13
 C8 
M  END
>  <ref_pdb>  (1428) 
Ax0310a

>  <ref_mols>  (1428) 
Ax0446a,Ax1080a,Ax0812a,Ax0719a,Ax1140a,Ax0528a,Ax0310a

>  <original SMILES>  (1428) 
CS(=O)(=O)Nc1cccc(C=O)c1

>  <rationale>  (1428) 
info info set:sulfonimide_whole;hbond:S87+S125; 

>  <experiment>  (1428) 
sulfonimide_whole

>  <cluster_label>  (1428) 
3

>  <cluster_rank>  (1428) 
1085

>  <N_interactions>  (1428) 
2

>  <∆∆G>  (1428) 
-6.216418

>  <comRMSD>  (1428) 
0.523308

>  <ROCS_TanimotoCombo>  (1428) 
0.328

>  <ROCS_ShapeTanimoto>  (1428) 
0.183

>  <ROCS_ColorTanimoto>  (1428) 
0.145

$$$$
Z1255359523
     RDKit          3D

 13 14  0  0  0  0  0  0  0  0999 V2000
   31.5812   13.1989    6.3287 C   0  0  0  0  0  0  0  0  0  0  0  0
   31.9775   12.3512    7.4781 C   0  0  0  0  0  0  0  0  0  0  0  0
   32.6735   13.1854    8.5285 C   0  0  0  0  0  0  0  0  0  0  0  0
   30.5775   11.7645    7.9070 C   0  0  0  0  0  0  0  0  0  0  0  0
   30.5883   10.2944    8.5488 C   0  0  0  0  0  0  0  0  0  0  0  0
   31.0730    9.7483    7.2270 C   0  0  0  0  0  0  0  0  0  0  0  0
   32.2781    9.0868    7.1617 N   0  0  0  0  0  0  0  0  0  0  0  0
   33.1215    9.9854    6.4581 C   0  0  0  0  0  0  0  0  0  0  0  0
   34.1907    9.4114    5.5069 C   0  0  0  0  0  0  0  0  0  0  0  0
   35.1446   10.2607    4.7186 C   0  0  0  0  0  0  0  0  0  0  0  0
   35.0063   11.7428    4.9067 C   0  0  0  0  0  0  0  0  0  0  0  0
   33.9769   12.3638    5.8138 C   0  0  0  0  0  0  0  0  0  0  0  0
   32.9814   11.5253    6.6287 C   0  0  0  0  0  0  0  0  0  0  0  0
  1  2  1  0
  2  3  1  0
  2  4  1  0
  4  5  1  0
  5  6  1  0
  6  7  1  0
  7  8  1  0
  8  9  2  0
  9 10  1  0
 10 11  2  0
 11 12  1  0
 12 13  2  0
 13  2  1  0
 13  8  1  0
A    1
 C1 
A    2
 C2 
A    3
 C3 
A    4
 C4 
A    5
 C5 
A    6
 C6 
A    7
 N1 
A    8
 C7 
A    9
 C8 
A   10
 C9 
A   11
 C10
A   12
 C11
A   13
 C12
M  END
>  <ref_pdb>  (1429) 
Ax0310a

>  <ref_mols>  (1429) 
Ax0446a,Ax1080a,Ax0812a,Ax0719a,Ax1140a,Ax0528a,Ax0310a

>  <original SMILES>  (1429) 
CC1(C)CCCNc2ccccc21

>  <rationale>  (1429) 
info info set:3d;hbond:S105; 

>  <experiment>  (1429) 
3d

>  <cluster_label>  (1429) 
3

>  <cluster_rank>  (1429) 
1086

>  <N_interactions>  (1429) 
1

>  <∆∆G>  (1429) 
-1.004813

>  <comRMSD>  (1429) 
0.847493

>  <ROCS_TanimotoCombo>  (1429) 
0.306

>  <ROCS_ShapeTanimoto>  (1429) 
0.189

>  <ROCS_ColorTanimoto>  (1429) 
0.116

$$$$
EN300_2008361
     RDKit          3D

 13 13  0  0  0  0  0  0  0  0999 V2000
   28.7703   12.9594    7.9182 C   0  0  0  0  0  0  0  0  0  0  0  0
   30.0904   12.6069    7.5011 O   0  0  0  0  0  0  0  0  0  0  0  0
   30.5036   11.3273    7.9781 C   0  0  0  0  0  0  0  0  0  0  0  0
   30.1061   10.7102    8.9086 O   0  0  0  0  0  0  0  0  0  0  0  0
   31.5686   10.6990    7.1385 C   0  0  0  0  0  0  0  0  0  0  0  0
   32.3778   11.6093    6.2808 C   0  0  0  0  0  0  0  0  0  0  0  0
   32.1869   13.2837    6.2031 Cl  0  0  0  0  0  0  0  0  0  0  0  0
   33.4549   11.0119    5.4035 C   0  0  0  0  0  0  0  0  0  0  0  0
   33.5796    9.5044    5.5140 C   0  0  0  0  0  0  0  0  0  0  0  0
   34.7521    8.7137    4.5529 Cl  0  0  0  0  0  0  0  0  0  0  0  0
   32.7966    8.7625    6.3404 N   0  0  0  0  0  0  0  0  0  0  0  0
   31.7648    9.3655    7.1767 C   0  0  0  0  0  0  0  0  0  0  0  0
   30.9804    8.5566    8.0102 N   0  0  0  0  0  0  0  0  0  0  0  0
  1  2  1  0
  2  3  1  0
  3  4  2  0
  3  5  1  0
  5  6  2  0
  6  7  1  0
  6  8  1  0
  8  9  2  0
  9 10  1  0
  9 11  1  0
 11 12  2  0
 12 13  1  0
 12  5  1  0
A    1
 C1 
A    2
 O1 
A    3
 C2 
A    4
 O2 
A    5
 C3 
A    6
 C4 
A    7
CL1 
A    8
 C5 
A    9
 C6 
A   10
CL2 
A   11
 N1 
A   12
 C7 
A   13
 N2 
M  END
>  <ref_pdb>  (1430) 
Ax0310a

>  <ref_mols>  (1430) 
Ax0446a,Ax1080a,Ax0812a,Ax0719a,Ax1140a,Ax0528a,Ax0310a

>  <original SMILES>  (1430) 
COC(=O)c1c(Cl)cc(Cl)nc1N

>  <rationale>  (1430) 
info info set:bb_densepocket2;hbond:S105; 

>  <experiment>  (1430) 
bb_densepocket2

>  <cluster_label>  (1430) 
3

>  <cluster_rank>  (1430) 
1087

>  <N_interactions>  (1430) 
1

>  <∆∆G>  (1430) 
-1.962172

>  <comRMSD>  (1430) 
0.534546

>  <ROCS_TanimotoCombo>  (1430) 
0.615

>  <ROCS_ShapeTanimoto>  (1430) 
0.239

>  <ROCS_ColorTanimoto>  (1430) 
0.376

$$$$
EN300_291427
     RDKit          3D

 13 13  0  0  0  0  0  0  0  0999 V2000
   34.8663   15.1132    7.1327 N   0  0  0  0  0  0  0  0  0  0  0  0
   34.3904   13.6931    7.8710 S   0  0  0  0  0  6  0  0  0  0  0  0
   35.5975   13.3853    8.5871 O   0  0  0  0  0  0  0  0  0  0  0  0
   33.1757   13.9102    8.6199 O   0  0  0  0  0  0  0  0  0  0  0  0
   34.0649   12.7271    6.3442 C   0  0  0  0  0  0  0  0  0  0  0  0
   33.0989   11.5660    6.6446 C   0  0  0  0  0  0  0  0  0  0  0  0
   31.8868   11.9445    7.4678 C   0  0  0  0  0  0  0  0  0  0  0  0
   30.8260   10.9382    7.8951 C   0  0  0  0  0  0  0  0  0  0  0  0
   29.7830   11.3047    8.5792 F   0  0  0  0  0  0  0  0  0  0  0  0
   31.0813    9.4949    7.4644 C   0  0  0  0  0  0  0  0  0  0  0  0
   32.1924    9.2056    6.6975 C   0  0  0  0  0  0  0  0  0  0  0  0
   33.2248   10.2286    6.2416 C   0  0  0  0  0  0  0  0  0  0  0  0
   34.4944    9.6316    5.2358 Cl  0  0  0  0  0  0  0  0  0  0  0  0
  1  2  1  0
  2  3  2  0
  2  4  2  0
  2  5  1  0
  5  6  1  0
  6  7  2  0
  7  8  1  0
  8  9  1  0
  8 10  2  0
 10 11  1  0
 11 12  2  0
 12 13  1  0
 12  6  1  0
A    1
 N1 
A    2
 S1 
A    3
 O1 
A    4
 O2 
A    5
 C1 
A    6
 C2 
A    7
 C3 
A    8
 C4 
A    9
 F1 
A   10
 C5 
A   11
 C6 
A   12
 C7 
A   13
CL1 
M  END
>  <ref_pdb>  (1431) 
Ax0310a

>  <ref_mols>  (1431) 
Ax0446a,Ax1080a,Ax0812a,Ax0719a,Ax1140a,Ax0528a,Ax0310a

>  <original SMILES>  (1431) 
NS(=O)(=O)Cc1cc(F)ccc1Cl

>  <rationale>  (1431) 
info info set:sulfonimide_joint;hbond:G127+E85; 

>  <experiment>  (1431) 
sulfonimide_joint

>  <cluster_label>  (1431) 
3

>  <cluster_rank>  (1431) 
1088

>  <N_interactions>  (1431) 
2

>  <∆∆G>  (1431) 
-3.36193

>  <comRMSD>  (1431) 
0.717264

>  <ROCS_TanimotoCombo>  (1431) 
0.299

>  <ROCS_ShapeTanimoto>  (1431) 
0.16

>  <ROCS_ColorTanimoto>  (1431) 
0.139

$$$$
EN300_1601108
     RDKit          3D

 10 10  0  0  0  0  0  0  0  0999 V2000
   30.7387   12.5683    8.7041 O   0  0  0  0  0  0  0  0  0  0  0  0
   30.2139   11.6324    7.7646 C   0  0  0  0  0  0  0  0  0  0  0  0
   31.2970   10.7721    7.1591 C   0  0  0  0  0  0  0  0  0  0  0  0
   32.2174   11.4865    6.2181 C   0  0  0  0  0  0  0  0  0  0  0  0
   33.2242   10.8685    5.5857 N   0  0  0  0  0  0  0  0  0  0  0  0
   33.3289    9.5657    5.8721 C   0  0  0  0  0  0  0  0  0  0  0  0
   34.3392    8.9057    5.2500 O   0  0  0  0  0  0  0  0  0  0  0  0
   32.5284    8.7850    6.7419 N   0  0  0  0  0  0  0  0  0  0  0  0
   31.5463    9.4489    7.3427 C   0  0  0  0  0  0  0  0  0  0  0  0
   30.7932    8.6763    8.1639 O   0  0  0  0  0  0  0  0  0  0  0  0
  1  2  1  0
  2  3  1  0
  3  4  2  0
  4  5  1  0
  5  6  2  0
  6  7  1  0
  6  8  1  0
  8  9  2  0
  9 10  1  0
  9  3  1  0
A    1
 O1 
A    2
 C1 
A    3
 C2 
A    4
 C3 
A    5
 N1 
A    6
 C4 
A    7
 O2 
A    8
 N2 
A    9
 C5 
A   10
 O3 
M  END
>  <ref_pdb>  (1432) 
Ax0310a

>  <ref_mols>  (1432) 
Ax0446a,Ax1080a,Ax0812a,Ax0719a,Ax1140a,Ax0528a,Ax0310a

>  <original SMILES>  (1432) 
OCc1cnc(O)nc1O

>  <rationale>  (1432) 
info info set:bb_densepocket2;hbond:S105+G127; 

>  <experiment>  (1432) 
bb_densepocket2

>  <cluster_label>  (1432) 
3

>  <cluster_rank>  (1432) 
1089

>  <N_interactions>  (1432) 
2

>  <∆∆G>  (1432) 
-1.615569

>  <comRMSD>  (1432) 
0.456522

>  <ROCS_TanimotoCombo>  (1432) 
0.615

>  <ROCS_ShapeTanimoto>  (1432) 
0.215

>  <ROCS_ColorTanimoto>  (1432) 
0.4

$$$$
Z1665187180
     RDKit          3D

 10 11  0  0  0  0  0  0  0  0999 V2000
   34.5048   11.7162    5.4403 C   0  0  0  0  0  0  0  0  0  0  0  0
   33.2696   11.3123    4.9478 C   0  0  0  0  0  0  0  0  0  0  0  0
   32.6187   11.4547    6.1205 C   0  0  0  0  0  0  0  0  0  0  0  0
   33.6338   12.1447    6.7147 C   0  0  0  0  0  0  0  0  0  0  0  0
   32.3622    9.9978    6.5724 C   0  0  0  0  0  0  0  0  0  0  0  0
   31.8098    9.7934    7.8047 N   0  0  0  0  0  0  0  0  0  0  0  0
   30.4391    9.7155    8.2537 C   0  0  0  0  0  0  0  0  0  0  0  0
   30.3185   11.2102    7.9083 C   0  0  0  0  0  0  0  0  0  0  0  0
   30.5335   11.5695    6.5513 O   0  0  0  0  0  0  0  0  0  0  0  0
   31.4833   12.2562    6.3138 C   0  0  0  0  0  0  0  0  0  0  0  0
  1  2  1  0
  2  3  1  0
  3  4  1  0
  3  5  1  0
  5  6  1  0
  6  7  1  0
  7  8  1  0
  8  9  1  0
  9 10  1  0
  4  1  1  0
 10  3  1  0
A    1
 C1 
A    2
 C2 
A    3
 C3 
A    4
 C4 
A    5
 C5 
A    6
 N1 
A    7
 C6 
A    8
 C7 
A    9
 O1 
A   10
 C8 
M  END
>  <ref_pdb>  (1433) 
Ax0310a

>  <ref_mols>  (1433) 
Ax0446a,Ax1080a,Ax0812a,Ax0719a,Ax1140a,Ax0528a,Ax0310a

>  <original SMILES>  (1433) 
C1CC2(C1)CNCCOC2

>  <rationale>  (1433) 
info info set:3d;hbond:S105; hydroph_interaction:P107; 

>  <experiment>  (1433) 
3d

>  <cluster_label>  (1433) 
3

>  <cluster_rank>  (1433) 
1090

>  <N_interactions>  (1433) 
2

>  <∆∆G>  (1433) 
-0.168229

>  <comRMSD>  (1433) 
0.842992

>  <ROCS_TanimotoCombo>  (1433) 
0.286

>  <ROCS_ShapeTanimoto>  (1433) 
0.162

>  <ROCS_ColorTanimoto>  (1433) 
0.124

$$$$
Z1491220220
     RDKit          3D

 16 17  0  0  0  0  0  0  0  0999 V2000
   32.7949   13.5569    5.8539 O   0  0  0  0  0  0  0  0  0  0  0  0
   31.9318   13.1638    6.9454 S   0  0  0  0  0  6  0  0  0  0  0  0
   30.5024   13.5758    7.0802 O   0  0  0  0  0  0  0  0  0  0  0  0
   31.9311   11.4513    7.0377 C   0  0  0  0  0  0  0  0  0  0  0  0
   32.9393   10.7981    6.1493 C   0  0  0  0  0  0  0  0  0  0  0  0
   32.9805    9.2751    6.2122 C   0  0  0  0  0  0  0  0  0  0  0  0
   31.9942    8.5942    7.1765 C   0  0  0  0  0  0  0  0  0  0  0  0
   31.1327    9.3364    7.9172 C   0  0  0  0  0  0  0  0  0  0  0  0
   30.0864    8.5216    8.9468 Cl  0  0  0  0  0  0  0  0  0  0  0  0
   31.0588   10.8145    7.8796 C   0  0  0  0  0  0  0  0  0  0  0  0
   32.6743   13.3952    8.4291 N   0  0  0  0  0  0  0  0  0  0  0  0
   34.1327   13.2372    8.3828 C   0  0  0  0  0  0  0  0  0  0  0  0
   34.7725   14.5203    8.2170 C   0  0  0  0  0  0  0  0  0  0  0  0
   34.4773   15.3117    9.3122 N   0  0  0  0  0  0  0  0  0  0  0  0
   33.0851   15.4395    9.7402 C   0  0  0  0  0  0  0  0  0  0  0  0
   32.1574   14.4402    9.3675 C   0  0  0  0  0  0  0  0  0  0  0  0
  1  2  2  0
  2  3  2  0
  2  4  1  0
  4  5  2  0
  5  6  1  0
  6  7  2  0
  7  8  1  0
  8  9  1  0
  8 10  2  0
  2 11  1  0
 11 12  1  0
 12 13  1  0
 13 14  1  0
 14 15  1  0
 15 16  1  0
 10  4  1  0
 16 11  1  0
A    1
 O1 
A    2
 S1 
A    3
 O2 
A    4
 C1 
A    5
 C2 
A    6
 C3 
A    7
 C4 
A    8
 C5 
A    9
CL1 
A   10
 C6 
A   11
 N1 
A   12
 C7 
A   13
 C8 
A   14
 N2 
A   15
 C9 
A   16
 C10
M  END
>  <ref_pdb>  (1434) 
Ax0310a

>  <ref_mols>  (1434) 
Ax0446a,Ax1080a,Ax0812a,Ax0719a,Ax1140a,Ax0528a,Ax0310a

>  <original SMILES>  (1434) 
O=S(=O)(c1cccc(Cl)c1)N1CCNCC1

>  <rationale>  (1434) 
info info set:3d;hbond:S87+E85; 

>  <experiment>  (1434) 
3d

>  <cluster_label>  (1434) 
3

>  <cluster_rank>  (1434) 
1091

>  <N_interactions>  (1434) 
2

>  <∆∆G>  (1434) 
-1.485762

>  <comRMSD>  (1434) 
0.595619

>  <ROCS_TanimotoCombo>  (1434) 
0.295

>  <ROCS_ShapeTanimoto>  (1434) 
0.195

>  <ROCS_ColorTanimoto>  (1434) 
0.1

$$$$
Z815438822
     RDKit          3D

 11 11  0  0  0  0  0  0  0  0999 V2000
   34.8553   10.2445    4.9606 C   0  0  0  0  0  0  0  0  0  0  0  0
   33.9759    9.1405    5.5001 C   0  0  0  0  0  0  0  0  0  0  0  0
   32.8616    9.6234    6.3277 N   0  0  0  0  0  0  0  0  0  0  0  0
   32.5054   11.0157    6.3144 C   0  0  0  0  0  0  0  0  0  0  0  0
   31.3621   11.2503    7.2328 C   0  0  0  0  0  0  0  0  0  0  0  0
   30.5768   12.7792    7.5494 S   0  0  0  0  0  6  0  0  0  0  0  0
   29.1973   12.5418    8.4559 N   0  0  0  0  0  0  0  0  0  0  0  0
   31.4810   13.5710    8.3504 O   0  0  0  0  0  0  0  0  0  0  0  0
   30.1006   13.2611    6.2675 O   0  0  0  0  0  0  0  0  0  0  0  0
   31.1712    9.8133    7.7254 C   0  0  0  0  0  0  0  0  0  0  0  0
   32.0522    8.8990    7.1814 N   0  0  0  0  0  0  0  0  0  0  0  0
  1  2  1  0
  2  3  1  0
  3  4  1  0
  4  5  2  0
  5  6  1  0
  6  7  1  0
  6  8  2  0
  6  9  2  0
  5 10  1  0
 10 11  2  0
 11  3  1  0
A    1
 C1 
A    2
 C2 
A    3
 N1 
A    4
 C3 
A    5
 C4 
A    6
 S1 
A    7
 N2 
A    8
 O1 
A    9
 O2 
A   10
 C5 
A   11
 N3 
M  END
>  <ref_pdb>  (1435) 
Ax0310a

>  <ref_mols>  (1435) 
Ax0446a,Ax1080a,Ax0812a,Ax0719a,Ax1140a,Ax0528a,Ax0310a

>  <original SMILES>  (1435) 
CCn1cc(S(N)(=O)=O)cn1

>  <rationale>  (1435) 
info info set:3d;hbond:S87+S125; 

>  <experiment>  (1435) 
3d

>  <cluster_label>  (1435) 
3

>  <cluster_rank>  (1435) 
1092

>  <N_interactions>  (1435) 
2

>  <∆∆G>  (1435) 
-5.411363

>  <comRMSD>  (1435) 
0.737291

>  <ROCS_TanimotoCombo>  (1435) 
0.291

>  <ROCS_ShapeTanimoto>  (1435) 
0.164

>  <ROCS_ColorTanimoto>  (1435) 
0.127

$$$$
Z1255523388
     RDKit          3D

 18 20  0  0  0  0  0  0  0  0999 V2000
   30.8054    9.1790    8.1139 C   0  0  0  0  0  0  0  0  0  0  0  0
   31.5548   10.2372    7.2457 C   0  0  0  0  0  0  0  0  0  0  0  0
   31.1292   11.6413    7.1346 C   0  0  0  0  0  0  0  0  0  0  0  0
   29.9198   11.7304    7.9281 C   0  0  0  0  0  0  0  0  0  0  0  0
   29.4687   10.6950    8.2114 O   0  0  0  0  0  0  0  0  0  0  0  0
   29.4253   12.9434    8.2687 N   0  0  0  0  0  0  0  0  0  0  0  0
   28.4360   13.4054    7.4957 C   0  0  0  0  0  0  0  0  0  0  0  0
   28.0299   14.8102    7.6300 C   0  0  0  0  0  0  0  0  0  0  0  0
   28.6156   15.5492    8.6172 N   0  0  0  0  0  0  0  0  0  0  0  0
   29.6515   15.0743    9.4058 C   0  0  0  0  0  0  0  0  0  0  0  0
   30.3076   13.8570    8.7625 C   0  0  0  0  0  0  0  0  0  0  0  0
   32.0973   12.6535    6.1766 S   0  0  0  0  0  0  0  0  0  0  0  0
   33.1439   11.3180    5.7973 C   0  0  0  0  0  0  0  0  0  0  0  0
   34.2810   11.2804    4.9981 C   0  0  0  0  0  0  0  0  0  0  0  0
   34.9725   10.0997    4.8061 C   0  0  0  0  0  0  0  0  0  0  0  0
   34.5854    8.9155    5.3865 C   0  0  0  0  0  0  0  0  0  0  0  0
   33.4754    8.8729    6.2033 C   0  0  0  0  0  0  0  0  0  0  0  0
   32.7545   10.1277    6.3982 C   0  0  0  0  0  0  0  0  0  0  0  0
  1  2  1  0
  2  3  2  0
  3  4  1  0
  4  5  2  0
  4  6  1  0
  6  7  1  0
  7  8  1  0
  8  9  1  0
  9 10  1  0
 10 11  1  0
  3 12  1  0
 12 13  1  0
 13 14  2  0
 14 15  1  0
 15 16  2  0
 16 17  1  0
 17 18  2  0
 18  2  1  0
 11  6  1  0
 18 13  1  0
A    1
 C1 
A    2
 C2 
A    3
 C3 
A    4
 C4 
A    5
 O1 
A    6
 N1 
A    7
 C5 
A    8
 C6 
A    9
 N2 
A   10
 C7 
A   11
 C8 
A   12
 S1 
A   13
 C9 
A   14
 C10
A   15
 C11
A   16
 C12
A   17
 C13
A   18
 C14
M  END
>  <ref_pdb>  (1436) 
Ax0310a

>  <ref_mols>  (1436) 
Ax0446a,Ax1080a,Ax0812a,Ax0719a,Ax1140a,Ax0528a,Ax0310a

>  <original SMILES>  (1436) 
Cc1c(C(=O)N2CCNCC2)sc2ccccc12

>  <rationale>  (1436) 
info info set:3d;

>  <experiment>  (1436) 
3d

>  <cluster_label>  (1436) 
3

>  <cluster_rank>  (1436) 
1093

>  <N_interactions>  (1436) 
0

>  <∆∆G>  (1436) 
-5.30933

>  <comRMSD>  (1436) 
0.949574

>  <ROCS_TanimotoCombo>  (1436) 
0.296

>  <ROCS_ShapeTanimoto>  (1436) 
0.225

>  <ROCS_ColorTanimoto>  (1436) 
0.071

$$$$
EN300_77933
     RDKit          3D

 14 14  0  0  0  0  0  0  0  0999 V2000
   33.5395   11.7725    3.9938 C   0  0  0  0  0  0  0  0  0  0  0  0
   33.7804   11.2028    5.2370 C   0  0  0  0  0  0  0  0  0  0  0  0
   34.8669   10.6838    5.4643 O   0  0  0  0  0  0  0  0  0  0  0  0
   32.7526   11.2022    6.1940 C   0  0  0  0  0  0  0  0  0  0  0  0
   32.0807   12.3566    6.6030 C   0  0  0  0  0  0  0  0  0  0  0  0
   30.9643   12.2900    7.6275 C   0  0  0  0  0  0  0  0  0  0  0  0
   30.1116   13.7371    8.1225 S   0  0  0  0  0  6  0  0  0  0  0  0
   28.8100   13.2714    9.0439 N   0  0  0  0  0  0  0  0  0  0  0  0
   29.4646   14.2309    6.9370 O   0  0  0  0  0  0  0  0  0  0  0  0
   30.9953   14.5168    8.9616 O   0  0  0  0  0  0  0  0  0  0  0  0
   30.6456   10.9188    8.1668 C   0  0  0  0  0  0  0  0  0  0  0  0
   31.4162    9.7481    7.6779 C   0  0  0  0  0  0  0  0  0  0  0  0
   32.3961   10.0029    6.7343 C   0  0  0  0  0  0  0  0  0  0  0  0
   33.0891    8.8227    6.2966 C   0  0  0  0  0  0  0  0  0  0  0  0
  1  2  1  0
  2  3  2  0
  2  4  1  0
  4  5  2  0
  5  6  1  0
  6  7  1  0
  7  8  1  0
  7  9  2  0
  7 10  2  0
  6 11  2  0
 11 12  1  0
 12 13  2  0
 13 14  1  0
 13  4  1  0
A    1
 C1 
A    2
 C2 
A    3
 O1 
A    4
 C3 
A    5
 C4 
A    6
 C5 
A    7
 S1 
A    8
 N1 
A    9
 O2 
A   10
 O3 
A   11
 C6 
A   12
 C7 
A   13
 C8 
A   14
 C9 
M  END
>  <ref_pdb>  (1437) 
Ax0310a

>  <ref_mols>  (1437) 
Ax0446a,Ax1080a,Ax0812a,Ax0719a,Ax1140a,Ax0528a,Ax0310a

>  <original SMILES>  (1437) 
CC(=O)c1cc(S(N)(=O)=O)ccc1C

>  <rationale>  (1437) 
info info set:sulfonimide_whole;hbond:S87+S125; hydroph_interaction:P107; 

>  <experiment>  (1437) 
sulfonimide_whole

>  <cluster_label>  (1437) 
3

>  <cluster_rank>  (1437) 
1094

>  <N_interactions>  (1437) 
3

>  <∆∆G>  (1437) 
-5.488888

>  <comRMSD>  (1437) 
0.687034

>  <ROCS_TanimotoCombo>  (1437) 
0.328

>  <ROCS_ShapeTanimoto>  (1437) 
0.186

>  <ROCS_ColorTanimoto>  (1437) 
0.142

$$$$
Z2302652490
     RDKit          3D

 19 20  0  0  0  0  0  0  0  0999 V2000
   28.7938   17.0597    8.7126 C   0  0  0  0  0  0  0  0  0  0  0  0
   28.7774   15.7270    8.4622 C   0  0  0  0  0  0  0  0  0  0  0  0
   28.5813   15.5074    7.1967 N   0  0  0  0  0  0  0  0  0  0  0  0
   28.6368   14.1973    6.9292 C   0  0  0  0  0  0  0  0  0  0  0  0
   28.4496   13.8802    5.4760 C   0  0  0  0  0  0  0  0  0  0  0  0
   28.8767   13.5668    8.1070 C   0  0  0  0  0  0  0  0  0  0  0  0
   29.0306   12.1614    8.0005 C   0  0  0  0  0  0  0  0  0  0  0  0
   30.1381   11.8949    7.3851 N   0  0  0  0  0  0  0  0  0  0  0  0
   30.7781   10.8044    7.9573 C   0  0  0  0  0  0  0  0  0  0  0  0
   30.5271   10.2044    8.9816 O   0  0  0  0  0  0  0  0  0  0  0  0
   31.8539   10.4726    7.0563 C   0  0  0  0  0  0  0  0  0  0  0  0
   32.1606    9.0398    7.0360 C   0  0  0  0  0  0  0  0  0  0  0  0
   33.1050    8.5962    6.2626 N   0  0  0  0  0  0  0  0  0  0  0  0
   33.7983    9.4325    5.4690 C   0  0  0  0  0  0  0  0  0  0  0  0
   33.6596   10.8281    5.3368 C   0  0  0  0  0  0  0  0  0  0  0  0
   34.6367   11.7489    4.2683 Cl  0  0  0  0  0  0  0  0  0  0  0  0
   32.5562   11.3386    6.2598 C   0  0  0  0  0  0  0  0  0  0  0  0
   32.3536   12.8511    6.1763 C   0  0  0  0  0  0  0  0  0  0  0  0
   29.0117   14.4881    9.5527 S   0  0  0  0  0  0  0  0  0  0  0  0
  1  2  1  0
  2  3  2  0
  3  4  1  0
  4  5  1  0
  4  6  2  0
  6  7  1  0
  7  8  1  0
  8  9  1  0
  9 10  2  0
  9 11  1  0
 11 12  2  0
 12 13  1  0
 13 14  2  0
 14 15  1  0
 15 16  1  0
 15 17  2  0
 17 18  1  0
  6 19  1  0
 19  2  1  0
 17 11  1  0
A    1
 C1 
A    2
 C2 
A    3
 N1 
A    4
 C3 
A    5
 C4 
A    6
 C5 
A    7
 C6 
A    8
 N2 
A    9
 C7 
A   10
 O1 
A   11
 C8 
A   12
 C9 
A   13
 N3 
A   14
 C10
A   15
 C11
A   16
CL1 
A   17
 C12
A   18
 C13
A   19
 S1 
M  END
>  <ref_pdb>  (1438) 
Ax0310a

>  <ref_mols>  (1438) 
Ax0446a,Ax1080a,Ax0812a,Ax0719a,Ax1140a,Ax0528a,Ax0310a

>  <original SMILES>  (1438) 
Cc1nc(C)c(CNC(=O)c2cncc(Cl)c2C)s1

>  <rationale>  (1438) 
info info set:screening_pocket;hydroph_interaction:P107+Y89+Y90; pistack:H21; 

>  <experiment>  (1438) 
screening_pocket

>  <cluster_label>  (1438) 
3

>  <cluster_rank>  (1438) 
1095

>  <N_interactions>  (1438) 
5

>  <∆∆G>  (1438) 
-1.813396

>  <comRMSD>  (1438) 
0.703864

>  <ROCS_TanimotoCombo>  (1438) 
0.626

>  <ROCS_ShapeTanimoto>  (1438) 
0.237

>  <ROCS_ColorTanimoto>  (1438) 
0.389

$$$$
EN300_2964065
     RDKit          3D

 10 10  0  0  0  0  0  0  0  0999 V2000
   29.0555   12.2968    7.5477 C   0  0  0  0  0  0  0  0  0  0  0  0
   30.2732   11.8348    8.1923 N   0  0  0  0  0  0  0  0  0  0  0  0
   31.2031   11.0476    7.4896 C   0  0  0  0  0  0  0  0  0  0  0  0
   32.2057   11.5689    6.4996 C   0  0  0  0  0  0  0  0  0  0  0  0
   33.1828   10.7016    5.7716 C   0  0  0  0  0  0  0  0  0  0  0  0
   34.2255   11.2781    4.7430 C   0  0  0  0  0  0  0  0  0  0  0  0
   33.0898    9.3587    6.0821 C   0  0  0  0  0  0  0  0  0  0  0  0
   32.2015    8.8378    6.9757 N   0  0  0  0  0  0  0  0  0  0  0  0
   31.3289    9.6555    7.6211 C   0  0  0  0  0  0  0  0  0  0  0  0
   30.2077    8.7422    8.8101 Br  0  0  0  0  0  0  0  0  0  0  0  0
  1  2  1  0
  2  3  1  0
  3  4  2  0
  4  5  1  0
  5  6  1  0
  5  7  2  0
  7  8  1  0
  8  9  2  0
  9 10  1  0
  9  3  1  0
A    1
 C1 
A    2
 N1 
A    3
 C2 
A    4
 C3 
A    5
 C4 
A    6
 C5 
A    7
 C6 
A    8
 N2 
A    9
 C7 
A   10
BR1 
M  END
>  <ref_pdb>  (1439) 
Ax0310a

>  <ref_mols>  (1439) 
Ax0446a,Ax1080a,Ax0812a,Ax0719a,Ax1140a,Ax0528a,Ax0310a

>  <original SMILES>  (1439) 
CNc1cc(C)cnc1Br

>  <rationale>  (1439) 
info info set:bb_densepocket2;hbond:S125; hydroph_interaction:P107; 

>  <experiment>  (1439) 
bb_densepocket2

>  <cluster_label>  (1439) 
3

>  <cluster_rank>  (1439) 
1096

>  <N_interactions>  (1439) 
2

>  <∆∆G>  (1439) 
-4.512308

>  <comRMSD>  (1439) 
0.405499

>  <ROCS_TanimotoCombo>  (1439) 
0.608

>  <ROCS_ShapeTanimoto>  (1439) 
0.209

>  <ROCS_ColorTanimoto>  (1439) 
0.398

$$$$
EN300_6213734
     RDKit          3D

 15 16  0  0  0  0  0  0  0  0999 V2000
   27.9250   13.2604    7.7112 C   0  0  0  0  0  0  0  0  0  0  0  0
   29.2544   13.7321    8.3376 C   0  0  0  0  0  0  0  0  0  0  0  0
   30.3947   13.0706    7.7264 O   0  0  0  0  0  0  0  0  0  0  0  0
   30.4973   11.7339    7.9389 C   0  0  0  0  0  0  0  0  0  0  0  0
   29.8411   11.0903    8.6924 O   0  0  0  0  0  0  0  0  0  0  0  0
   31.5668   11.0919    7.0979 C   0  0  0  0  0  0  0  0  0  0  0  0
   31.7451    9.6039    7.2807 C   0  0  0  0  0  0  0  0  0  0  0  0
   32.6308    8.7896    6.6549 N   0  0  0  0  0  0  0  0  0  0  0  0
   33.5290    9.3324    5.6979 C   0  0  0  0  0  0  0  0  0  0  0  0
   33.4194   10.6121    5.4905 C   0  0  0  0  0  0  0  0  0  0  0  0
   32.6105   11.5804    6.0112 C   0  0  0  0  0  0  0  0  0  0  0  0
   34.0780   11.5945    4.6346 C   0  0  0  0  0  0  0  0  0  0  0  0
   35.0431   10.7208    3.7990 C   0  0  0  0  0  0  0  0  0  0  0  0
   34.9040    9.2954    3.7284 C   0  0  0  0  0  0  0  0  0  0  0  0
   34.4832    8.6633    4.9830 N   0  0  0  0  0  0  0  0  0  0  0  0
  1  2  1  0
  2  3  1  0
  3  4  1  0
  4  5  2  0
  4  6  1  0
  6  7  2  0
  7  8  1  0
  8  9  2  0
  9 10  1  0
 10 11  2  0
 10 12  1  0
 12 13  1  0
 13 14  1  0
 14 15  1  0
 11  6  1  0
 15  9  1  0
A    1
 C1 
A    2
 C2 
A    3
 O1 
A    4
 C3 
A    5
 O2 
A    6
 C4 
A    7
 C5 
A    8
 N1 
A    9
 C6 
A   10
 C7 
A   11
 C8 
A   12
 C9 
A   13
 C10
A   14
 C11
A   15
 N2 
M  END
>  <ref_pdb>  (1440) 
Ax0310a

>  <ref_mols>  (1440) 
Ax0446a,Ax1080a,Ax0812a,Ax0719a,Ax1140a,Ax0528a,Ax0310a

>  <original SMILES>  (1440) 
CCOC(=O)c1cnc2c(c1)CCCN2

>  <rationale>  (1440) 
info info set:bb_densepocket2;hbond:S105; hydroph_interaction:P107; 

>  <experiment>  (1440) 
bb_densepocket2

>  <cluster_label>  (1440) 
3

>  <cluster_rank>  (1440) 
1097

>  <N_interactions>  (1440) 
2

>  <∆∆G>  (1440) 
-4.134135

>  <comRMSD>  (1440) 
0.584588

>  <ROCS_TanimotoCombo>  (1440) 
0.608

>  <ROCS_ShapeTanimoto>  (1440) 
0.253

>  <ROCS_ColorTanimoto>  (1440) 
0.355

$$$$
EN300_278049
     RDKit          3D

 12 12  0  0  0  0  0  0  0  0999 V2000
   29.2529   12.5351    8.5772 N   0  0  0  0  0  0  0  0  0  0  0  0
   30.2295   13.7260    8.0049 S   0  0  0  0  0  6  0  0  0  0  0  0
   30.2246   14.8178    8.9601 O   0  0  0  0  0  0  0  0  0  0  0  0
   29.7852   13.8351    6.6433 O   0  0  0  0  0  0  0  0  0  0  0  0
   31.8354   12.9955    7.9635 C   0  0  0  0  0  0  0  0  0  0  0  0
   31.8332   11.5222    7.6490 C   0  0  0  0  0  0  0  0  0  0  0  0
   31.0077   10.5066    8.3470 C   0  0  0  0  0  0  0  0  0  0  0  0
   31.3579    9.2183    7.7682 C   0  0  0  0  0  0  0  0  0  0  0  0
   31.9469    8.6334    7.0457 N   0  0  0  0  0  0  0  0  0  0  0  0
   32.6816    9.5723    6.3611 C   0  0  0  0  0  0  0  0  0  0  0  0
   32.6512   10.9990    6.6350 C   0  0  0  0  0  0  0  0  0  0  0  0
   33.6442   12.0362    5.6893 Cl  0  0  0  0  0  0  0  0  0  0  0  0
  1  2  1  0
  2  3  2  0
  2  4  2  0
  2  5  1  0
  5  6  1  0
  6  7  2  0
  7  8  1  0
  8  9  2  0
  9 10  1  0
 10 11  2  0
 11 12  1  0
 11  6  1  0
A    1
 N1 
A    2
 S1 
A    3
 O1 
A    4
 O2 
A    5
 C1 
A    6
 C2 
A    7
 C3 
A    8
 C4 
A    9
 N2 
A   10
 C5 
A   11
 C6 
A   12
CL1 
M  END
>  <ref_pdb>  (1441) 
Ax0310a

>  <ref_mols>  (1441) 
Ax0446a,Ax1080a,Ax0812a,Ax0719a,Ax1140a,Ax0528a,Ax0310a

>  <original SMILES>  (1441) 
NS(=O)(=O)Cc1ccncc1Cl

>  <rationale>  (1441) 
info info set:sulfonimide_whole;hbond:S87+S125; 

>  <experiment>  (1441) 
sulfonimide_whole

>  <cluster_label>  (1441) 
3

>  <cluster_rank>  (1441) 
1098

>  <N_interactions>  (1441) 
2

>  <∆∆G>  (1441) 
-4.895047

>  <comRMSD>  (1441) 
0.907342

>  <ROCS_TanimotoCombo>  (1441) 
0.328

>  <ROCS_ShapeTanimoto>  (1441) 
0.166

>  <ROCS_ColorTanimoto>  (1441) 
0.161

$$$$
EN300_377712
     RDKit          3D

 15 15  0  0  0  0  0  0  0  0999 V2000
   29.7867   14.0171    9.8006 C   0  0  0  0  0  0  0  0  0  0  0  0
   29.0842   13.3839    8.6097 C   0  0  0  0  0  0  0  0  0  0  0  0
   27.9997   13.2379    7.5175 C   0  0  0  0  0  0  0  0  0  0  0  0
   29.9601   12.1755    8.2592 C   0  0  0  0  0  0  0  0  0  0  0  0
   29.9704   11.0751    8.7845 O   0  0  0  0  0  0  0  0  0  0  0  0
   30.7528   12.4222    7.2295 N   0  0  0  0  0  0  0  0  0  0  0  0
   31.6467   11.5081    6.6936 C   0  0  0  0  0  0  0  0  0  0  0  0
   31.7205    9.9967    7.1526 C   0  0  0  0  0  0  0  0  0  0  0  0
   32.5723    9.0826    6.6506 N   0  0  0  0  0  0  0  0  0  0  0  0
   33.3998    9.5508    5.6851 C   0  0  0  0  0  0  0  0  0  0  0  0
   34.3186    8.6845    5.1070 N   0  0  0  0  0  0  0  0  0  0  0  0
   33.3929   10.9710    5.1897 C   0  0  0  0  0  0  0  0  0  0  0  0
   34.2902   11.2640    4.2125 O   0  0  0  0  0  0  0  0  0  0  0  0
   35.4206   12.0055    4.6339 C   0  0  0  0  0  0  0  0  0  0  0  0
   32.5160   11.8845    5.7205 C   0  0  0  0  0  0  0  0  0  0  0  0
  1  2  2  0
  2  3  1  0
  2  4  1  0
  4  5  2  0
  4  6  1  0
  6  7  1  0
  7  8  2  0
  8  9  1  0
  9 10  2  0
 10 11  1  0
 10 12  1  0
 12 13  1  0
 13 14  1  0
 12 15  2  0
 15  7  1  0
A    1
 C1 
A    2
 C2 
A    3
 C3 
A    4
 C4 
A    5
 O1 
A    6
 N1 
A    7
 C5 
A    8
 C6 
A    9
 N2 
A   10
 C7 
A   11
 N3 
A   12
 C8 
A   13
 O2 
A   14
 C9 
A   15
 C10
M  END
>  <ref_pdb>  (1442) 
Ax0310a

>  <ref_mols>  (1442) 
Ax0446a,Ax1080a,Ax0812a,Ax0719a,Ax1140a,Ax0528a,Ax0310a

>  <original SMILES>  (1442) 
C=C(C)C(=O)Nc1cnc(N)c(OC)c1

>  <rationale>  (1442) 
info info set:bb_densepocket2;hbond:S105; hydroph_interaction:P107; 

>  <experiment>  (1442) 
bb_densepocket2

>  <cluster_label>  (1442) 
3

>  <cluster_rank>  (1442) 
1099

>  <N_interactions>  (1442) 
2

>  <∆∆G>  (1442) 
-3.6175

>  <comRMSD>  (1442) 
0.990195

>  <ROCS_TanimotoCombo>  (1442) 
0.616

>  <ROCS_ShapeTanimoto>  (1442) 
0.226

>  <ROCS_ColorTanimoto>  (1442) 
0.39

$$$$
Z649741402
     RDKit          3D

 16 17  0  0  0  0  0  0  0  0999 V2000
   30.2364   10.4136    8.9908 O   0  0  0  0  0  0  0  0  0  0  0  0
   30.4986   11.0895    7.7691 C   0  0  0  0  0  0  0  0  0  0  0  0
   29.7728   12.1578    7.1762 N   0  0  0  0  0  0  0  0  0  0  0  0
   28.6098   12.4933    7.7487 C   0  0  0  0  0  0  0  0  0  0  0  0
   28.6225   13.8979    8.0838 C   0  0  0  0  0  0  0  0  0  0  0  0
   27.5909   14.8729    8.0540 C   0  0  0  0  0  0  0  0  0  0  0  0
   28.3524   16.0713    8.5422 C   0  0  0  0  0  0  0  0  0  0  0  0
   29.5525   15.8732    8.7986 O   0  0  0  0  0  0  0  0  0  0  0  0
   29.8790   14.5585    8.5685 C   0  0  0  0  0  0  0  0  0  0  0  0
   31.5838   10.6397    6.9850 C   0  0  0  0  0  0  0  0  0  0  0  0
   32.3492   11.5532    6.0423 C   0  0  0  0  0  0  0  0  0  0  0  0
   33.4222   10.9030    5.3109 C   0  0  0  0  0  0  0  0  0  0  0  0
   33.6809    9.4823    5.5239 C   0  0  0  0  0  0  0  0  0  0  0  0
   32.9482    8.7519    6.3927 N   0  0  0  0  0  0  0  0  0  0  0  0
   31.9479    9.3327    7.0803 C   0  0  0  0  0  0  0  0  0  0  0  0
   31.2562    8.4344    7.9636 O   0  0  0  0  0  0  0  0  0  0  0  0
  1  2  2  0
  2  3  1  0
  3  4  1  0
  4  5  1  0
  5  6  1  0
  6  7  2  0
  7  8  1  0
  8  9  1  0
  2 10  1  0
 10 11  2  0
 11 12  1  0
 12 13  2  0
 13 14  1  0
 14 15  2  0
 15 16  1  0
  9  5  2  0
 15 10  1  0
A    1
 O1 
A    2
 C1 
A    3
 N1 
A    4
 C2 
A    5
 C3 
A    6
 C4 
A    7
 C5 
A    8
 O2 
A    9
 C6 
A   10
 C7 
A   11
 C8 
A   12
 C9 
A   13
 C10
A   14
 N2 
A   15
 C11
A   16
 O3 
M  END
>  <ref_pdb>  (1443) 
Ax0310a

>  <ref_mols>  (1443) 
Ax0446a,Ax1080a,Ax0812a,Ax0719a,Ax1140a,Ax0528a,Ax0310a

>  <original SMILES>  (1443) 
O=C(NCc1ccoc1)c1cccnc1O

>  <rationale>  (1443) 
info info set:screening_pocket;hydroph_interaction:P107+Y89; 

>  <experiment>  (1443) 
screening_pocket

>  <cluster_label>  (1443) 
3

>  <cluster_rank>  (1443) 
1100

>  <N_interactions>  (1443) 
2

>  <∆∆G>  (1443) 
-1.573453

>  <comRMSD>  (1443) 
0.864549

>  <ROCS_TanimotoCombo>  (1443) 
0.631

>  <ROCS_ShapeTanimoto>  (1443) 
0.228

>  <ROCS_ColorTanimoto>  (1443) 
0.404

$$$$
EN300_1273383
     RDKit          3D

 11 11  0  0  0  0  0  0  0  0999 V2000
   30.1481    8.9434    8.7280 C   0  0  0  0  0  0  0  0  0  0  0  0
   31.3573    9.6145    8.1437 C   0  0  0  0  0  0  0  0  0  0  0  0
   31.3076   11.1033    7.7502 C   0  0  2  0  0  0  0  0  0  0  0  0
   30.1232   11.7319    8.2897 O   0  0  0  0  0  0  0  0  0  0  0  0
   31.3383   11.1438    6.2989 C   0  0  0  0  0  0  0  0  0  0  0  0
   32.8092   11.2213    6.2338 C   0  0  2  0  0  0  0  0  0  0  0  0
   33.3194    9.7856    6.0551 C   0  0  0  0  0  0  0  0  0  0  0  0
   32.8077    8.7777    6.5545 O   0  0  0  0  0  0  0  0  0  0  0  0
   34.4959    9.7237    5.1759 N   0  0  0  0  0  0  0  0  0  0  0  0
   34.9868    8.5073    4.5791 C   0  0  0  0  0  0  0  0  0  0  0  0
   32.5482   12.0896    7.5655 C   0  0  0  0  0  0  0  0  0  0  0  0
  1  2  3  0
  3  2  1  0
  3  4  1  1
  3  5  1  0
  5  6  1  0
  6  7  1  1
  7  8  2  0
  7  9  1  0
  9 10  1  0
  6 11  1  0
 11  3  1  0
A    1
 C1 
A    2
 C2 
A    3
 C3 
A    4
 O1 
A    5
 C4 
A    6
 C5 
A    7
 C6 
A    8
 O2 
A    9
 N1 
A   10
 C7 
A   11
 C8 
M  END
>  <ref_pdb>  (1444) 
Ax0310a

>  <ref_mols>  (1444) 
Ax0446a,Ax1080a,Ax0812a,Ax0719a,Ax1140a,Ax0528a,Ax0310a

>  <original SMILES>  (1444) 
C#C[C@]1(O)C[C@H](C(=O)NC)C1

>  <rationale>  (1444) 
info info set:bb_densepocket2;hbond:S125; hydroph_interaction:P107+V124; 

>  <experiment>  (1444) 
bb_densepocket2

>  <cluster_label>  (1444) 
3

>  <cluster_rank>  (1444) 
1101

>  <N_interactions>  (1444) 
3

>  <∆∆G>  (1444) 
-0.750123

>  <comRMSD>  (1444) 
0.951783

>  <ROCS_TanimotoCombo>  (1444) 
0.61

>  <ROCS_ShapeTanimoto>  (1444) 
0.195

>  <ROCS_ColorTanimoto>  (1444) 
0.415

$$$$
EN300_42619
     RDKit          3D

 15 15  0  0  0  0  0  0  0  0999 V2000
   34.1758   10.9478    2.8341 C   0  0  0  0  0  0  0  0  0  0  0  0
   33.4575   11.6281    3.8615 O   0  0  0  0  0  0  0  0  0  0  0  0
   33.9752   11.4059    5.0819 C   0  0  0  0  0  0  0  0  0  0  0  0
   35.1569   11.2825    5.3522 O   0  0  0  0  0  0  0  0  0  0  0  0
   32.8512   11.2688    6.1152 C   0  0  0  0  0  0  0  0  0  0  0  0
   32.1255   12.3493    6.5584 C   0  0  0  0  0  0  0  0  0  0  0  0
   31.1147   12.1519    7.4929 C   0  0  0  0  0  0  0  0  0  0  0  0
   30.2173   13.5524    8.0014 S   0  0  0  0  0  6  0  0  0  0  0  0
   28.9050   13.0361    8.8717 N   0  0  0  0  0  0  0  0  0  0  0  0
   29.5995   14.0522    6.8054 O   0  0  0  0  0  0  0  0  0  0  0  0
   31.0551   14.3379    8.8824 O   0  0  0  0  0  0  0  0  0  0  0  0
   30.8395   10.8735    7.9883 C   0  0  0  0  0  0  0  0  0  0  0  0
   31.5546    9.7513    7.5645 N   0  0  0  0  0  0  0  0  0  0  0  0
   32.5678   10.0684    6.5912 C   0  0  0  0  0  0  0  0  0  0  0  0
   33.5191    8.8763    5.9487 Cl  0  0  0  0  0  0  0  0  0  0  0  0
  1  2  1  0
  2  3  1  0
  3  4  2  0
  3  5  1  0
  5  6  2  0
  6  7  1  0
  7  8  1  0
  8  9  1  0
  8 10  2  0
  8 11  2  0
  7 12  2  0
 12 13  1  0
 13 14  2  0
 14 15  1  0
 14  5  1  0
A    1
 C1 
A    2
 O1 
A    3
 C2 
A    4
 O2 
A    5
 C3 
A    6
 C4 
A    7
 C5 
A    8
 S1 
A    9
 N1 
A   10
 O3 
A   11
 O4 
A   12
 C6 
A   13
 N2 
A   14
 C7 
A   15
CL1 
M  END
>  <ref_pdb>  (1445) 
Ax0310a

>  <ref_mols>  (1445) 
Ax0446a,Ax1080a,Ax0812a,Ax0719a,Ax1140a,Ax0528a,Ax0310a

>  <original SMILES>  (1445) 
COC(=O)c1cc(S(N)(=O)=O)cnc1Cl

>  <rationale>  (1445) 
info info set:sulfonimide_whole;halogenbond:S105; hbond:S87+S125; 

>  <experiment>  (1445) 
sulfonimide_whole

>  <cluster_label>  (1445) 
3

>  <cluster_rank>  (1445) 
1102

>  <N_interactions>  (1445) 
3

>  <∆∆G>  (1445) 
-2.409735

>  <comRMSD>  (1445) 
0.719207

>  <ROCS_TanimotoCombo>  (1445) 
0.33

>  <ROCS_ShapeTanimoto>  (1445) 
0.187

>  <ROCS_ColorTanimoto>  (1445) 
0.143

$$$$
EN300_1692174
     RDKit          3D

 17 18  0  0  0  0  0  0  0  0999 V2000
   28.7658   16.4073    8.9368 N   0  0  0  0  0  0  0  0  0  0  0  0
   28.2579   14.8489    8.7648 S   0  0  0  0  0  6  0  0  0  0  0  0
   27.3654   14.9209    7.6502 O   0  0  0  0  0  0  0  0  0  0  0  0
   27.8766   14.4854   10.0907 O   0  0  0  0  0  0  0  0  0  0  0  0
   29.6681   13.9055    8.2485 C   0  0  0  0  0  0  0  0  0  0  0  0
   31.0227   14.0212    8.8633 C   0  0  0  0  0  0  0  0  0  0  0  0
   32.0353   13.2054    8.3309 C   0  0  0  0  0  0  0  0  0  0  0  0
   31.7331   12.3319    7.2680 C   0  0  0  0  0  0  0  0  0  0  0  0
   32.6749   11.4625    6.6415 N   0  0  0  0  0  0  0  0  0  0  0  0
   32.5620   10.1040    6.6464 C   0  0  0  0  0  0  0  0  0  0  0  0
   31.5822    9.4407    7.2504 O   0  0  0  0  0  0  0  0  0  0  0  0
   33.7104    9.6020    5.8682 C   0  0  0  0  0  0  0  0  0  0  0  0
   34.4375   10.6801    5.4589 C   0  0  0  0  0  0  0  0  0  0  0  0
   33.8445   11.8309    5.9111 C   0  0  0  0  0  0  0  0  0  0  0  0
   34.2364   13.0916    5.7305 O   0  0  0  0  0  0  0  0  0  0  0  0
   30.4994   12.2169    6.7044 N   0  0  0  0  0  0  0  0  0  0  0  0
   29.4770   12.9470    7.1365 C   0  0  0  0  0  0  0  0  0  0  0  0
  1  2  1  0
  2  3  2  0
  2  4  2  0
  2  5  1  0
  5  6  2  0
  6  7  1  0
  7  8  2  0
  8  9  1  0
  9 10  1  0
 10 11  1  0
 10 12  2  0
 12 13  1  0
 13 14  2  0
 14 15  1  0
  8 16  1  0
 16 17  2  0
 17  5  1  0
 14  9  1  0
A    1
 N1 
A    2
 S1 
A    3
 O1 
A    4
 O2 
A    5
 C1 
A    6
 C2 
A    7
 C3 
A    8
 C4 
A    9
 N2 
A   10
 C5 
A   11
 O3 
A   12
 C6 
A   13
 C7 
A   14
 C8 
A   15
 O4 
A   16
 N3 
A   17
 C9 
M  END
>  <ref_pdb>  (1446) 
Ax0310a

>  <ref_mols>  (1446) 
Ax0446a,Ax1080a,Ax0812a,Ax0719a,Ax1140a,Ax0528a,Ax0310a

>  <original SMILES>  (1446) 
NS(=O)(=O)c1ccc(-n2c(O)ccc2O)nc1

>  <rationale>  (1446) 
info info set:sulfonimide_whole;hbond:S87+Y90; 

>  <experiment>  (1446) 
sulfonimide_whole

>  <cluster_label>  (1446) 
3

>  <cluster_rank>  (1446) 
1103

>  <N_interactions>  (1446) 
2

>  <∆∆G>  (1446) 
-4.672171

>  <comRMSD>  (1446) 
0.633692

>  <ROCS_TanimotoCombo>  (1446) 
0.332

>  <ROCS_ShapeTanimoto>  (1446) 
0.21

>  <ROCS_ColorTanimoto>  (1446) 
0.122

$$$$
Z2732500660
     RDKit          3D

 12 13  0  0  0  0  0  0  0  0999 V2000
   30.5426   12.8227    6.0806 O   0  0  0  0  0  0  0  0  0  0  0  0
   31.1956   11.9238    6.5875 C   0  0  0  0  0  0  0  0  0  0  0  0
   30.6136   11.0261    7.6699 C   0  0  0  0  0  0  0  0  0  0  0  0
   30.9918    9.5768    7.6566 C   0  0  0  0  0  0  0  0  0  0  0  0
   31.7533    9.4354    6.7013 O   0  0  0  0  0  0  0  0  0  0  0  0
   32.7796   10.4336    6.8169 C   0  0  0  0  0  0  0  0  0  0  0  0
   32.6597   11.6528    6.2067 C   0  0  0  0  0  0  0  0  0  0  0  0
   33.0807   10.7367    5.0192 C   0  0  0  0  0  0  0  0  0  0  0  0
   34.5502   10.6256    4.7475 C   0  0  0  0  0  0  0  0  0  0  0  0
   35.0122   12.0882    4.6726 C   0  0  0  0  0  0  0  0  0  0  0  0
   34.9038   12.8835    6.0037 C   0  0  0  0  0  0  0  0  0  0  0  0
   33.5866   12.6455    6.8100 C   0  0  0  0  0  0  0  0  0  0  0  0
  1  2  2  0
  2  3  1  0
  3  4  1  0
  4  5  1  0
  5  6  1  0
  6  7  1  0
  7  8  1  0
  8  9  1  0
  9 10  1  0
 10 11  1  0
 11 12  1  0
  7  2  1  0
 12  7  1  0
A    1
 O1 
A    2
 C1 
A    3
 C2 
A    4
 C3 
A    5
 O2 
A    6
 C4 
A    7
 C5 
A    8
 C6 
A    9
 C7 
A   10
 C8 
A   11
 C9 
A   12
 C10
M  END
>  <ref_pdb>  (1447) 
Ax0310a

>  <ref_mols>  (1447) 
Ax0446a,Ax1080a,Ax0812a,Ax0719a,Ax1140a,Ax0528a,Ax0310a

>  <original SMILES>  (1447) 
O=C1CCOCC12CCCCC2

>  <rationale>  (1447) 
info info set:3d;hydroph_interaction:P107; 

>  <experiment>  (1447) 
3d

>  <cluster_label>  (1447) 
3

>  <cluster_rank>  (1447) 
1104

>  <N_interactions>  (1447) 
1

>  <∆∆G>  (1447) 
-0.350464

>  <comRMSD>  (1447) 
0.802729

>  <ROCS_TanimotoCombo>  (1447) 
0.295

>  <ROCS_ShapeTanimoto>  (1447) 
0.172

>  <ROCS_ColorTanimoto>  (1447) 
0.123

$$$$
EN300_1695862
     RDKit          3D

 15 16  0  0  0  0  0  0  0  0999 V2000
   35.2228   14.9399    7.3597 N   0  0  0  0  0  0  0  0  0  0  0  0
   34.4964   13.4562    7.6612 S   0  0  0  0  0  6  0  0  0  0  0  0
   34.7346   13.0678    9.0217 O   0  0  0  0  0  0  0  0  0  0  0  0
   34.7312   12.7050    6.4534 O   0  0  0  0  0  0  0  0  0  0  0  0
   32.8490   13.8374    7.6717 C   0  0  0  0  0  0  0  0  0  0  0  0
   31.7237   13.0172    8.1412 C   0  0  1  0  0  0  0  0  0  0  0  0
   30.8991   13.8677    8.9053 C   0  0  0  0  0  0  0  0  0  0  0  0
   30.2794   13.3326    7.5755 C   0  0  2  0  0  0  0  0  0  0  0  0
   29.1822   12.3001    7.7432 C   0  0  0  0  0  0  0  0  0  0  0  0
   30.3611   11.2833    7.4432 C   0  0  0  0  0  0  0  0  0  0  0  0
   30.4589    9.9574    8.2172 C   0  0  0  0  0  0  0  0  0  0  0  0
   31.5421    8.9766    7.8698 C   0  0  0  0  0  0  0  0  0  0  0  0
   32.5404    9.2878    6.7703 C   0  0  0  0  0  0  0  0  0  0  0  0
   32.5383   10.5738    5.9823 C   0  0  0  0  0  0  0  0  0  0  0  0
   31.4310   11.5794    6.3321 C   0  0  0  0  0  0  0  0  0  0  0  0
  1  2  1  0
  2  3  2  0
  2  4  2  0
  2  5  1  0
  6  5  1  6
  6  7  1  0
  7  8  1  0
  8  9  1  1
  9 10  1  0
 10 11  2  0
 11 12  1  0
 12 13  2  0
 13 14  1  0
 14 15  2  0
  8  6  1  0
 15 10  1  0
A    1
 N1 
A    2
 S1 
A    3
 O1 
A    4
 O2 
A    5
 C1 
A    6
 C2 
A    7
 C3 
A    8
 C4 
A    9
 C5 
A   10
 C6 
A   11
 C7 
A   12
 C8 
A   13
 C9 
A   14
 C10
A   15
 C11
M  END
>  <ref_pdb>  (1448) 
Ax0310a

>  <ref_mols>  (1448) 
Ax0446a,Ax1080a,Ax0812a,Ax0719a,Ax1140a,Ax0528a,Ax0310a

>  <original SMILES>  (1448) 
NS(=O)(=O)C[C@H]1C[C@@H]1Cc1ccccc1

>  <rationale>  (1448) 
info info set:sulfonimide_joint;hbond:G127+E85; hydroph_interaction:P107; 

>  <experiment>  (1448) 
sulfonimide_joint

>  <cluster_label>  (1448) 
3

>  <cluster_rank>  (1448) 
1105

>  <N_interactions>  (1448) 
3

>  <∆∆G>  (1448) 
-1.468033

>  <comRMSD>  (1448) 
0.838174

>  <ROCS_TanimotoCombo>  (1448) 
0.306

>  <ROCS_ShapeTanimoto>  (1448) 
0.167

>  <ROCS_ColorTanimoto>  (1448) 
0.138

$$$$
EN300_3126054
     RDKit          3D

 13 13  0  0  0  0  0  0  0  0999 V2000
   35.0587    8.5009    5.0051 C   0  0  0  0  0  0  0  0  0  0  0  0
   33.7519    8.9661    4.8526 N   0  0  0  0  0  0  0  0  0  0  0  0
   32.9680    9.5999    5.8396 C   0  0  0  0  0  0  0  0  0  0  0  0
   32.1999    8.8882    6.7446 N   0  0  0  0  0  0  0  0  0  0  0  0
   31.3857    9.5644    7.6041 C   0  0  0  0  0  0  0  0  0  0  0  0
   31.2999   11.1295    7.6126 C   0  0  0  0  0  0  0  0  0  0  0  0
   30.4678   11.8891    8.4314 N   0  0  0  0  0  0  0  0  0  0  0  0
   32.1148   11.7818    6.7302 C   0  0  0  0  0  0  0  0  0  0  0  0
   32.9949   10.9873    5.7999 C   0  0  0  0  0  0  0  0  0  0  0  0
   33.8950   11.6661    4.8140 C   0  0  0  0  0  0  0  0  0  0  0  0
   35.0302   11.3260    4.5086 O   0  0  0  0  0  0  0  0  0  0  0  0
   33.1230   12.7914    4.3314 O   0  0  0  0  0  0  0  0  0  0  0  0
   33.9425   13.8450    3.8308 C   0  0  0  0  0  0  0  0  0  0  0  0
  1  2  1  0
  2  3  1  0
  3  4  2  0
  4  5  1  0
  5  6  2  0
  6  7  1  0
  6  8  1  0
  8  9  2  0
  9 10  1  0
 10 11  2  0
 10 12  1  0
 12 13  1  0
  9  3  1  0
A    1
 C1 
A    2
 N1 
A    3
 C2 
A    4
 N2 
A    5
 C3 
A    6
 C4 
A    7
 N3 
A    8
 C5 
A    9
 C6 
A   10
 C7 
A   11
 O1 
A   12
 O2 
A   13
 C8 
M  END
>  <ref_pdb>  (1449) 
Ax0310a

>  <ref_mols>  (1449) 
Ax0446a,Ax1080a,Ax0812a,Ax0719a,Ax1140a,Ax0528a,Ax0310a

>  <original SMILES>  (1449) 
CNc1ncc(N)cc1C(=O)OC

>  <rationale>  (1449) 
info info set:bb_densepocket2;hbond:S125+G127; hydroph_interaction:P107; 

>  <experiment>  (1449) 
bb_densepocket2

>  <cluster_label>  (1449) 
3

>  <cluster_rank>  (1449) 
1106

>  <N_interactions>  (1449) 
3

>  <∆∆G>  (1449) 
-3.053044

>  <comRMSD>  (1449) 
0.577724

>  <ROCS_TanimotoCombo>  (1449) 
0.611

>  <ROCS_ShapeTanimoto>  (1449) 
0.218

>  <ROCS_ColorTanimoto>  (1449) 
0.392

$$$$
EN300_126371
     RDKit          3D

 14 14  0  0  0  0  0  0  0  0999 V2000
   33.2062   13.7108    7.9028 C   0  0  0  0  0  0  0  0  0  0  0  0
   31.8403   13.1230    8.3012 C   0  0  2  0  0  0  0  0  0  0  0  0
   31.8128   11.8307    7.8809 C   0  0  0  0  0  0  0  0  0  0  0  0
   30.9537   10.8415    8.3181 C   0  0  0  0  0  0  0  0  0  0  0  0
   31.0593    9.5760    7.8878 C   0  0  0  0  0  0  0  0  0  0  0  0
   32.0246    9.2611    6.9952 C   0  0  0  0  0  0  0  0  0  0  0  0
   32.1456    8.0963    6.6489 F   0  0  0  0  0  0  0  0  0  0  0  0
   32.8903   10.1781    6.4620 C   0  0  0  0  0  0  0  0  0  0  0  0
   32.8695   11.4888    6.8321 C   0  0  0  0  0  0  0  0  0  0  0  0
   33.7393   12.3529    6.3002 F   0  0  0  0  0  0  0  0  0  0  0  0
   30.2295   13.8031    7.9408 S   0  0  0  0  0  6  0  0  0  0  0  0
   29.1295   12.7520    8.6044 N   0  0  0  0  0  0  0  0  0  0  0  0
   30.0663   14.9926    8.7410 O   0  0  0  0  0  0  0  0  0  0  0  0
   29.9566   13.6960    6.5282 O   0  0  0  0  0  0  0  0  0  0  0  0
  2  1  1  6
  2  3  1  0
  3  4  2  0
  4  5  1  0
  5  6  2  0
  6  7  1  0
  6  8  1  0
  8  9  2  0
  9 10  1  0
  2 11  1  0
 11 12  1  0
 11 13  2  0
 11 14  2  0
  9  3  1  0
A    1
 C1 
A    2
 C2 
A    3
 C3 
A    4
 C4 
A    5
 C5 
A    6
 C6 
A    7
 F1 
A    8
 C7 
A    9
 C8 
A   10
 F2 
A   11
 S1 
A   12
 N1 
A   13
 O1 
A   14
 O2 
M  END
>  <ref_pdb>  (1450) 
Ax0310a

>  <ref_mols>  (1450) 
Ax0446a,Ax1080a,Ax0812a,Ax0719a,Ax1140a,Ax0528a,Ax0310a

>  <original SMILES>  (1450) 
C[C@H](c1ccc(F)cc1F)S(N)(=O)=O

>  <rationale>  (1450) 
info info set:sulfonimide_whole;hbond:S87+S125; 

>  <experiment>  (1450) 
sulfonimide_whole

>  <cluster_label>  (1450) 
3

>  <cluster_rank>  (1450) 
1107

>  <N_interactions>  (1450) 
2

>  <∆∆G>  (1450) 
-1.010608

>  <comRMSD>  (1450) 
0.837544

>  <ROCS_TanimotoCombo>  (1450) 
0.336

>  <ROCS_ShapeTanimoto>  (1450) 
0.19

>  <ROCS_ColorTanimoto>  (1450) 
0.146

$$$$
EN300_738410
     RDKit          3D

 18 20  0  0  0  0  0  0  0  0999 V2000
   33.8006   13.1010    9.2663 O   0  0  0  0  0  0  0  0  0  0  0  0
   33.2123   13.5158    8.3019 C   0  0  0  0  0  0  0  0  0  0  0  0
   31.9630   14.0158    8.4919 O   0  0  0  0  0  0  0  0  0  0  0  0
   33.7027   13.4845    6.8452 C   0  0  0  0  0  0  0  0  0  0  0  0
   34.4684   14.6856    6.3484 C   0  0  0  0  0  0  0  0  0  0  0  0
   34.9765   14.7282    4.9127 C   0  0  0  0  0  0  0  0  0  0  0  0
   34.6496   13.4874    4.0618 C   0  0  0  0  0  0  0  0  0  0  0  0
   33.9338   12.4290    4.6607 C   0  0  0  0  0  0  0  0  0  0  0  0
   33.4871   12.4158    5.9721 C   0  0  0  0  0  0  0  0  0  0  0  0
   32.7645   11.1582    6.4074 C   0  0  0  0  0  0  0  0  0  0  0  0
   33.2460    9.7605    6.2245 C   0  0  0  0  0  0  0  0  0  0  0  0
   32.3504    8.9594    6.8022 N   0  0  0  0  0  0  0  0  0  0  0  0
   31.3281    9.7535    7.3369 N   0  0  0  0  0  0  0  0  0  0  0  0
   30.2230    9.2055    8.0738 C   0  0  0  0  0  0  0  0  0  0  0  0
   29.2227   10.1915    8.5665 C   0  0  0  0  0  0  0  0  0  0  0  0
   29.4847   11.6413    8.2036 C   0  0  0  0  0  0  0  0  0  0  0  0
   30.6084   12.1242    7.4967 N   0  0  0  0  0  0  0  0  0  0  0  0
   31.4709   11.1514    7.1132 C   0  0  0  0  0  0  0  0  0  0  0  0
  1  2  2  0
  2  3  1  0
  2  4  1  0
  4  5  2  0
  5  6  1  0
  6  7  2  0
  7  8  1  0
  8  9  2  0
  9 10  1  0
 10 11  1  0
 11 12  2  0
 12 13  1  0
 13 14  1  0
 14 15  2  0
 15 16  1  0
 16 17  2  0
 17 18  1  0
  9  4  1  0
 18 10  2  0
 18 13  1  0
A    1
 O1 
A    2
 C1 
A    3
 O2 
A    4
 C2 
A    5
 C3 
A    6
 C4 
A    7
 C5 
A    8
 C6 
A    9
 C7 
A   10
 C8 
A   11
 C9 
A   12
 N1 
A   13
 N2 
A   14
 C10
A   15
 C11
A   16
 C12
A   17
 N3 
A   18
 C13
M  END
>  <ref_pdb>  (1451) 
Ax0310a

>  <ref_mols>  (1451) 
Ax0446a,Ax1080a,Ax0812a,Ax0719a,Ax1140a,Ax0528a,Ax0310a

>  <original SMILES>  (1451) 
O=C(O)c1ccccc1-c1cnn2cccnc12

>  <rationale>  (1451) 
info info set:bb_whole;hbond:S87+G127; 

>  <experiment>  (1451) 
bb_whole

>  <cluster_label>  (1451) 
3

>  <cluster_rank>  (1451) 
1108

>  <N_interactions>  (1451) 
3

>  <∆∆G>  (1451) 
-1.150043

>  <comRMSD>  (1451) 
0.515715

>  <ROCS_TanimotoCombo>  (1451) 
0.41

>  <ROCS_ShapeTanimoto>  (1451) 
0.231

>  <ROCS_ColorTanimoto>  (1451) 
0.178

$$$$
EN300_26424
     RDKit          3D

 10 10  0  0  0  0  0  0  0  0999 V2000
   34.9339   12.4730    6.0792 N   0  0  0  0  0  0  0  0  0  0  0  0
   33.5450   12.8872    6.8901 S   0  0  0  0  0  6  0  0  0  0  0  0
   32.8616   13.7807    6.0134 O   0  0  0  0  0  0  0  0  0  0  0  0
   33.8872   13.1940    8.2784 O   0  0  0  0  0  0  0  0  0  0  0  0
   32.6418   11.4031    7.0641 C   0  0  0  0  0  0  0  0  0  0  0  0
   31.3717   11.6125    7.8413 C   0  0  0  0  0  0  0  0  0  0  0  0
   30.5473   10.3783    8.1024 C   0  0  0  0  0  0  0  0  0  0  0  0
   31.0766    9.0632    7.5554 C   0  0  0  0  0  0  0  0  0  0  0  0
   32.2370    9.0642    6.8525 N   0  0  0  0  0  0  0  0  0  0  0  0
   32.9920   10.1501    6.6026 C   0  0  0  0  0  0  0  0  0  0  0  0
  1  2  1  0
  2  3  2  0
  2  4  2  0
  2  5  1  0
  5  6  2  0
  6  7  1  0
  7  8  2  0
  8  9  1  0
  9 10  2  0
 10  5  1  0
A    1
 N1 
A    2
 S1 
A    3
 O1 
A    4
 O2 
A    5
 C1 
A    6
 C2 
A    7
 C3 
A    8
 C4 
A    9
 N2 
A   10
 C5 
M  END
>  <ref_pdb>  (1452) 
Ax0310a

>  <ref_mols>  (1452) 
Ax0446a,Ax1080a,Ax0812a,Ax0719a,Ax1140a,Ax0528a,Ax0310a

>  <original SMILES>  (1452) 
NS(=O)(=O)c1cccnc1

>  <rationale>  (1452) 
info info set:sulfonimide_joint;hbond:G127; 

>  <experiment>  (1452) 
sulfonimide_joint

>  <cluster_label>  (1452) 
3

>  <cluster_rank>  (1452) 
1109

>  <N_interactions>  (1452) 
2

>  <∆∆G>  (1452) 
-3.155216

>  <comRMSD>  (1452) 
0.999117

>  <ROCS_TanimotoCombo>  (1452) 
0.295

>  <ROCS_ShapeTanimoto>  (1452) 
0.128

>  <ROCS_ColorTanimoto>  (1452) 
0.167

$$$$
EN300_267115
     RDKit          3D

 16 16  0  0  0  0  0  0  0  0999 V2000
   33.8822   13.0830    3.7720 C   0  0  0  0  0  0  0  0  0  0  0  0
   33.3276   13.0186    5.1194 N   0  0  0  0  0  0  0  0  0  0  0  0
   33.9529   13.9372    6.0568 C   0  0  0  0  0  0  0  0  0  0  0  0
   33.0681   11.7598    5.6139 C   0  0  0  0  0  0  0  0  0  0  0  0
   33.7353   10.5484    5.0388 C   0  0  0  0  0  0  0  0  0  0  0  0
   33.3709    9.1923    5.6722 C   0  0  0  0  0  0  0  0  0  0  0  0
   32.5041    9.0802    6.6829 N   0  0  0  0  0  0  0  0  0  0  0  0
   31.9518   10.2237    7.1415 C   0  0  0  0  0  0  0  0  0  0  0  0
   31.0101   10.1227    8.2625 C   0  0  0  0  0  0  0  0  0  0  0  0
   30.2696   11.0337    8.5619 O   0  0  0  0  0  0  0  0  0  0  0  0
   31.1168    8.9266    8.8785 O   0  0  0  0  0  0  0  0  0  0  0  0
   29.8769    8.3310    9.1882 C   0  0  0  0  0  0  0  0  0  0  0  0
   29.3258    8.6512   10.2051 C   0  0  0  0  0  0  0  0  0  0  0  0
   29.0926    8.8003    8.1274 C   0  0  0  0  0  0  0  0  0  0  0  0
   29.7867    6.9358    9.1971 C   0  0  0  0  0  0  0  0  0  0  0  0
   32.1864   11.5149    6.6672 C   0  0  0  0  0  0  0  0  0  0  0  0
  1  2  1  0
  2  3  1  0
  2  4  1  0
  4  5  2  0
  5  6  1  0
  6  7  2  0
  7  8  1  0
  8  9  1  0
  9 10  2  0
  9 11  1  0
 11 12  1  0
 12 13  1  0
 12 14  1  0
 12 15  1  0
  8 16  2  0
 16  4  1  0
A    1
 C1 
A    2
 N1 
A    3
 C2 
A    4
 C3 
A    5
 C4 
A    6
 C5 
A    7
 N2 
A    8
 C6 
A    9
 C7 
A   10
 O1 
A   11
 O2 
A   12
 C8 
A   13
 C9 
A   14
 C10
A   15
 C11
A   16
 C12
M  END
>  <ref_pdb>  (1453) 
Ax0310a

>  <ref_mols>  (1453) 
Ax0446a,Ax1080a,Ax0812a,Ax0719a,Ax1140a,Ax0528a,Ax0310a

>  <original SMILES>  (1453) 
CN(C)c1ccnc(C(=O)OC(C)(C)C)c1

>  <rationale>  (1453) 
info info set:bb_densepocket2;hydroph_interaction:V124+D109; 

>  <experiment>  (1453) 
bb_densepocket2

>  <cluster_label>  (1453) 
3

>  <cluster_rank>  (1453) 
1110

>  <N_interactions>  (1453) 
3

>  <∆∆G>  (1453) 
-2.122183

>  <comRMSD>  (1453) 
0.550918

>  <ROCS_TanimotoCombo>  (1453) 
0.609

>  <ROCS_ShapeTanimoto>  (1453) 
0.217

>  <ROCS_ColorTanimoto>  (1453) 
0.393

$$$$
Z131221354
     RDKit          3D

 20 21  0  0  0  0  0  0  0  0999 V2000
   28.0794   14.4714    6.4520 C   0  0  0  0  0  0  0  0  0  0  0  0
   27.7633   15.2951    7.5573 O   0  0  0  0  0  0  0  0  0  0  0  0
   28.8799   15.2870    8.3597 C   0  0  0  0  0  0  0  0  0  0  0  0
   29.5210   16.4597    9.0370 C   0  0  0  0  0  0  0  0  0  0  0  0
   30.8220   16.2407    9.9055 C   0  0  0  0  0  0  0  0  0  0  0  0
   31.3977   14.8667   10.0415 C   0  0  0  0  0  0  0  0  0  0  0  0
   30.6650   13.8126    9.3229 C   0  0  0  0  0  0  0  0  0  0  0  0
   29.5742   14.0149    8.6055 C   0  0  0  0  0  0  0  0  0  0  0  0
   29.0243   12.7932    7.9965 C   0  0  0  0  0  0  0  0  0  0  0  0
   30.1013   12.1738    7.3080 N   0  0  0  0  0  0  0  0  0  0  0  0
   30.6351   11.0816    7.8729 C   0  0  0  0  0  0  0  0  0  0  0  0
   30.2910   10.6495    8.9349 O   0  0  0  0  0  0  0  0  0  0  0  0
   31.6186   10.3385    7.2071 C   0  0  0  0  0  0  0  0  0  0  0  0
   31.6748    9.0193    7.4012 C   0  0  0  0  0  0  0  0  0  0  0  0
   30.8109    8.3390    8.2465 C   0  0  0  0  0  0  0  0  0  0  0  0
   32.7171    8.4612    6.6294 O   0  0  0  0  0  0  0  0  0  0  0  0
   33.2754    9.5322    5.9666 C   0  0  0  0  0  0  0  0  0  0  0  0
   34.4411    9.2214    5.0284 C   0  0  0  0  0  0  0  0  0  0  0  0
   32.6367   10.7145    6.3058 C   0  0  0  0  0  0  0  0  0  0  0  0
   32.9044   12.0104    5.8722 C   0  0  0  0  0  0  0  0  0  0  0  0
  1  2  1  0
  2  3  1  0
  3  4  2  0
  4  5  1  0
  5  6  2  0
  6  7  1  0
  7  8  2  0
  8  9  1  0
  9 10  1  0
 10 11  1  0
 11 12  2  0
 11 13  1  0
 13 14  2  0
 14 15  1  0
 14 16  1  0
 16 17  1  0
 17 18  1  0
 17 19  2  0
 19 20  1  0
  8  3  1  0
 19 13  1  0
A    1
 C1 
A    2
 O1 
A    3
 C2 
A    4
 C3 
A    5
 C4 
A    6
 C5 
A    7
 C6 
A    8
 C7 
A    9
 C8 
A   10
 N1 
A   11
 C9 
A   12
 O2 
A   13
 C10
A   14
 C11
A   15
 C12
A   16
 O3 
A   17
 C13
A   18
 C14
A   19
 C15
A   20
 C16
M  END
>  <ref_pdb>  (1454) 
Ax0310a

>  <ref_mols>  (1454) 
Ax0446a,Ax1080a,Ax0812a,Ax0719a,Ax1140a,Ax0528a,Ax0310a

>  <original SMILES>  (1454) 
COc1ccccc1CNC(=O)c1c(C)oc(C)c1C

>  <rationale>  (1454) 
info info set:screening_pocket;hydroph_interaction:P107+Y90+V124+T126+V84; 

>  <experiment>  (1454) 
screening_pocket

>  <cluster_label>  (1454) 
3

>  <cluster_rank>  (1454) 
1111

>  <N_interactions>  (1454) 
5

>  <∆∆G>  (1454) 
-6.144848

>  <comRMSD>  (1454) 
0.820998

>  <ROCS_TanimotoCombo>  (1454) 
0.623

>  <ROCS_ShapeTanimoto>  (1454) 
0.242

>  <ROCS_ColorTanimoto>  (1454) 
0.381

$$$$
EN300_6498782
     RDKit          3D

 14 14  0  0  0  0  0  0  0  0999 V2000
   33.8533   10.5056    3.0460 C   0  0  0  0  0  0  0  0  0  0  0  0
   33.1487   11.3158    4.0315 N   0  0  0  0  0  0  0  0  0  0  0  0
   33.7990   11.3246    5.5635 S   0  0  0  0  0  6  0  0  0  0  0  0
   34.8342   10.3285    5.4508 O   0  0  0  0  0  0  0  0  0  0  0  0
   34.0687   12.7180    5.8222 O   0  0  0  0  0  0  0  0  0  0  0  0
   32.4674   10.7875    6.6663 C   0  0  0  0  0  0  0  0  0  0  0  0
   32.1943    9.4247    7.1324 N   0  0  0  0  0  0  0  0  0  0  0  0
   31.1217    9.5627    7.9716 N   0  0  0  0  0  0  0  0  0  0  0  0
   30.5273    8.4938    8.7005 C   0  0  0  0  0  0  0  0  0  0  0  0
   30.6952   10.7597    8.0674 C   0  0  0  0  0  0  0  0  0  0  0  0
   31.5289   11.6592    7.2321 C   0  0  0  0  0  0  0  0  0  0  0  0
   31.3237   13.0432    7.1321 N   0  0  0  0  0  4  0  0  0  0  0  0
   30.3494   13.3441    6.4345 O   0  0  0  0  0  0  0  0  0  0  0  0
   31.6703   13.7013    8.1302 O   0  0  0  0  0  1  0  0  0  0  0  0
  1  2  1  0
  2  3  1  0
  3  4  2  0
  3  5  2  0
  3  6  1  0
  6  7  2  0
  7  8  1  0
  8  9  1  0
  8 10  1  0
 10 11  2  0
 11 12  1  0
 12 13  2  0
 12 14  1  0
 11  6  1  0
M  CHG  2  12   1  14  -1
A    1
 C1 
A    2
 N1 
A    3
 S1 
A    4
 O1 
A    5
 O2 
A    6
 C2 
A    7
 N2 
A    8
 N3 
A    9
 C3 
A   10
 C4 
A   11
 C5 
A   12
 N4 
A   13
 O3 
A   14
 O4 
M  END
>  <ref_pdb>  (1455) 
Ax0310a

>  <ref_mols>  (1455) 
Ax0446a,Ax1080a,Ax0812a,Ax0719a,Ax1140a,Ax0528a,Ax0310a

>  <original SMILES>  (1455) 
CNS(=O)(=O)c1nn(C)cc1[N+](=O)[O-]

>  <rationale>  (1455) 
info info set:sulfonimide_whole;

>  <experiment>  (1455) 
sulfonimide_whole

>  <cluster_label>  (1455) 
3

>  <cluster_rank>  (1455) 
1112

>  <N_interactions>  (1455) 
0

>  <∆∆G>  (1455) 
-4.498127

>  <comRMSD>  (1455) 
0.509868

>  <ROCS_TanimotoCombo>  (1455) 
0.342

>  <ROCS_ShapeTanimoto>  (1455) 
0.196

>  <ROCS_ColorTanimoto>  (1455) 
0.145

$$$$
EN300_28284
     RDKit          3D

 17 18  0  0  0  0  0  0  0  0999 V2000
   34.1332   12.8546    7.3462 N   0  0  0  0  0  0  0  0  0  0  0  0
   34.0670   12.0863    5.8353 S   0  0  0  0  0  6  0  0  0  0  0  0
   35.2113   11.2503    5.5662 O   0  0  0  0  0  0  0  0  0  0  0  0
   33.7647   13.2011    4.9876 O   0  0  0  0  0  0  0  0  0  0  0  0
   32.5940   11.1254    6.0488 C   0  0  1  0  0  0  0  0  0  0  0  0
   32.6608    9.6894    6.3718 C   0  0  0  0  0  0  0  0  0  0  0  0
   31.8025    9.0625    7.3492 C   0  0  0  0  0  0  0  0  0  0  0  0
   30.8002    9.8287    7.8801 C   0  0  0  0  0  0  0  0  0  0  0  0
   30.6405   11.1661    7.2672 N   0  0  0  0  0  0  0  0  0  0  0  0
   30.0223   11.8762    8.3097 C   0  0  0  0  0  0  0  0  0  0  0  0
   29.5623   13.1300    8.2008 C   0  0  0  0  0  0  0  0  0  0  0  0
   30.2172   14.0292    9.0195 C   0  0  0  0  0  0  0  0  0  0  0  0
   29.8363   15.3487    9.0156 C   0  0  0  0  0  0  0  0  0  0  0  0
   28.7961   15.7268    8.1747 C   0  0  0  0  0  0  0  0  0  0  0  0
   28.1667   14.7856    7.3702 C   0  0  0  0  0  0  0  0  0  0  0  0
   28.5472   13.4860    7.3815 C   0  0  0  0  0  0  0  0  0  0  0  0
   31.7780   11.7894    7.0901 C   0  0  0  0  0  0  0  0  0  0  0  0
  1  2  1  0
  2  3  2  0
  2  4  2  0
  5  2  1  1
  5  6  1  0
  6  7  1  0
  7  8  1  0
  8  9  1  0
  9 10  1  0
 10 11  1  0
 11 12  2  0
 12 13  1  0
 13 14  2  0
 14 15  1  0
 15 16  2  0
  9 17  1  0
 17  5  1  0
 16 11  1  0
A    1
 N1 
A    2
 S1 
A    3
 O1 
A    4
 O2 
A    5
 C1 
A    6
 C2 
A    7
 C3 
A    8
 C4 
A    9
 N2 
A   10
 C5 
A   11
 C6 
A   12
 C7 
A   13
 C8 
A   14
 C9 
A   15
 C10
A   16
 C11
A   17
 C12
M  END
>  <ref_pdb>  (1456) 
Ax0310a

>  <ref_mols>  (1456) 
Ax0446a,Ax1080a,Ax0812a,Ax0719a,Ax1140a,Ax0528a,Ax0310a

>  <original SMILES>  (1456) 
NS(=O)(=O)[C@H]1CCCN(Cc2ccccc2)C1

>  <rationale>  (1456) 
info info set:sulfonimide_whole;hbond:S87+G127; hydroph_interaction:Y89+Y90; 

>  <experiment>  (1456) 
sulfonimide_whole

>  <cluster_label>  (1456) 
3

>  <cluster_rank>  (1456) 
1113

>  <N_interactions>  (1456) 
4

>  <∆∆G>  (1456) 
-1.769447

>  <comRMSD>  (1456) 
0.717743

>  <ROCS_TanimotoCombo>  (1456) 
0.328

>  <ROCS_ShapeTanimoto>  (1456) 
0.22

>  <ROCS_ColorTanimoto>  (1456) 
0.108

$$$$
EN300_1268898
     RDKit          3D

 11 11  0  0  0  0  0  0  0  0999 V2000
   30.7959    7.8501    8.4385 C   0  0  0  0  0  0  0  0  0  0  0  0
   30.0066    9.0116    8.6857 C   0  0  0  0  0  0  0  0  0  0  0  0
   28.6819    8.8788    8.2535 C   0  0  0  0  0  0  0  0  0  0  0  0
   29.4650    8.7813    9.9903 C   0  0  0  0  0  0  0  0  0  0  0  0
   30.6863   10.3027    8.2827 C   0  0  0  0  0  0  0  0  0  0  0  0
   30.4844   11.4227    8.7177 O   0  0  0  0  0  0  0  0  0  0  0  0
   31.7509   10.2326    7.1601 C   0  0  0  0  0  0  0  0  0  0  0  0
   32.4143    9.1272    6.8586 N   0  0  0  0  0  0  0  0  0  0  0  0
   33.2714    9.3827    5.8176 C   0  0  0  0  0  0  0  0  0  0  0  0
   33.2220   10.8180    5.3235 C   0  0  0  0  0  0  0  0  0  0  0  0
   32.0784   11.6609    6.2650 S   0  0  0  0  0  0  0  0  0  0  0  0
  1  2  1  0
  2  3  1  0
  2  4  1  0
  2  5  1  0
  5  6  2  0
  5  7  1  0
  7  8  2  0
  8  9  1  0
  9 10  2  0
 10 11  1  0
 11  7  1  0
A    1
 C1 
A    2
 C2 
A    3
 C3 
A    4
 C4 
A    5
 C5 
A    6
 O1 
A    7
 C6 
A    8
 N1 
A    9
 C7 
A   10
 C8 
A   11
 S1 
M  END
>  <ref_pdb>  (1457) 
Ax0310a

>  <ref_mols>  (1457) 
Ax0446a,Ax1080a,Ax0812a,Ax0719a,Ax1140a,Ax0528a,Ax0310a

>  <original SMILES>  (1457) 
CC(C)(C)C(=O)c1nccs1

>  <rationale>  (1457) 
info info set:bb_densepocket2;

>  <experiment>  (1457) 
bb_densepocket2

>  <cluster_label>  (1457) 
3

>  <cluster_rank>  (1457) 
1114

>  <N_interactions>  (1457) 
0

>  <∆∆G>  (1457) 
-3.869371

>  <comRMSD>  (1457) 
0.628893

>  <ROCS_TanimotoCombo>  (1457) 
0.609

>  <ROCS_ShapeTanimoto>  (1457) 
0.17

>  <ROCS_ColorTanimoto>  (1457) 
0.44

$$$$
EN300_30557
     RDKit          3D

 18 18  0  0  0  0  0  0  0  0999 V2000
   34.7301    8.4289    4.0037 C   0  0  0  0  0  0  0  0  0  0  0  0
   33.6887    9.1202    4.6962 O   0  0  0  0  0  0  0  0  0  0  0  0
   34.1004   10.2545    5.2966 C   0  0  0  0  0  0  0  0  0  0  0  0
   35.1930   10.7738    5.1943 O   0  0  0  0  0  0  0  0  0  0  0  0
   32.9519   10.8168    6.1588 C   0  0  0  0  0  0  0  0  0  0  0  0
   32.4921   12.4761    6.2341 S   0  0  0  0  0  0  0  0  0  0  0  0
   31.2294   12.1873    7.3468 C   0  0  0  0  0  0  0  0  0  0  0  0
   30.2471   13.5416    7.9106 S   0  0  0  0  0  6  0  0  0  0  0  0
   28.9408   13.0272    8.8070 N   0  0  0  0  0  0  0  0  0  0  0  0
   29.6297   13.9928    6.6905 O   0  0  0  0  0  0  0  0  0  0  0  0
   31.0771   14.3596    8.7690 O   0  0  0  0  0  0  0  0  0  0  0  0
   31.1857   10.7400    7.6592 C   0  0  0  0  0  0  0  0  0  0  0  0
   30.3568   10.0851    8.4892 C   0  0  0  0  0  0  0  0  0  0  0  0
   30.5603    9.9136    9.5880 O   0  0  0  0  0  0  0  0  0  0  0  0
   29.3512    9.4729    8.0070 O   0  0  0  0  0  0  0  0  0  0  0  0
   29.5823    8.2247    8.5470 C   0  0  0  0  0  0  0  0  0  0  0  0
   32.1536   10.0374    6.9784 C   0  0  0  0  0  0  0  0  0  0  0  0
   32.1726    8.5774    7.2431 C   0  0  0  0  0  0  0  0  0  0  0  0
  1  2  1  0
  2  3  1  0
  3  4  2  0
  3  5  1  0
  5  6  1  0
  6  7  1  0
  7  8  1  0
  8  9  1  0
  8 10  2  0
  8 11  2  0
  7 12  2  0
 12 13  1  0
 13 14  2  0
 13 15  1  0
 15 16  1  0
 12 17  1  0
 17 18  1  0
 17  5  2  0
A    1
 C1 
A    2
 O1 
A    3
 C2 
A    4
 O2 
A    5
 C3 
A    6
 S1 
A    7
 C4 
A    8
 S2 
A    9
 N1 
A   10
 O3 
A   11
 O4 
A   12
 C5 
A   13
 C6 
A   14
 O5 
A   15
 O6 
A   16
 C7 
A   17
 C8 
A   18
 C9 
M  END
>  <ref_pdb>  (1458) 
Ax0310a

>  <ref_mols>  (1458) 
Ax0446a,Ax1080a,Ax0812a,Ax0719a,Ax1140a,Ax0528a,Ax0310a

>  <original SMILES>  (1458) 
COC(=O)c1sc(S(N)(=O)=O)c(C(=O)OC)c1C

>  <rationale>  (1458) 
info info set:sulfonimide_whole;hbond:S87+S125; 

>  <experiment>  (1458) 
sulfonimide_whole

>  <cluster_label>  (1458) 
3

>  <cluster_rank>  (1458) 
1115

>  <N_interactions>  (1458) 
2

>  <∆∆G>  (1458) 
-3.183268

>  <comRMSD>  (1458) 
0.760588

>  <ROCS_TanimotoCombo>  (1458) 
0.342

>  <ROCS_ShapeTanimoto>  (1458) 
0.201

>  <ROCS_ColorTanimoto>  (1458) 
0.141

$$$$
Z1201627901
     RDKit          3D

 10 11  0  0  0  0  0  0  0  0999 V2000
   29.8949   12.8340    6.8418 O   0  0  0  0  0  0  0  0  0  0  0  0
   30.8682   12.5244    7.8264 C   0  0  0  0  0  0  0  0  0  0  0  0
   31.5288   11.2471    7.3560 C   0  0  0  0  0  0  0  0  0  0  0  0
   31.1530    9.9138    7.6680 N   0  0  0  0  0  0  0  0  0  0  0  0
   31.9945    9.0376    7.0301 N   0  0  0  0  0  0  0  0  0  0  0  0
   32.8742    9.8059    6.3346 C   0  0  0  0  0  0  0  0  0  0  0  0
   32.7202   11.1820    6.4529 C   0  0  0  0  0  0  0  0  0  0  0  0
   33.7366   11.9890    5.6787 C   0  0  0  0  0  0  0  0  0  0  0  0
   34.6174   10.8727    5.1083 C   0  0  0  0  0  0  0  0  0  0  0  0
   34.0146    9.4889    5.4273 C   0  0  0  0  0  0  0  0  0  0  0  0
  1  2  1  0
  2  3  1  0
  3  4  1  0
  4  5  1  0
  5  6  2  0
  6  7  1  0
  7  8  1  0
  8  9  1  0
  9 10  1  0
  7  3  2  0
 10  6  1  0
A    1
 O1 
A    2
 C1 
A    3
 C2 
A    4
 N1 
A    5
 N2 
A    6
 C3 
A    7
 C4 
A    8
 C5 
A    9
 C6 
A   10
 C7 
M  END
>  <ref_pdb>  (1459) 
Ax0310a

>  <ref_mols>  (1459) 
Ax0446a,Ax1080a,Ax0812a,Ax0719a,Ax1140a,Ax0528a,Ax0310a

>  <original SMILES>  (1459) 
OCc1[nH]nc2c1CCC2

>  <rationale>  (1459) 
info info set:3d;

>  <experiment>  (1459) 
3d

>  <cluster_label>  (1459) 
3

>  <cluster_rank>  (1459) 
1116

>  <N_interactions>  (1459) 
0

>  <∆∆G>  (1459) 
-3.134414

>  <comRMSD>  (1459) 
0.576248

>  <ROCS_TanimotoCombo>  (1459) 
0.303

>  <ROCS_ShapeTanimoto>  (1459) 
0.166

>  <ROCS_ColorTanimoto>  (1459) 
0.136

$$$$
EN300_188495
     RDKit          3D

 15 15  0  0  0  0  0  0  0  0999 V2000
   34.0258    8.9455    5.5341 C   0  0  0  0  0  0  0  0  0  0  0  0
   32.9453    8.6991    6.4296 O   0  0  0  0  0  0  0  0  0  0  0  0
   32.3227    9.8300    6.7748 C   0  0  0  0  0  0  0  0  0  0  0  0
   32.6432   10.9986    6.1704 C   0  0  0  0  0  0  0  0  0  0  0  0
   32.0290   12.1659    6.5053 C   0  0  0  0  0  0  0  0  0  0  0  0
   32.5239   13.3575    5.7232 C   0  0  0  0  0  0  0  0  0  0  0  0
   31.0337   12.1536    7.5021 C   0  0  0  0  0  0  0  0  0  0  0  0
   30.2128   13.6201    7.9718 S   0  0  0  0  0  6  0  0  0  0  0  0
   28.9257   13.1981    8.9365 N   0  0  0  0  0  0  0  0  0  0  0  0
   29.5430   14.1220    6.8021 O   0  0  0  0  0  0  0  0  0  0  0  0
   31.0951   14.3903    8.8301 O   0  0  0  0  0  0  0  0  0  0  0  0
   30.6585   10.8619    8.1861 C   0  0  0  0  0  0  0  0  0  0  0  0
   31.3584    9.7593    7.7606 C   0  0  0  0  0  0  0  0  0  0  0  0
   31.2012    8.5619    8.2282 O   0  0  0  0  0  0  0  0  0  0  0  0
   30.3100    8.5265    9.2770 C   0  0  0  0  0  0  0  0  0  0  0  0
  1  2  1  0
  2  3  1  0
  3  4  2  0
  4  5  1  0
  5  6  1  0
  5  7  2  0
  7  8  1  0
  8  9  1  0
  8 10  2  0
  8 11  2  0
  7 12  1  0
 12 13  2  0
 13 14  1  0
 14 15  1  0
 13  3  1  0
A    1
 C1 
A    2
 O1 
A    3
 C2 
A    4
 C3 
A    5
 C4 
A    6
 C5 
A    7
 C6 
A    8
 S1 
A    9
 N1 
A   10
 O2 
A   11
 O3 
A   12
 C7 
A   13
 C8 
A   14
 O4 
A   15
 C9 
M  END
>  <ref_pdb>  (1460) 
Ax0310a

>  <ref_mols>  (1460) 
Ax0446a,Ax1080a,Ax0812a,Ax0719a,Ax1140a,Ax0528a,Ax0310a

>  <original SMILES>  (1460) 
COc1cc(C)c(S(N)(=O)=O)cc1OC

>  <rationale>  (1460) 
info info set:sulfonimide_whole;hbond:S87+S125; hydroph_interaction:P107; 

>  <experiment>  (1460) 
sulfonimide_whole

>  <cluster_label>  (1460) 
3

>  <cluster_rank>  (1460) 
1117

>  <N_interactions>  (1460) 
3

>  <∆∆G>  (1460) 
-8.890521

>  <comRMSD>  (1460) 
0.828642

>  <ROCS_TanimotoCombo>  (1460) 
0.327

>  <ROCS_ShapeTanimoto>  (1460) 
0.199

>  <ROCS_ColorTanimoto>  (1460) 
0.129

$$$$
EN300_1120695
     RDKit          3D

 13 13  0  0  0  0  0  0  0  0999 V2000
   34.6927   14.9325    8.4828 N   0  0  0  0  0  0  0  0  0  0  0  0
   33.4931   13.7742    8.5626 S   0  0  0  0  0  6  0  0  0  0  0  0
   34.1692   12.7780    9.2842 O   0  0  0  0  0  0  0  0  0  0  0  0
   32.3196   14.4514    9.0710 O   0  0  0  0  0  0  0  0  0  0  0  0
   33.3573   13.2571    6.8488 C   0  0  0  0  0  0  0  0  0  0  0  0
   32.3285   12.1714    6.4487 C   0  0  1  0  0  0  0  0  0  0  0  0
   32.9749   10.8471    6.2026 C   0  0  0  0  0  0  0  0  0  0  0  0
   32.3729    9.6811    6.5613 C   0  0  0  0  0  0  0  0  0  0  0  0
   31.3230    9.5980    7.5509 C   0  0  0  0  0  0  0  0  0  0  0  0
   30.6207   10.9047    7.9200 C   0  0  0  0  0  0  0  0  0  0  0  0
   31.0981   12.1287    7.3773 C   0  0  0  0  0  0  0  0  0  0  0  0
   31.2811   12.9425    8.4261 F   0  0  0  0  0  0  0  0  0  0  0  0
   30.0838   12.7080    6.6873 F   0  0  0  0  0  0  0  0  0  0  0  0
  1  2  1  0
  2  3  2  0
  2  4  2  0
  2  5  1  0
  6  5  1  1
  6  7  1  0
  7  8  1  0
  8  9  1  0
  9 10  1  0
 10 11  1  0
 11 12  1  0
 11 13  1  0
 11  6  1  0
A    1
 N1 
A    2
 S1 
A    3
 O1 
A    4
 O2 
A    5
 C1 
A    6
 C2 
A    7
 C3 
A    8
 C4 
A    9
 C5 
A   10
 C6 
A   11
 C7 
A   12
 F1 
A   13
 F2 
M  END
>  <ref_pdb>  (1461) 
Ax0310a

>  <ref_mols>  (1461) 
Ax0446a,Ax1080a,Ax0812a,Ax0719a,Ax1140a,Ax0528a,Ax0310a

>  <original SMILES>  (1461) 
NS(=O)(=O)C[C@H]1CCCCC1(F)F

>  <rationale>  (1461) 
info info set:sulfonimide_whole;hbond:S87+G127+E85; 

>  <experiment>  (1461) 
sulfonimide_whole

>  <cluster_label>  (1461) 
3

>  <cluster_rank>  (1461) 
1118

>  <N_interactions>  (1461) 
3

>  <∆∆G>  (1461) 
-1.610117

>  <comRMSD>  (1461) 
0.56488

>  <ROCS_TanimotoCombo>  (1461) 
0.329

>  <ROCS_ShapeTanimoto>  (1461) 
0.19

>  <ROCS_ColorTanimoto>  (1461) 
0.139

$$$$
Z131166820
     RDKit          3D

 15 16  0  0  0  0  0  0  0  0999 V2000
   32.6052   14.1213    8.9185 N   0  0  0  0  0  0  0  0  0  0  0  0
   31.5242   13.8938    8.5680 C   0  0  0  0  0  0  0  0  0  0  0  0
   30.1159   13.5301    8.2427 C   0  0  0  0  0  0  0  0  0  0  0  0
   29.8617   12.2606    8.4193 C   0  0  0  0  0  0  0  0  0  0  0  0
   28.6249   12.2859    8.8371 O   0  0  0  0  0  0  0  0  0  0  0  0
   30.7061   11.2926    8.1704 N   0  0  0  0  0  0  0  0  0  0  0  0
   31.8389   11.6312    7.2973 C   0  0  0  0  0  0  0  0  0  0  0  0
   32.2201   10.5489    6.5065 C   0  0  0  0  0  0  0  0  0  0  0  0
   32.4561    9.4952    7.0826 O   0  0  0  0  0  0  0  0  0  0  0  0
   31.5486    9.0395    7.7759 C   0  0  0  0  0  0  0  0  0  0  0  0
   30.5224    9.8425    8.4016 C   0  0  0  0  0  0  0  0  0  0  0  0
   29.2699   14.3692    8.9501 C   0  0  0  0  0  0  0  0  0  0  0  0
   28.1795   14.5766    8.1339 C   0  0  0  0  0  0  0  0  0  0  0  0
   28.5475   14.4345    6.8280 C   0  0  0  0  0  0  0  0  0  0  0  0
   29.6493   13.5953    6.7472 C   0  0  0  0  0  0  0  0  0  0  0  0
  1  2  3  0
  2  3  1  0
  3  4  1  0
  4  5  2  0
  4  6  1  0
  6  7  1  0
  7  8  1  0
  8  9  1  0
  9 10  1  0
 10 11  1  0
  3 12  1  0
 12 13  1  0
 13 14  1  0
 14 15  1  0
 15  3  1  0
 11  6  1  0
A    1
 N1 
A    2
 C1 
A    3
 C2 
A    4
 C3 
A    5
 O1 
A    6
 N2 
A    7
 C4 
A    8
 C5 
A    9
 O2 
A   10
 C6 
A   11
 C7 
A   12
 C8 
A   13
 C9 
A   14
 C10
A   15
 C11
M  END
>  <ref_pdb>  (1462) 
Ax0310a

>  <ref_mols>  (1462) 
Ax0446a,Ax1080a,Ax0812a,Ax0719a,Ax1140a,Ax0528a,Ax0310a

>  <original SMILES>  (1462) 
N#CC1(C(=O)N2CCOCC2)CCCC1

>  <rationale>  (1462) 
info info set:3d;hbond:S87; 

>  <experiment>  (1462) 
3d

>  <cluster_label>  (1462) 
3

>  <cluster_rank>  (1462) 
1119

>  <N_interactions>  (1462) 
1

>  <∆∆G>  (1462) 
-0.253927

>  <comRMSD>  (1462) 
0.615627

>  <ROCS_TanimotoCombo>  (1462) 
0.3

>  <ROCS_ShapeTanimoto>  (1462) 
0.187

>  <ROCS_ColorTanimoto>  (1462) 
0.113

$$$$
EN300_26685629
     RDKit          3D

 18 19  0  0  0  0  0  0  0  0999 V2000
   36.6975   11.8844    3.5345 C   0  0  0  0  0  0  0  0  0  0  0  0
   35.5977   11.1464    4.2609 C   0  0  0  0  0  0  0  0  0  0  0  0
   35.5530    9.6650    4.0164 C   0  0  0  0  0  0  0  0  0  0  0  0
   34.5351    8.6942    4.6628 C   0  0  0  0  0  0  0  0  0  0  0  0
   33.5864    9.5886    5.6217 C   0  0  0  0  0  0  0  0  0  0  0  0
   32.6327    8.9065    6.3272 N   0  0  0  0  0  0  0  0  0  0  0  0
   31.7707    9.5573    7.1471 C   0  0  0  0  0  0  0  0  0  0  0  0
   30.7360    8.8260    7.9605 C   0  0  0  0  0  0  0  0  0  0  0  0
   31.8074   11.0603    7.2976 C   0  0  0  0  0  0  0  0  0  0  0  0
   30.7916   11.6680    8.1818 C   0  0  0  0  0  0  0  0  0  0  0  0
   30.1376   10.8828    8.8021 O   0  0  0  0  0  0  0  0  0  0  0  0
   30.6449   13.0186    8.2236 N   0  0  0  0  0  0  0  0  0  0  0  0
   29.4440   13.5544    8.8323 C   0  0  0  0  0  0  0  0  0  0  0  0
   28.8438   14.6190    7.9644 C   0  0  0  0  0  0  0  0  0  0  0  0
   28.4396   15.4120    7.2559 N   0  0  0  0  0  0  0  0  0  0  0  0
   32.7559   11.7679    6.6330 C   0  0  0  0  0  0  0  0  0  0  0  0
   33.7180   11.0031    5.7444 C   0  0  0  0  0  0  0  0  0  0  0  0
   34.6918   11.7455    5.0901 C   0  0  0  0  0  0  0  0  0  0  0  0
  1  2  1  0
  2  3  2  0
  3  4  1  0
  4  5  2  0
  5  6  1  0
  6  7  2  0
  7  8  1  0
  7  9  1  0
  9 10  1  0
 10 11  2  0
 10 12  1  0
 12 13  1  0
 13 14  1  0
 14 15  3  0
  9 16  2  0
 16 17  1  0
 17 18  2  0
 18  2  1  0
 17  5  1  0
A    1
 C1 
A    2
 C2 
A    3
 C3 
A    4
 C4 
A    5
 C5 
A    6
 N1 
A    7
 C6 
A    8
 C7 
A    9
 C8 
A   10
 C9 
A   11
 O1 
A   12
 N2 
A   13
 C10
A   14
 C11
A   15
 N3 
A   16
 C12
A   17
 C13
A   18
 C14
M  END
>  <ref_pdb>  (1463) 
Ax0310a

>  <ref_mols>  (1463) 
Ax0446a,Ax1080a,Ax0812a,Ax0719a,Ax1140a,Ax0528a,Ax0310a

>  <original SMILES>  (1463) 
Cc1ccc2nc(C)c(C(=O)NCC#N)cc2c1

>  <rationale>  (1463) 
info info set:bb_densepocket2;hbond:S87; 

>  <experiment>  (1463) 
bb_densepocket2

>  <cluster_label>  (1463) 
3

>  <cluster_rank>  (1463) 
1120

>  <N_interactions>  (1463) 
2

>  <∆∆G>  (1463) 
-4.332897

>  <comRMSD>  (1463) 
0.654174

>  <ROCS_TanimotoCombo>  (1463) 
0.609

>  <ROCS_ShapeTanimoto>  (1463) 
0.267

>  <ROCS_ColorTanimoto>  (1463) 
0.343

$$$$
Z45527644
     RDKit          3D

 13 13  0  0  0  0  0  0  0  0999 V2000
   34.1421   10.2949    5.6340 C   0  0  0  0  0  0  0  0  0  0  0  0
   32.9780   10.1902    6.3685 C   0  0  0  0  0  0  0  0  0  0  0  0
   32.3761    9.0108    6.4414 N   0  0  0  0  0  0  0  0  0  0  0  0
   31.2418    9.2082    7.1877 O   0  0  0  0  0  0  0  0  0  0  0  0
   31.2084   10.5032    7.5538 C   0  0  0  0  0  0  0  0  0  0  0  0
   30.1607   10.9364    8.2962 C   0  0  0  0  0  0  0  0  0  0  0  0
   32.2723   11.1463    7.0899 C   0  0  0  0  0  0  0  0  0  0  0  0
   32.5916   12.8398    7.3953 S   0  0  0  0  0  6  0  0  0  0  0  0
   33.3754   12.8958    8.6065 O   0  0  0  0  0  0  0  0  0  0  0  0
   31.3114   13.4932    7.3178 O   0  0  0  0  0  0  0  0  0  0  0  0
   33.5915   13.3798    6.1325 N   0  0  0  0  0  0  0  0  0  0  0  0
   32.9840   13.4418    4.9003 C   0  0  0  0  0  0  0  0  0  0  0  0
   34.5686   14.2808    6.5274 C   0  0  0  0  0  0  0  0  0  0  0  0
  1  2  1  0
  2  3  2  0
  3  4  1  0
  4  5  1  0
  5  6  1  0
  5  7  2  0
  7  8  1  0
  8  9  2  0
  8 10  2  0
  8 11  1  0
 11 12  1  0
 11 13  1  0
  7  2  1  0
A    1
 C1 
A    2
 C2 
A    3
 N1 
A    4
 O1 
A    5
 C3 
A    6
 C4 
A    7
 C5 
A    8
 S1 
A    9
 O2 
A   10
 O3 
A   11
 N2 
A   12
 C6 
A   13
 C7 
M  END
>  <ref_pdb>  (1464) 
Ax0310a

>  <ref_mols>  (1464) 
Ax0446a,Ax1080a,Ax0812a,Ax0719a,Ax1140a,Ax0528a,Ax0310a

>  <original SMILES>  (1464) 
Cc1noc(C)c1S(=O)(=O)N(C)C

>  <rationale>  (1464) 
info info set:3d;hbond:S87+G127; 

>  <experiment>  (1464) 
3d

>  <cluster_label>  (1464) 
3

>  <cluster_rank>  (1464) 
1121

>  <N_interactions>  (1464) 
2

>  <∆∆G>  (1464) 
-5.887244

>  <comRMSD>  (1464) 
0.827578

>  <ROCS_TanimotoCombo>  (1464) 
0.299

>  <ROCS_ShapeTanimoto>  (1464) 
0.179

>  <ROCS_ColorTanimoto>  (1464) 
0.12

$$$$
Z125403266
     RDKit          3D

 16 17  0  0  0  0  0  0  0  0999 V2000
   30.7188   10.3303    8.9518 O   0  0  0  0  0  0  0  0  0  0  0  0
   30.8711   11.0261    7.9714 C   0  0  0  0  0  0  0  0  0  0  0  0
   29.7738   11.8161    7.4819 N   0  0  0  0  0  0  0  0  0  0  0  0
   29.7039   13.1696    7.6980 C   0  0  0  0  0  0  0  0  0  0  0  0
   28.3139   13.4730    7.2364 C   0  0  0  0  0  0  0  0  0  0  0  0
   28.1795   14.7964    7.1734 C   0  0  0  0  0  0  0  0  0  0  0  0
   28.5436   15.4848    8.4630 C   0  0  0  0  0  0  0  0  0  0  0  0
   29.6383   15.0008    9.2011 C   0  0  0  0  0  0  0  0  0  0  0  0
   29.5754   13.6382    9.1424 C   0  0  0  0  0  0  0  0  0  0  0  0
   32.0064   10.9736    7.3035 N   0  0  0  0  0  0  0  0  0  0  0  0
   32.3262   12.1383    6.5082 C   0  0  0  0  0  0  0  0  0  0  0  0
   33.2565   11.9490    5.4127 C   0  0  0  0  0  0  0  0  0  0  0  0
   33.8659   10.6277    5.1856 C   0  0  0  0  0  0  0  0  0  0  0  0
   35.2775   10.7947    5.3314 O   0  0  0  0  0  0  0  0  0  0  0  0
   33.4881    9.4549    5.8309 C   0  0  0  0  0  0  0  0  0  0  0  0
   32.3182    9.6482    6.7831 C   0  0  0  0  0  0  0  0  0  0  0  0
  1  2  2  0
  2  3  1  0
  3  4  1  0
  4  5  1  0
  5  6  1  0
  6  7  1  0
  7  8  1  0
  8  9  1  0
  2 10  1  0
 10 11  1  0
 11 12  1  0
 12 13  1  0
 13 14  1  0
 13 15  1  0
 15 16  1  0
  9  4  1  0
 16 10  1  0
A    1
 O1 
A    2
 C1 
A    3
 N1 
A    4
 C2 
A    5
 C3 
A    6
 C4 
A    7
 C5 
A    8
 C6 
A    9
 C7 
A   10
 N2 
A   11
 C8 
A   12
 C9 
A   13
 C10
A   14
 O2 
A   15
 C11
A   16
 C12
M  END
>  <ref_pdb>  (1465) 
Ax0310a

>  <ref_mols>  (1465) 
Ax0446a,Ax1080a,Ax0812a,Ax0719a,Ax1140a,Ax0528a,Ax0310a

>  <original SMILES>  (1465) 
O=C(NC1CCCCC1)N1CCC(O)CC1

>  <rationale>  (1465) 
info info set:3d;hydroph_interaction:Y89+Y90; 

>  <experiment>  (1465) 
3d

>  <cluster_label>  (1465) 
3

>  <cluster_rank>  (1465) 
1122

>  <N_interactions>  (1465) 
2

>  <∆∆G>  (1465) 
-1.39079

>  <comRMSD>  (1465) 
0.889071

>  <ROCS_TanimotoCombo>  (1465) 
0.292

>  <ROCS_ShapeTanimoto>  (1465) 
0.184

>  <ROCS_ColorTanimoto>  (1465) 
0.108

$$$$
EN300_9442126
     RDKit          3D

 15 15  0  0  0  0  0  0  0  0999 V2000
   33.7359    8.8658    5.9201 C   0  0  0  0  0  0  0  0  0  0  0  0
   32.6171    8.5222    6.7188 O   0  0  0  0  0  0  0  0  0  0  0  0
   31.9975    9.6277    7.1168 C   0  0  0  0  0  0  0  0  0  0  0  0
   30.9266    9.6507    7.9991 C   0  0  0  0  0  0  0  0  0  0  0  0
   30.3713   10.8700    8.3296 C   0  0  0  0  0  0  0  0  0  0  0  0
   30.9853   12.0719    7.7049 C   0  0  0  0  0  0  0  0  0  0  0  0
   30.2849   13.6314    8.1099 S   0  0  0  0  0  6  0  0  0  0  0  0
   28.9485   13.3972    9.0766 N   0  0  0  0  0  0  0  0  0  0  0  0
   31.2391   14.3901    8.8967 O   0  0  0  0  0  0  0  0  0  0  0  0
   29.6477   14.0900    6.9027 O   0  0  0  0  0  0  0  0  0  0  0  0
   32.0322   12.0529    6.8485 C   0  0  0  0  0  0  0  0  0  0  0  0
   32.5732   13.2327    6.2846 O   0  0  0  0  0  0  0  0  0  0  0  0
   32.5212   13.4519    4.8557 C   0  0  0  0  0  0  0  0  0  0  0  0
   32.5604   10.8054    6.5359 C   0  0  0  0  0  0  0  0  0  0  0  0
   33.7356   10.7281    5.5680 C   0  0  0  0  0  0  0  0  0  0  0  0
  1  2  1  0
  2  3  1  0
  3  4  2  0
  4  5  1  0
  5  6  2  0
  6  7  1  0
  7  8  1  0
  7  9  2  0
  7 10  2  0
  6 11  1  0
 11 12  1  0
 12 13  1  0
 11 14  2  0
 14 15  1  0
 14  3  1  0
A    1
 C1 
A    2
 O1 
A    3
 C2 
A    4
 C3 
A    5
 C4 
A    6
 C5 
A    7
 S1 
A    8
 N1 
A    9
 O2 
A   10
 O3 
A   11
 C6 
A   12
 O4 
A   13
 C7 
A   14
 C8 
A   15
 C9 
M  END
>  <ref_pdb>  (1466) 
Ax0310a

>  <ref_mols>  (1466) 
Ax0446a,Ax1080a,Ax0812a,Ax0719a,Ax1140a,Ax0528a,Ax0310a

>  <original SMILES>  (1466) 
COc1ccc(S(N)(=O)=O)c(OC)c1C

>  <rationale>  (1466) 
info info set:sulfonimide_whole;hbond:S87+S125; 

>  <experiment>  (1466) 
sulfonimide_whole

>  <cluster_label>  (1466) 
3

>  <cluster_rank>  (1466) 
1123

>  <N_interactions>  (1466) 
2

>  <∆∆G>  (1466) 
-5.279378

>  <comRMSD>  (1466) 
0.797406

>  <ROCS_TanimotoCombo>  (1466) 
0.336

>  <ROCS_ShapeTanimoto>  (1466) 
0.202

>  <ROCS_ColorTanimoto>  (1466) 
0.134

$$$$
EN300_79919
     RDKit          3D

 14 14  0  0  0  0  0  0  0  0999 V2000
   30.8771    7.9392    8.4502 C   0  0  0  0  0  0  0  0  0  0  0  0
   31.8972    8.1952    7.4786 O   0  0  0  0  0  0  0  0  0  0  0  0
   31.7267    9.4882    7.3892 C   0  0  0  0  0  0  0  0  0  0  0  0
   30.6261    9.9067    8.2233 C   0  0  0  0  0  0  0  0  0  0  0  0
   30.2418   11.2458    8.3185 C   0  0  0  0  0  0  0  0  0  0  0  0
   30.8942   12.2053    7.6455 C   0  0  0  0  0  0  0  0  0  0  0  0
   30.1878   13.7635    8.0222 S   0  0  0  0  0  6  0  0  0  0  0  0
   28.9331   13.5256    9.1044 N   0  0  0  0  0  0  0  0  0  0  0  0
   29.4821   14.2131    6.8548 O   0  0  0  0  0  0  0  0  0  0  0  0
   31.1840   14.4947    8.7755 O   0  0  0  0  0  0  0  0  0  0  0  0
   31.9854   11.9170    6.7817 C   0  0  0  0  0  0  0  0  0  0  0  0
   32.6257   13.0925    6.0694 C   0  0  0  0  0  0  0  0  0  0  0  0
   32.4425   10.5900    6.6064 C   0  0  0  0  0  0  0  0  0  0  0  0
   33.5976   10.2648    5.6863 C   0  0  0  0  0  0  0  0  0  0  0  0
  1  2  1  0
  2  3  1  0
  3  4  2  0
  4  5  1  0
  5  6  2  0
  6  7  1  0
  7  8  1  0
  7  9  2  0
  7 10  2  0
  6 11  1  0
 11 12  1  0
 11 13  2  0
 13 14  1  0
 13  3  1  0
A    1
 C1 
A    2
 O1 
A    3
 C2 
A    4
 C3 
A    5
 C4 
A    6
 C5 
A    7
 S1 
A    8
 N1 
A    9
 O2 
A   10
 O3 
A   11
 C6 
A   12
 C7 
A   13
 C8 
A   14
 C9 
M  END
>  <ref_pdb>  (1467) 
Ax0310a

>  <ref_mols>  (1467) 
Ax0446a,Ax1080a,Ax0812a,Ax0719a,Ax1140a,Ax0528a,Ax0310a

>  <original SMILES>  (1467) 
COc1ccc(S(N)(=O)=O)c(C)c1C

>  <rationale>  (1467) 
info info set:sulfonimide_whole;hbond:S87+S125; 

>  <experiment>  (1467) 
sulfonimide_whole

>  <cluster_label>  (1467) 
3

>  <cluster_rank>  (1467) 
1124

>  <N_interactions>  (1467) 
2

>  <∆∆G>  (1467) 
-8.447345

>  <comRMSD>  (1467) 
0.608703

>  <ROCS_TanimotoCombo>  (1467) 
0.328

>  <ROCS_ShapeTanimoto>  (1467) 
0.196

>  <ROCS_ColorTanimoto>  (1467) 
0.132

$$$$
EN300_252340
     RDKit          3D

 14 14  0  0  0  0  0  0  0  0999 V2000
   35.5720    7.8258    4.4372 C   0  0  0  0  0  0  0  0  0  0  0  0
   34.9160    8.2995    5.6029 O   0  0  0  0  0  0  0  0  0  0  0  0
   34.3024    9.5619    5.4319 C   0  0  0  0  0  0  0  0  0  0  0  0
   34.6728   10.4378    4.6656 O   0  0  0  0  0  0  0  0  0  0  0  0
   33.1134    9.9975    6.2386 C   0  0  0  0  0  0  0  0  0  0  0  0
   32.6153   11.2898    6.3232 C   0  0  0  0  0  0  0  0  0  0  0  0
   31.5448   11.2354    7.1646 C   0  0  0  0  0  0  0  0  0  0  0  0
   30.6072   12.6798    7.5474 S   0  0  0  0  0  6  0  0  0  0  0  0
   29.2435   12.1738    8.3201 N   0  0  0  0  0  0  0  0  0  0  0  0
   30.1159   13.2441    6.3136 O   0  0  0  0  0  0  0  0  0  0  0  0
   31.3656   13.4326    8.5168 O   0  0  0  0  0  0  0  0  0  0  0  0
   31.3736    9.9245    7.6077 C   0  0  0  0  0  0  0  0  0  0  0  0
   30.4261    9.3966    8.4755 C   0  0  0  0  0  0  0  0  0  0  0  0
   32.3485    9.1438    7.0289 O   0  0  0  0  0  0  0  0  0  0  0  0
  1  2  1  0
  2  3  1  0
  3  4  2  0
  3  5  1  0
  5  6  2  0
  6  7  1  0
  7  8  1  0
  8  9  1  0
  8 10  2  0
  8 11  2  0
  7 12  2  0
 12 13  1  0
 12 14  1  0
 14  5  1  0
A    1
 C1 
A    2
 O1 
A    3
 C2 
A    4
 O2 
A    5
 C3 
A    6
 C4 
A    7
 C5 
A    8
 S1 
A    9
 N1 
A   10
 O3 
A   11
 O4 
A   12
 C6 
A   13
 C7 
A   14
 O5 
M  END
>  <ref_pdb>  (1468) 
Ax0310a

>  <ref_mols>  (1468) 
Ax0446a,Ax1080a,Ax0812a,Ax0719a,Ax1140a,Ax0528a,Ax0310a

>  <original SMILES>  (1468) 
COC(=O)c1cc(S(N)(=O)=O)c(C)o1

>  <rationale>  (1468) 
info info set:sulfonimide_whole;hbond:S87+S125; 

>  <experiment>  (1468) 
sulfonimide_whole

>  <cluster_label>  (1468) 
3

>  <cluster_rank>  (1468) 
1125

>  <N_interactions>  (1468) 
2

>  <∆∆G>  (1468) 
-7.022527

>  <comRMSD>  (1468) 
0.659085

>  <ROCS_TanimotoCombo>  (1468) 
0.328

>  <ROCS_ShapeTanimoto>  (1468) 
0.187

>  <ROCS_ColorTanimoto>  (1468) 
0.141

$$$$
EN300_744887
     RDKit          3D

 16 17  0  0  0  0  0  0  0  0999 V2000
   32.9845   12.8090    3.4735 C   0  0  0  0  0  0  0  0  0  0  0  0
   33.4322   11.5235    4.0973 C   0  0  0  0  0  0  0  0  0  0  0  0
   34.5522   10.7397    3.4470 C   0  0  0  0  0  0  0  0  0  0  0  0
   34.9427    9.4532    4.1487 C   0  0  0  0  0  0  0  0  0  0  0  0
   34.2980    9.0426    5.3007 C   0  0  0  0  0  0  0  0  0  0  0  0
   33.2742    9.8208    5.8058 C   0  0  0  0  0  0  0  0  0  0  0  0
   32.5409    9.5343    6.9033 O   0  0  0  0  0  0  0  0  0  0  0  0
   31.6345   10.5497    7.0554 C   0  0  0  0  0  0  0  0  0  0  0  0
   30.7503   10.4826    8.0636 C   0  0  0  0  0  0  0  0  0  0  0  0
   30.4399   11.4645    8.7097 O   0  0  0  0  0  0  0  0  0  0  0  0
   30.1582    9.1161    8.3118 C   0  0  0  0  0  0  0  0  0  0  0  0
   30.2456    8.9042    9.6862 C   0  0  0  0  0  0  0  0  0  0  0  0
   31.0563    8.0478    7.9469 C   0  0  0  0  0  0  0  0  0  0  0  0
   28.7131    8.9451    8.3524 C   0  0  0  0  0  0  0  0  0  0  0  0
   31.8136   11.4630    6.0912 C   0  0  0  0  0  0  0  0  0  0  0  0
   32.8488   11.0096    5.2591 C   0  0  0  0  0  0  0  0  0  0  0  0
  1  2  1  0
  2  3  2  0
  3  4  1  0
  4  5  2  0
  5  6  1  0
  6  7  1  0
  7  8  1  0
  8  9  1  0
  9 10  2  0
  9 11  1  0
 11 12  1  0
 11 13  1  0
 11 14  1  0
  8 15  2  0
 15 16  1  0
 16  2  1  0
 16  6  2  0
A    1
 C1 
A    2
 C2 
A    3
 C3 
A    4
 C4 
A    5
 C5 
A    6
 C6 
A    7
 O1 
A    8
 C7 
A    9
 C8 
A   10
 O2 
A   11
 C9 
A   12
 C10
A   13
 C11
A   14
 C12
A   15
 C13
A   16
 C14
M  END
>  <ref_pdb>  (1469) 
Ax0310a

>  <ref_mols>  (1469) 
Ax0446a,Ax1080a,Ax0812a,Ax0719a,Ax1140a,Ax0528a,Ax0310a

>  <original SMILES>  (1469) 
Cc1cccc2oc(C(=O)C(C)(C)C)cc12

>  <rationale>  (1469) 
info info set:bb_densepocket2;hydroph_interaction:P107; 

>  <experiment>  (1469) 
bb_densepocket2

>  <cluster_label>  (1469) 
3

>  <cluster_rank>  (1469) 
1126

>  <N_interactions>  (1469) 
1

>  <∆∆G>  (1469) 
-4.331392

>  <comRMSD>  (1469) 
0.795169

>  <ROCS_TanimotoCombo>  (1469) 
0.608

>  <ROCS_ShapeTanimoto>  (1469) 
0.22

>  <ROCS_ColorTanimoto>  (1469) 
0.388

$$$$
EN300_1268917
     RDKit          3D

 11 11  0  0  0  0  0  0  0  0999 V2000
   34.4291    8.8859    5.0210 C   0  0  0  0  0  0  0  0  0  0  0  0
   33.4227    9.7707    5.6774 C   0  0  0  0  0  0  0  0  0  0  0  0
   33.2545   11.2450    5.2761 C   0  0  0  0  0  0  0  0  0  0  0  0
   32.0561   11.9566    6.2242 S   0  0  0  0  0  0  0  0  0  0  0  0
   31.8135   10.4627    7.0452 C   0  0  0  0  0  0  0  0  0  0  0  0
   30.7727   10.4418    8.1245 C   0  0  0  0  0  0  0  0  0  0  0  0
   30.4847   11.4338    8.7481 O   0  0  0  0  0  0  0  0  0  0  0  0
   30.0767    9.1324    8.3385 C   0  0  0  0  0  0  0  0  0  0  0  0
   28.8922    9.3447    8.9334 C   0  0  0  0  0  0  0  0  0  0  0  0
   30.8122    8.1205    9.0997 C   0  0  0  0  0  0  0  0  0  0  0  0
   32.5559    9.4084    6.6915 N   0  0  0  0  0  0  0  0  0  0  0  0
  1  2  1  0
  2  3  2  0
  3  4  1  0
  4  5  1  0
  5  6  1  0
  6  7  2  0
  6  8  1  0
  8  9  1  0
  8 10  1  0
  5 11  2  0
 11  2  1  0
A    1
 C1 
A    2
 C2 
A    3
 C3 
A    4
 S1 
A    5
 C4 
A    6
 C5 
A    7
 O1 
A    8
 C6 
A    9
 C7 
A   10
 C8 
A   11
 N1 
M  END
>  <ref_pdb>  (1470) 
Ax0310a

>  <ref_mols>  (1470) 
Ax0446a,Ax1080a,Ax0812a,Ax0719a,Ax1140a,Ax0528a,Ax0310a

>  <original SMILES>  (1470) 
Cc1csc(C(=O)C(C)C)n1

>  <rationale>  (1470) 
info info set:bb_densepocket2;hydroph_interaction:V124; 

>  <experiment>  (1470) 
bb_densepocket2

>  <cluster_label>  (1470) 
3

>  <cluster_rank>  (1470) 
1127

>  <N_interactions>  (1470) 
1

>  <∆∆G>  (1470) 
-5.904751

>  <comRMSD>  (1470) 
0.726262

>  <ROCS_TanimotoCombo>  (1470) 
0.612

>  <ROCS_ShapeTanimoto>  (1470) 
0.182

>  <ROCS_ColorTanimoto>  (1470) 
0.429

$$$$
EN300_203911
     RDKit          3D

 15 16  0  0  0  0  0  0  0  0999 V2000
   34.7736   14.8566    6.4080 C   0  0  0  0  0  0  0  0  0  0  0  0
   33.5607   14.1145    6.6414 N   0  0  0  0  0  0  0  0  0  0  0  0
   33.1266   13.7437    8.2157 S   0  0  0  0  0  6  0  0  0  0  0  0
   32.6832   14.8226    9.0655 O   0  0  0  0  0  0  0  0  0  0  0  0
   34.1582   12.9085    8.7072 O   0  0  0  0  0  0  0  0  0  0  0  0
   31.7414   12.7810    8.0846 C   0  0  0  0  0  0  0  0  0  0  0  0
   30.3215   13.2854    8.5813 C   0  0  0  0  0  0  0  0  0  0  0  0
   29.2100   12.3127    8.5172 C   0  0  0  0  0  0  0  0  0  0  0  0
   29.6306   10.8713    8.0129 C   0  0  0  0  0  0  0  0  0  0  0  0
   30.8993   10.6177    7.5909 C   0  0  0  0  0  0  0  0  0  0  0  0
   31.1630    9.3546    7.1552 C   0  0  0  0  0  0  0  0  0  0  0  0
   32.2972    8.9155    6.6267 N   0  0  0  0  0  0  0  0  0  0  0  0
   33.2423    9.8158    6.5357 C   0  0  0  0  0  0  0  0  0  0  0  0
   33.1069   11.1179    7.0120 C   0  0  0  0  0  0  0  0  0  0  0  0
   31.9115   11.5249    7.5686 C   0  0  0  0  0  0  0  0  0  0  0  0
  1  2  1  0
  2  3  1  0
  3  4  2  0
  3  5  2  0
  3  6  1  0
  6  7  2  0
  7  8  1  0
  8  9  2  0
  9 10  1  0
 10 11  2  0
 11 12  1  0
 12 13  2  0
 13 14  1  0
 14 15  2  0
 15  6  1  0
 15 10  1  0
A    1
 C1 
A    2
 N1 
A    3
 S1 
A    4
 O1 
A    5
 O2 
A    6
 C2 
A    7
 C3 
A    8
 C4 
A    9
 C5 
A   10
 C6 
A   11
 C7 
A   12
 N2 
A   13
 C8 
A   14
 C9 
A   15
 C10
M  END
>  <ref_pdb>  (1471) 
Ax0310a

>  <ref_mols>  (1471) 
Ax0446a,Ax1080a,Ax0812a,Ax0719a,Ax1140a,Ax0528a,Ax0310a

>  <original SMILES>  (1471) 
CNS(=O)(=O)c1cccc2cnccc12

>  <rationale>  (1471) 
info info set:sulfonimide_whole;hbond:S87+G127; 

>  <experiment>  (1471) 
sulfonimide_whole

>  <cluster_label>  (1471) 
3

>  <cluster_rank>  (1471) 
1128

>  <N_interactions>  (1471) 
2

>  <∆∆G>  (1471) 
-0.172697

>  <comRMSD>  (1471) 
0.81139

>  <ROCS_TanimotoCombo>  (1471) 
0.333

>  <ROCS_ShapeTanimoto>  (1471) 
0.193

>  <ROCS_ColorTanimoto>  (1471) 
0.14

$$$$
Z2960297654
     RDKit          3D

 21 23  0  0  0  0  0  0  0  0999 V2000
   35.2831    8.1182    4.5585 C   0  0  0  0  0  0  0  0  0  0  0  0
   34.6050    9.4372    4.5489 C   0  0  0  0  0  0  0  0  0  0  0  0
   33.4992    9.8272    5.5120 C   0  0  0  0  0  0  0  0  0  0  0  0
   32.8617    8.8988    6.3041 N   0  0  0  0  0  0  0  0  0  0  0  0
   31.8649    9.3351    7.1241 C   0  0  0  0  0  0  0  0  0  0  0  0
   31.2454    8.5425    7.8578 O   0  0  0  0  0  0  0  0  0  0  0  0
   31.5240   10.8214    7.1146 C   0  0  0  0  0  0  0  0  0  0  0  0
   30.3898   11.1441    8.0626 C   0  0  0  0  0  0  0  0  0  0  0  0
   30.2544   10.3584    8.9781 O   0  0  0  0  0  0  0  0  0  0  0  0
   29.6142   12.2110    7.7902 N   0  0  0  0  0  0  0  0  0  0  0  0
   29.5597   12.6411    6.4268 C   0  0  0  0  0  0  0  0  0  0  0  0
   28.2425   13.0025    6.1287 C   0  0  0  0  0  0  0  0  0  0  0  0
   27.6686   13.9296    6.9030 C   0  0  0  0  0  0  0  0  0  0  0  0
   27.8835   13.7260    8.2344 C   0  0  2  0  0  0  0  0  0  0  0  0
   27.7919   15.0124    9.0172 C   0  0  0  0  0  0  0  0  0  0  0  0
   28.9424   15.6761    8.6018 O   0  0  0  0  0  0  0  0  0  0  0  0
   29.7615   14.6037    8.1239 C   0  0  0  0  0  0  0  0  0  0  0  0
   29.2391   13.3504    8.5769 C   0  0  2  0  0  0  0  0  0  0  0  0
   32.2005   11.6911    6.3165 C   0  0  0  0  0  0  0  0  0  0  0  0
   33.1969   11.1874    5.5068 C   0  0  0  0  0  0  0  0  0  0  0  0
   33.9240   12.0993    4.6421 C   0  0  0  0  0  0  0  0  0  0  0  0
  1  2  1  0
  2  3  1  0
  3  4  2  0
  4  5  1  0
  5  6  1  0
  5  7  2  0
  7  8  1  0
  8  9  2  0
  8 10  1  0
 10 11  1  0
 11 12  1  0
 12 13  1  0
 14 13  1  6
 14 15  1  0
 15 16  1  0
 16 17  1  0
 18 17  1  6
  7 19  1  0
 19 20  2  0
 20 21  1  0
 20  3  1  0
 18 10  1  0
 18 14  1  0
A    1
 C1 
A    2
 C2 
A    3
 C3 
A    4
 N1 
A    5
 C4 
A    6
 O1 
A    7
 C5 
A    8
 C6 
A    9
 O2 
A   10
 N2 
A   11
 C7 
A   12
 C8 
A   13
 C9 
A   14
 C10
A   15
 C11
A   16
 O3 
A   17
 C12
A   18
 C13
A   19
 C14
A   20
 C15
A   21
 C16
M  END
>  <ref_pdb>  (1472) 
Ax0310a

>  <ref_mols>  (1472) 
Ax0446a,Ax1080a,Ax0812a,Ax0719a,Ax1140a,Ax0528a,Ax0310a

>  <original SMILES>  (1472) 
CCc1nc(O)c(C(=O)N2CCC[C@@H]3COC[C@@H]32)cc1C

>  <rationale>  (1472) 
info info set:screening_pocket;hbond:S87; hydroph_interaction:P107+Y89; 

>  <experiment>  (1472) 
screening_pocket

>  <cluster_label>  (1472) 
3

>  <cluster_rank>  (1472) 
1129

>  <N_interactions>  (1472) 
4

>  <∆∆G>  (1472) 
-0.352642

>  <comRMSD>  (1472) 
0.938908

>  <ROCS_TanimotoCombo>  (1472) 
0.628

>  <ROCS_ShapeTanimoto>  (1472) 
0.272

>  <ROCS_ColorTanimoto>  (1472) 
0.356

$$$$
Z236917794
     RDKit          3D

 20 21  0  0  0  0  0  0  0  0999 V2000
   31.5719   13.7902    8.3771 C   0  0  0  0  0  0  0  0  0  0  0  0
   30.6170   14.6602    9.0453 N   0  0  0  0  0  0  0  0  0  0  0  0
   29.3344   14.6580    8.4710 C   0  0  0  0  0  0  0  0  0  0  0  0
   28.6241   15.7994    7.9574 O   0  0  0  0  0  0  0  0  0  0  0  0
   28.6710   13.2874    8.3433 C   0  0  0  0  0  0  0  0  0  0  0  0
   29.3871   12.6095    7.4571 N   0  0  0  0  0  0  0  0  0  0  0  0
   29.2903   13.1739    6.1409 C   0  0  0  0  0  0  0  0  0  0  0  0
   30.1838   11.5242    7.8308 C   0  0  0  0  0  0  0  0  0  0  0  0
   30.1696   10.6120    8.9398 O   0  0  0  0  0  0  0  0  0  0  0  0
   31.2818   10.9022    7.0969 C   0  0  0  0  0  0  0  0  0  0  0  0
   32.0587   11.7709    6.1364 C   0  0  0  0  0  0  0  0  0  0  0  0
   33.0934   10.9257    5.4844 C   0  0  0  0  0  0  0  0  0  0  0  0
   33.6087   12.0136    4.6615 C   0  0  0  0  0  0  0  0  0  0  0  0
   34.7518   11.4957    3.7855 C   0  0  0  0  0  0  0  0  0  0  0  0
   35.1359   10.0253    3.9149 C   0  0  0  0  0  0  0  0  0  0  0  0
   34.4870    9.1461    4.7994 C   0  0  0  0  0  0  0  0  0  0  0  0
   33.4387    9.6240    5.5981 C   0  0  0  0  0  0  0  0  0  0  0  0
   32.6906    8.9129    6.5152 C   0  0  0  0  0  0  0  0  0  0  0  0
   31.5723    9.5582    7.2916 C   0  0  0  0  0  0  0  0  0  0  0  0
   30.8708    8.7757    8.1705 O   0  0  0  0  0  0  0  0  0  0  0  0
  1  2  1  0
  2  3  1  0
  3  4  2  0
  3  5  1  0
  5  6  1  0
  6  7  1  0
  6  8  1  0
  8  9  2  0
  8 10  1  0
 10 11  2  0
 11 12  1  0
 12 13  2  0
 13 14  1  0
 14 15  2  0
 15 16  1  0
 16 17  2  0
 17 18  1  0
 18 19  2  0
 19 20  1  0
 19 10  1  0
 17 12  1  0
A    1
 C1 
A    2
 N1 
A    3
 C2 
A    4
 O1 
A    5
 C3 
A    6
 N2 
A    7
 C4 
A    8
 C5 
A    9
 O2 
A   10
 C6 
A   11
 C7 
A   12
 C8 
A   13
 C9 
A   14
 C10
A   15
 C11
A   16
 C12
A   17
 C13
A   18
 C14
A   19
 C15
A   20
 O3 
M  END
>  <ref_pdb>  (1473) 
Ax0310a

>  <ref_mols>  (1473) 
Ax0446a,Ax1080a,Ax0812a,Ax0719a,Ax1140a,Ax0528a,Ax0310a

>  <original SMILES>  (1473) 
CNC(=O)CN(C)C(=O)c1cc2ccccc2cc1O

>  <rationale>  (1473) 
info info set:screening_pocket;hbond:S87+Y90; hydroph_interaction:P107; 

>  <experiment>  (1473) 
screening_pocket

>  <cluster_label>  (1473) 
3

>  <cluster_rank>  (1473) 
1130

>  <N_interactions>  (1473) 
3

>  <∆∆G>  (1473) 
-6.955466

>  <comRMSD>  (1473) 
0.897979

>  <ROCS_TanimotoCombo>  (1473) 
0.623

>  <ROCS_ShapeTanimoto>  (1473) 
0.283

>  <ROCS_ColorTanimoto>  (1473) 
0.341

$$$$
Z773510720
     RDKit          3D

 22 23  0  0  0  0  0  0  0  0999 V2000
   33.7583   10.6700    3.4024 C   0  0  0  0  0  0  0  0  0  0  0  0
   34.2496   10.1369    4.7065 C   0  0  0  0  0  0  0  0  0  0  0  0
   34.8760    8.7366    4.5835 C   0  0  0  0  0  0  0  0  0  0  0  0
   35.2837   11.1991    5.0246 C   0  0  0  0  0  0  0  0  0  0  0  0
   33.2756   10.1066    5.7037 N   0  0  0  0  0  0  0  0  0  0  0  0
   32.8436    8.8878    6.1362 N   0  0  0  0  0  0  0  0  0  0  0  0
   31.9165    9.1249    7.0551 C   0  0  0  0  0  0  0  0  0  0  0  0
   31.7036   10.5915    7.2650 C   0  0  0  0  0  0  0  0  0  0  0  0
   30.7723   11.0741    8.1713 C   0  0  0  0  0  0  0  0  0  0  0  0
   30.3381   10.2918    8.9867 O   0  0  0  0  0  0  0  0  0  0  0  0
   30.3819   12.4030    8.0942 N   0  0  0  0  0  0  0  0  0  0  0  0
   29.0227   12.8309    8.3998 C   0  0  0  0  0  0  0  0  0  0  0  0
   28.2446   13.0123    7.1214 C   0  0  0  0  0  0  0  0  0  0  0  0
   27.8285   14.4292    6.9996 C   0  0  0  0  0  0  0  0  0  0  0  0
   28.8478   15.3864    7.3048 O   0  0  0  0  0  0  0  0  0  0  0  0
   29.5456   15.1362    8.5247 C   0  0  0  0  0  0  0  0  0  0  0  0
   28.8960   14.0653    9.2797 C   0  0  0  0  0  0  0  0  0  0  0  0
   32.6272   11.1501    6.3720 C   0  0  0  0  0  0  0  0  0  0  0  0
   32.9105   12.5569    6.1265 C   0  0  0  0  0  0  0  0  0  0  0  0
   32.6890   12.9145    4.8403 F   0  0  0  0  0  0  0  0  0  0  0  0
   34.1826   12.9162    6.3992 F   0  0  0  0  0  0  0  0  0  0  0  0
   32.1111   13.3056    6.9013 F   0  0  0  0  0  0  0  0  0  0  0  0
  1  2  1  0
  2  3  1  0
  2  4  1  0
  2  5  1  0
  5  6  1  0
  6  7  2  0
  7  8  1  0
  8  9  1  0
  9 10  2  0
  9 11  1  0
 11 12  1  0
 12 13  1  0
 13 14  1  0
 14 15  1  0
 15 16  1  0
 16 17  1  0
  8 18  2  0
 18 19  1  0
 19 20  1  0
 19 21  1  0
 19 22  1  0
 18  5  1  0
 17 12  1  0
A    1
 C1 
A    2
 C2 
A    3
 C3 
A    4
 C4 
A    5
 N1 
A    6
 N2 
A    7
 C5 
A    8
 C6 
A    9
 C7 
A   10
 O1 
A   11
 N3 
A   12
 C8 
A   13
 C9 
A   14
 C10
A   15
 O2 
A   16
 C11
A   17
 C12
A   18
 C13
A   19
 C14
A   20
 F1 
A   21
 F2 
A   22
 F3 
M  END
>  <ref_pdb>  (1474) 
Ax0310a

>  <ref_mols>  (1474) 
Ax0446a,Ax1080a,Ax0812a,Ax0719a,Ax1140a,Ax0528a,Ax0310a

>  <original SMILES>  (1474) 
CC(C)(C)n1ncc(C(=O)NC2CCOCC2)c1C(F)(F)F

>  <rationale>  (1474) 
info info set:screening_pocket;hydroph_interaction:P107; 

>  <experiment>  (1474) 
screening_pocket

>  <cluster_label>  (1474) 
3

>  <cluster_rank>  (1474) 
1131

>  <N_interactions>  (1474) 
1

>  <∆∆G>  (1474) 
-1.63829

>  <comRMSD>  (1474) 
0.613443

>  <ROCS_TanimotoCombo>  (1474) 
0.629

>  <ROCS_ShapeTanimoto>  (1474) 
0.285

>  <ROCS_ColorTanimoto>  (1474) 
0.344

$$$$
EN300_262402
     RDKit          3D

 16 16  0  0  0  0  0  0  0  0999 V2000
   33.3823   13.9058    6.9728 N   0  0  0  0  0  0  0  0  0  0  0  0
   32.3453   13.3578    8.1680 S   0  0  0  0  0  6  0  0  0  0  0  0
   33.1993   13.3588    9.3357 O   0  0  0  0  0  0  0  0  0  0  0  0
   31.0765   14.0267    8.1710 O   0  0  0  0  0  0  0  0  0  0  0  0
   32.1791   11.7299    7.5453 C   0  0  0  0  0  0  0  0  0  0  0  0
   31.2789   10.8342    8.2171 C   0  0  0  0  0  0  0  0  0  0  0  0
   31.1431    9.5135    7.8966 C   0  0  0  0  0  0  0  0  0  0  0  0
   30.1060    8.4984    8.7648 Cl  0  0  0  0  0  0  0  0  0  0  0  0
   31.9264    9.1077    6.8454 C   0  0  0  0  0  0  0  0  0  0  0  0
   32.7707    9.9776    6.1362 C   0  0  0  0  0  0  0  0  0  0  0  0
   32.9018   11.3086    6.4822 C   0  0  0  0  0  0  0  0  0  0  0  0
   33.7041   12.2096    5.8455 O   0  0  0  0  0  0  0  0  0  0  0  0
   34.6928   11.7375    4.9460 C   0  0  0  0  0  0  0  0  0  0  0  0
   34.6709   10.3954    4.8228 F   0  0  0  0  0  0  0  0  0  0  0  0
   34.5384   12.2918    3.7237 F   0  0  0  0  0  0  0  0  0  0  0  0
   35.8969   12.1092    5.4143 F   0  0  0  0  0  0  0  0  0  0  0  0
  1  2  1  0
  2  3  2  0
  2  4  2  0
  2  5  1  0
  5  6  2  0
  6  7  1  0
  7  8  1  0
  7  9  2  0
  9 10  1  0
 10 11  2  0
 11 12  1  0
 12 13  1  0
 13 14  1  0
 13 15  1  0
 13 16  1  0
 11  5  1  0
A    1
 N1 
A    2
 S1 
A    3
 O1 
A    4
 O2 
A    5
 C1 
A    6
 C2 
A    7
 C3 
A    8
CL1 
A    9
 C4 
A   10
 C5 
A   11
 C6 
A   12
 O3 
A   13
 C7 
A   14
 F1 
A   15
 F2 
A   16
 F3 
M  END
>  <ref_pdb>  (1475) 
Ax0310a

>  <ref_mols>  (1475) 
Ax0446a,Ax1080a,Ax0812a,Ax0719a,Ax1140a,Ax0528a,Ax0310a

>  <original SMILES>  (1475) 
NS(=O)(=O)c1cc(Cl)ccc1OC(F)(F)F

>  <rationale>  (1475) 
info info set:sulfonimide_whole;hbond:S87+G127; 

>  <experiment>  (1475) 
sulfonimide_whole

>  <cluster_label>  (1475) 
3

>  <cluster_rank>  (1475) 
1132

>  <N_interactions>  (1475) 
2

>  <∆∆G>  (1475) 
-2.240924

>  <comRMSD>  (1475) 
0.54204

>  <ROCS_TanimotoCombo>  (1475) 
0.3

>  <ROCS_ShapeTanimoto>  (1475) 
0.171

>  <ROCS_ColorTanimoto>  (1475) 
0.129

$$$$
Z4107121931
     RDKit          3D

 22 24  0  0  0  0  0  0  0  0999 V2000
   33.0134   14.4945    9.5942 C   0  0  0  0  0  0  0  0  0  0  0  0
   31.7051   14.4171    9.0216 O   0  0  0  0  0  0  0  0  0  0  0  0
   30.6883   15.1011    9.7695 C   0  0  0  0  0  0  0  0  0  0  0  0
   29.3571   15.1837    9.0004 C   0  0  1  0  0  0  0  0  0  0  0  0
   29.1678   14.4669    7.8735 C   0  0  0  0  0  0  0  0  0  0  0  0
   28.5252   13.3432    8.2373 C   0  0  1  0  0  0  0  0  0  0  0  0
   29.5387   12.2836    8.2747 N   0  0  0  0  0  0  0  0  0  0  0  0
   30.3008   12.1744    7.1306 C   0  0  0  0  0  0  0  0  0  0  0  0
   30.1117   12.9516    6.2000 O   0  0  0  0  0  0  0  0  0  0  0  0
   31.2533   11.1288    6.9373 C   0  0  0  0  0  0  0  0  0  0  0  0
   32.3507   11.2356    6.1129 C   0  0  0  0  0  0  0  0  0  0  0  0
   32.9516    9.9997    6.1371 C   0  0  0  0  0  0  0  0  0  0  0  0
   32.3418    9.1216    6.9722 N   0  0  0  0  0  0  0  0  0  0  0  0
   31.3081    9.8451    7.4565 N   0  0  0  0  0  0  0  0  0  0  0  0
   30.4157    9.2148    8.4053 C   0  0  0  0  0  0  0  0  0  0  0  0
   34.1180    9.8762    5.2384 C   0  0  2  0  0  0  0  0  0  0  0  0
   34.8531    8.6051    5.1130 C   0  0  0  0  0  0  0  0  0  0  0  0
   35.0025   10.9703    5.3746 O   0  0  0  0  0  0  0  0  0  0  0  0
   34.3350   12.0103    4.6596 C   0  0  2  0  0  0  0  0  0  0  0  0
   35.1891   13.1086    4.6514 C   0  0  0  0  0  0  0  0  0  0  0  0
   32.9230   12.3515    5.2669 C   0  0  0  0  0  0  0  0  0  0  0  0
   28.2563   14.2119    9.5179 C   0  0  0  0  0  0  0  0  0  0  0  0
  1  2  1  0
  2  3  1  0
  4  3  1  1
  4  5  1  0
  5  6  1  0
  6  7  1  1
  7  8  1  0
  8  9  2  0
  8 10  1  0
 10 11  2  0
 11 12  1  0
 12 13  2  0
 13 14  1  0
 14 15  1  0
 12 16  1  0
 16 17  1  1
 16 18  1  0
 18 19  1  0
 19 20  1  1
 19 21  1  0
  6 22  1  0
 22  4  1  0
 14 10  1  0
 21 11  1  0
A    1
 C1 
A    2
 O1 
A    3
 C2 
A    4
 C3 
A    5
 C4 
A    6
 C5 
A    7
 N1 
A    8
 C6 
A    9
 O2 
A   10
 C7 
A   11
 C8 
A   12
 C9 
A   13
 N2 
A   14
 N3 
A   15
 C10
A   16
 C11
A   17
 C12
A   18
 O3 
A   19
 C13
A   20
 C14
A   21
 C15
A   22
 C16
M  END
>  <ref_pdb>  (1476) 
Ax0310a

>  <ref_mols>  (1476) 
Ax0446a,Ax1080a,Ax0812a,Ax0719a,Ax1140a,Ax0528a,Ax0310a

>  <original SMILES>  (1476) 
COC[C@H]1C[C@@H](NC(=O)c2c3c(nn2C)[C@H](C)O[C@H](C)C3)C1

>  <rationale>  (1476) 
info info set:screening_whole;hbond:S87+S125; hydroph_interaction:P107+Y90; 

>  <experiment>  (1476) 
screening_whole

>  <cluster_label>  (1476) 
3

>  <cluster_rank>  (1476) 
1133

>  <N_interactions>  (1476) 
4

>  <∆∆G>  (1476) 
-6.026592

>  <comRMSD>  (1476) 
0.847369

>  <ROCS_TanimotoCombo>  (1476) 
0.456

>  <ROCS_ShapeTanimoto>  (1476) 
0.255

>  <ROCS_ColorTanimoto>  (1476) 
0.201

$$$$
Z827751398
     RDKit          3D

 18 19  0  0  0  0  0  0  0  0999 V2000
   30.0211   14.3704    9.5404 C   0  0  0  0  0  0  0  0  0  0  0  0
   28.9581   14.4873    8.4514 C   0  0  0  0  0  0  0  0  0  0  0  0
   28.5083   15.5797    7.8820 N   0  0  0  0  0  0  0  0  0  0  0  0
   27.5467   15.1056    6.9383 O   0  0  0  0  0  0  0  0  0  0  0  0
   27.3939   13.7751    6.9123 C   0  0  0  0  0  0  0  0  0  0  0  0
   26.4004   13.1333    5.9345 C   0  0  0  0  0  0  0  0  0  0  0  0
   28.2230   13.3173    7.8219 C   0  0  0  0  0  0  0  0  0  0  0  0
   28.5033   11.9274    8.2478 C   0  0  0  0  0  0  0  0  0  0  0  0
   29.9228   11.9129    8.1826 N   0  0  0  0  0  0  0  0  0  0  0  0
   30.4800   10.7199    8.3484 C   0  0  0  0  0  0  0  0  0  0  0  0
   30.1378    9.9391    9.1937 O   0  0  0  0  0  0  0  0  0  0  0  0
   31.5682   10.2887    7.4373 C   0  0  0  0  0  0  0  0  0  0  0  0
   32.3647   11.4182    6.7995 C   0  0  0  0  0  0  0  0  0  0  0  0
   33.4761   11.0165    5.8713 C   0  0  0  0  0  0  0  0  0  0  0  0
   33.6108    9.4938    5.7299 C   0  0  0  0  0  0  0  0  0  0  0  0
   34.5325    8.8624    4.9518 O   0  0  0  0  0  0  0  0  0  0  0  0
   32.8121    8.6115    6.3792 N   0  0  0  0  0  0  0  0  0  0  0  0
   31.8409    9.0075    7.1907 C   0  0  0  0  0  0  0  0  0  0  0  0
  1  2  1  0
  2  3  2  0
  3  4  1  0
  4  5  1  0
  5  6  1  0
  5  7  2  0
  7  8  1  0
  8  9  1  0
  9 10  1  0
 10 11  2  0
 10 12  1  0
 12 13  2  0
 13 14  1  0
 14 15  2  0
 15 16  1  0
 15 17  1  0
 17 18  2  0
  7  2  1  0
 18 12  1  0
A    1
 C1 
A    2
 C2 
A    3
 N1 
A    4
 O1 
A    5
 C3 
A    6
 C4 
A    7
 C5 
A    8
 C6 
A    9
 N2 
A   10
 C7 
A   11
 O2 
A   12
 C8 
A   13
 C9 
A   14
 C10
A   15
 C11
A   16
 O3 
A   17
 N3 
A   18
 C12
M  END
>  <ref_pdb>  (1477) 
Ax0310a

>  <ref_mols>  (1477) 
Ax0446a,Ax1080a,Ax0812a,Ax0719a,Ax1140a,Ax0528a,Ax0310a

>  <original SMILES>  (1477) 
Cc1noc(C)c1CNC(=O)c1ccc(O)nc1

>  <rationale>  (1477) 
info info set:screening_pocket;hydroph_interaction:P107+Y89; pistack:H21; 

>  <experiment>  (1477) 
screening_pocket

>  <cluster_label>  (1477) 
3

>  <cluster_rank>  (1477) 
1134

>  <N_interactions>  (1477) 
3

>  <∆∆G>  (1477) 
-4.313283

>  <comRMSD>  (1477) 
0.650183

>  <ROCS_TanimotoCombo>  (1477) 
0.628

>  <ROCS_ShapeTanimoto>  (1477) 
0.222

>  <ROCS_ColorTanimoto>  (1477) 
0.405

$$$$
Z2146654607
     RDKit          3D

 14 16  0  0  0  0  0  0  0  0999 V2000
   35.2429   14.5170    5.4483 C   0  0  0  0  0  0  0  0  0  0  0  0
   35.4174   13.2615    4.7813 O   0  0  0  0  0  0  0  0  0  0  0  0
   34.6490   12.2632    5.2718 C   0  0  0  0  0  0  0  0  0  0  0  0
   35.0415   10.9707    4.9647 C   0  0  0  0  0  0  0  0  0  0  0  0
   34.2656    9.9321    5.4561 C   0  0  0  0  0  0  0  0  0  0  0  0
   33.1333   10.2162    6.2342 C   0  0  0  0  0  0  0  0  0  0  0  0
   32.7141   11.4912    6.5511 C   0  0  0  0  0  0  0  0  0  0  0  0
   33.5114   12.5122    6.0467 C   0  0  0  0  0  0  0  0  0  0  0  0
   31.4366   11.6630    7.4051 C   0  0  0  0  0  0  0  0  0  0  0  0
   30.5014   12.6792    6.9600 C   0  0  0  0  0  0  0  0  0  0  0  0
   31.1566   13.0835    8.1920 C   0  0  0  0  0  0  0  0  0  0  0  0
   30.8327   10.4107    8.0865 C   0  0  0  0  0  0  0  0  0  0  0  0
   31.7024    9.2412    8.0208 N   0  0  0  0  0  0  0  0  0  0  0  0
   32.3347    9.1022    6.7375 C   0  0  0  0  0  0  0  0  0  0  0  0
  1  2  1  0
  2  3  1  0
  3  4  2  0
  4  5  1  0
  5  6  2  0
  6  7  1  0
  7  8  2  0
  7  9  1  0
  9 10  1  0
 10 11  1  0
  9 12  1  0
 12 13  1  0
 13 14  1  0
  8  3  1  0
 11  9  1  0
 14  6  1  0
A    1
 C1 
A    2
 O1 
A    3
 C2 
A    4
 C3 
A    5
 C4 
A    6
 C5 
A    7
 C6 
A    8
 C7 
A    9
 C8 
A   10
 C9 
A   11
 C10
A   12
 C11
A   13
 N1 
A   14
 C12
M  END
>  <ref_pdb>  (1478) 
Ax0310a

>  <ref_mols>  (1478) 
Ax0446a,Ax1080a,Ax0812a,Ax0719a,Ax1140a,Ax0528a,Ax0310a

>  <original SMILES>  (1478) 
COc1ccc2c(c1)C1(CC1)CNC2

>  <rationale>  (1478) 
info info set:3d;hbond:S105; 

>  <experiment>  (1478) 
3d

>  <cluster_label>  (1478) 
3

>  <cluster_rank>  (1478) 
1135

>  <N_interactions>  (1478) 
1

>  <∆∆G>  (1478) 
-2.925571

>  <comRMSD>  (1478) 
0.431449

>  <ROCS_TanimotoCombo>  (1478) 
0.293

>  <ROCS_ShapeTanimoto>  (1478) 
0.193

>  <ROCS_ColorTanimoto>  (1478) 
0.1

$$$$
Z1258762879
     RDKit          3D

 11 12  0  0  0  0  0  0  0  0999 V2000
   34.2477   13.1020    6.2309 C   0  0  0  0  0  0  0  0  0  0  0  0
   34.3397   13.5831    7.7074 C   0  0  0  0  0  0  0  0  0  0  0  0
   33.4608   12.8473    8.5627 O   0  0  0  0  0  0  0  0  0  0  0  0
   32.2777   12.4975    8.0124 C   0  0  0  0  0  0  0  0  0  0  0  0
   32.1172   11.9009    6.6467 C   0  0  1  0  0  0  0  0  0  0  0  0
   32.8259   12.8498    5.6871 C   0  0  0  0  0  0  0  0  0  0  0  0
   32.5931   10.4356    6.5596 C   0  0  0  0  0  0  0  0  0  0  0  0
   31.7910    9.5236    7.3839 N   0  0  0  0  0  0  0  0  0  0  0  0
   30.6382   10.0077    8.0291 C   0  0  0  0  0  0  0  0  0  0  0  0
   30.1532   11.3038    7.6848 C   0  0  0  0  0  0  0  0  0  0  0  0
   30.6964   11.8666    6.5105 O   0  0  0  0  0  0  0  0  0  0  0  0
  1  2  1  0
  2  3  1  0
  3  4  1  0
  5  4  1  1
  5  6  1  0
  5  7  1  0
  7  8  1  0
  8  9  1  0
  9 10  1  0
 10 11  1  0
  6  1  1  0
  5 11  1  0
A    1
 C1 
A    2
 C2 
A    3
 O1 
A    4
 C3 
A    5
 C4 
A    6
 C5 
A    7
 C6 
A    8
 N1 
A    9
 C7 
A   10
 C8 
A   11
 O2 
M  END
>  <ref_pdb>  (1479) 
Ax0310a

>  <ref_mols>  (1479) 
Ax0446a,Ax1080a,Ax0812a,Ax0719a,Ax1140a,Ax0528a,Ax0310a

>  <original SMILES>  (1479) 
C1COC[C@@]2(C1)CNCCO2

>  <rationale>  (1479) 
info info set:3d;hbond:G127; 

>  <experiment>  (1479) 
3d

>  <cluster_label>  (1479) 
3

>  <cluster_rank>  (1479) 
1136

>  <N_interactions>  (1479) 
1

>  <∆∆G>  (1479) 
-1.504573

>  <comRMSD>  (1479) 
0.70492

>  <ROCS_TanimotoCombo>  (1479) 
0.285

>  <ROCS_ShapeTanimoto>  (1479) 
0.171

>  <ROCS_ColorTanimoto>  (1479) 
0.114

$$$$
EN300_7884019
     RDKit          3D

 12 12  0  0  0  0  0  0  0  0999 V2000
   31.1229   13.4836    6.8874 N   0  0  0  0  0  0  0  0  0  0  0  0
   32.4593   12.9179    6.0790 S   0  0  0  0  0  6  0  0  0  0  0  0
   33.6660   13.4532    6.6538 O   0  0  0  0  0  0  0  0  0  0  0  0
   32.1669   13.0207    4.6721 O   0  0  0  0  0  0  0  0  0  0  0  0
   32.2027   11.3255    6.6198 C   0  0  0  0  0  0  0  0  0  0  0  0
   32.9809   10.2764    5.9989 C   0  0  0  0  0  0  0  0  0  0  0  0
   32.8274    9.0350    6.3682 N   0  0  0  0  0  0  0  0  0  0  0  0
   31.9447    8.7575    7.3178 C   0  0  0  0  0  0  0  0  0  0  0  0
   31.1597    9.6746    7.9770 C   0  0  0  0  0  0  0  0  0  0  0  0
   30.1340    9.0519    9.1572 Cl  0  0  0  0  0  0  0  0  0  0  0  0
   31.2933   11.0018    7.6153 C   0  0  0  0  0  0  0  0  0  0  0  0
   30.5409   11.9913    8.2285 O   0  0  0  0  0  0  0  0  0  0  0  0
  1  2  1  0
  2  3  2  0
  2  4  2  0
  2  5  1  0
  5  6  2  0
  6  7  1  0
  7  8  2  0
  8  9  1  0
  9 10  1  0
  9 11  2  0
 11 12  1  0
 11  5  1  0
A    1
 N1 
A    2
 S1 
A    3
 O1 
A    4
 O2 
A    5
 C1 
A    6
 C2 
A    7
 N2 
A    8
 C3 
A    9
 C4 
A   10
CL1 
A   11
 C5 
A   12
 O3 
M  END
>  <ref_pdb>  (1480) 
Ax0310a

>  <ref_mols>  (1480) 
Ax0446a,Ax1080a,Ax0812a,Ax0719a,Ax1140a,Ax0528a,Ax0310a

>  <original SMILES>  (1480) 
NS(=O)(=O)c1cncc(Cl)c1O

>  <rationale>  (1480) 
info info set:sulfonimide_joint;hbond:S87+S125+G127; 

>  <experiment>  (1480) 
sulfonimide_joint

>  <cluster_label>  (1480) 
3

>  <cluster_rank>  (1480) 
1137

>  <N_interactions>  (1480) 
3

>  <∆∆G>  (1480) 
-2.168705

>  <comRMSD>  (1480) 
0.779841

>  <ROCS_TanimotoCombo>  (1480) 
0.294

>  <ROCS_ShapeTanimoto>  (1480) 
0.165

>  <ROCS_ColorTanimoto>  (1480) 
0.129

$$$$
EN300_98015
     RDKit          3D

 14 14  0  0  0  0  0  0  0  0999 V2000
   34.9494    9.3231    4.0020 C   0  0  0  0  0  0  0  0  0  0  0  0
   34.2874    8.8791    5.1882 N   0  0  0  0  0  0  0  0  0  0  0  0
   33.3951    9.6821    5.8590 C   0  0  0  0  0  0  0  0  0  0  0  0
   32.3425    9.0149    6.7567 C   0  0  0  0  0  0  0  0  0  0  0  0
   31.3190    9.8471    7.5254 C   0  0  0  0  0  0  0  0  0  0  0  0
   30.3509    9.2988    8.3432 N   0  0  0  0  0  0  0  0  0  0  0  0
   30.3958    7.9201    8.6061 C   0  0  0  0  0  0  0  0  0  0  0  0
   31.3617   11.2210    7.3945 C   0  0  0  0  0  0  0  0  0  0  0  0
   30.3986   12.0317    8.1070 N   0  0  0  0  0  4  0  0  0  0  0  0
   30.8605   12.9036    8.8444 O   0  0  0  0  0  0  0  0  0  0  0  0
   29.2720   12.0896    7.6027 O   0  0  0  0  0  1  0  0  0  0  0  0
   32.3990   11.8821    6.5206 C   0  0  0  0  0  0  0  0  0  0  0  0
   33.4211   11.0654    5.7519 C   0  0  0  0  0  0  0  0  0  0  0  0
   34.3304   11.6798    4.9846 F   0  0  0  0  0  0  0  0  0  0  0  0
  1  2  1  0
  2  3  1  0
  3  4  2  0
  4  5  1  0
  5  6  1  0
  6  7  1  0
  5  8  2  0
  8  9  1  0
  9 10  2  0
  9 11  1  0
  8 12  1  0
 12 13  2  0
 13 14  1  0
 13  3  1  0
M  CHG  2   9   1  11  -1
A    1
 C1 
A    2
 N1 
A    3
 C2 
A    4
 C3 
A    5
 C4 
A    6
 N2 
A    7
 C5 
A    8
 C6 
A    9
 N3 
A   10
 O1 
A   11
 O2 
A   12
 C7 
A   13
 C8 
A   14
 F1 
M  END
>  <ref_pdb>  (1481) 
Ax0310a

>  <ref_mols>  (1481) 
Ax0446a,Ax1080a,Ax0812a,Ax0719a,Ax1140a,Ax0528a,Ax0310a

>  <original SMILES>  (1481) 
CNc1cc(NC)c([N+](=O)[O-])cc1F

>  <rationale>  (1481) 
info info set:bb_densepocket2;hbond:S105+S125; 

>  <experiment>  (1481) 
bb_densepocket2

>  <cluster_label>  (1481) 
3

>  <cluster_rank>  (1481) 
1138

>  <N_interactions>  (1481) 
2

>  <∆∆G>  (1481) 
-5.505406

>  <comRMSD>  (1481) 
0.759823

>  <ROCS_TanimotoCombo>  (1481) 
0.609

>  <ROCS_ShapeTanimoto>  (1481) 
0.258

>  <ROCS_ColorTanimoto>  (1481) 
0.351

$$$$
Z54737428
     RDKit          3D

 16 17  0  0  0  0  0  0  0  0999 V2000
   32.0585   16.0827   11.0771 C   0  0  0  0  0  0  0  0  0  0  0  0
   31.9880   15.1658    9.9757 C   0  0  0  0  0  0  0  0  0  0  0  0
   30.8653   14.8244    9.4174 N   0  0  0  0  0  0  0  0  0  0  0  0
   31.1409   13.9672    8.3933 C   0  0  0  0  0  0  0  0  0  0  0  0
   29.9729   13.4655    7.5926 C   0  0  0  0  0  0  0  0  0  0  0  0
   32.5000   13.6832    8.2021 C   0  0  0  0  0  0  0  0  0  0  0  0
   33.1179   12.8552    7.1930 C   0  0  0  0  0  0  0  0  0  0  0  0
   34.2213   13.0948    6.7125 O   0  0  0  0  0  0  0  0  0  0  0  0
   32.3743   11.7930    6.7471 N   0  0  0  0  0  0  0  0  0  0  0  0
   32.8041   10.7051    6.0510 C   0  0  0  0  0  0  0  0  0  0  0  0
   32.3518    9.4833    6.5371 C   0  0  0  0  0  0  0  0  0  0  0  0
   31.4367    9.7024    7.6257 C   0  0  0  0  0  0  0  0  0  0  0  0
   30.6420    8.5260    8.0097 C   0  0  0  0  0  0  0  0  0  0  0  0
   30.5698   10.8792    7.8947 C   0  0  0  0  0  0  0  0  0  0  0  0
   30.9636   11.9211    6.9245 C   0  0  0  0  0  0  0  0  0  0  0  0
   33.4471   14.4928    9.3601 S   0  0  0  0  0  0  0  0  0  0  0  0
  1  2  1  0
  2  3  2  0
  3  4  1  0
  4  5  1  0
  4  6  2  0
  6  7  1  0
  7  8  2  0
  7  9  1  0
  9 10  1  0
 10 11  1  0
 11 12  1  0
 12 13  1  0
 12 14  1  0
 14 15  1  0
  6 16  1  0
 16  2  1  0
 15  9  1  0
A    1
 C1 
A    2
 C2 
A    3
 N1 
A    4
 C3 
A    5
 C4 
A    6
 C5 
A    7
 C6 
A    8
 O1 
A    9
 N2 
A   10
 C7 
A   11
 C8 
A   12
 C9 
A   13
 C10
A   14
 C11
A   15
 C12
A   16
 S1 
M  END
>  <ref_pdb>  (1482) 
Ax0310a

>  <ref_mols>  (1482) 
Ax0446a,Ax1080a,Ax0812a,Ax0719a,Ax1140a,Ax0528a,Ax0310a

>  <original SMILES>  (1482) 
Cc1nc(C)c(C(=O)N2CCC(C)CC2)s1

>  <rationale>  (1482) 
info info set:3d;hbond:S87; hydroph_interaction:T126+V84; 

>  <experiment>  (1482) 
3d

>  <cluster_label>  (1482) 
3

>  <cluster_rank>  (1482) 
1139

>  <N_interactions>  (1482) 
3

>  <∆∆G>  (1482) 
-2.378482

>  <comRMSD>  (1482) 
0.928224

>  <ROCS_TanimotoCombo>  (1482) 
0.29

>  <ROCS_ShapeTanimoto>  (1482) 
0.179

>  <ROCS_ColorTanimoto>  (1482) 
0.111

$$$$
EN300_258449
     RDKit          3D

 13 13  0  0  0  0  0  0  0  0999 V2000
   29.2171   12.6588    8.6447 N   0  0  0  0  0  0  0  0  0  0  0  0
   30.3485   13.7245    8.0505 S   0  0  0  0  0  6  0  0  0  0  0  0
   30.5132   14.8300    8.9716 O   0  0  0  0  0  0  0  0  0  0  0  0
   29.8942   13.8351    6.6897 O   0  0  0  0  0  0  0  0  0  0  0  0
   31.8954   12.9095    7.9730 C   0  0  0  0  0  0  0  0  0  0  0  0
   31.9147   11.5865    7.6176 C   0  0  0  0  0  0  0  0  0  0  0  0
   30.9794   10.7121    8.1681 C   0  0  0  0  0  0  0  0  0  0  0  0
   31.0073    9.3798    7.8400 C   0  0  0  0  0  0  0  0  0  0  0  0
   31.9574    8.9200    6.9597 C   0  0  0  0  0  0  0  0  0  0  0  0
   32.8786    9.7642    6.3825 C   0  0  0  0  0  0  0  0  0  0  0  0
   33.7819    9.2868    5.5181 F   0  0  0  0  0  0  0  0  0  0  0  0
   32.8752   11.1089    6.7060 C   0  0  0  0  0  0  0  0  0  0  0  0
   33.7766   11.9356    6.1660 F   0  0  0  0  0  0  0  0  0  0  0  0
  1  2  1  0
  2  3  2  0
  2  4  2  0
  2  5  1  0
  5  6  1  0
  6  7  2  0
  7  8  1  0
  8  9  2  0
  9 10  1  0
 10 11  1  0
 10 12  2  0
 12 13  1  0
 12  6  1  0
A    1
 N1 
A    2
 S1 
A    3
 O1 
A    4
 O2 
A    5
 C1 
A    6
 C2 
A    7
 C3 
A    8
 C4 
A    9
 C5 
A   10
 C6 
A   11
 F1 
A   12
 C7 
A   13
 F2 
M  END
>  <ref_pdb>  (1483) 
Ax0310a

>  <ref_mols>  (1483) 
Ax0446a,Ax1080a,Ax0812a,Ax0719a,Ax1140a,Ax0528a,Ax0310a

>  <original SMILES>  (1483) 
NS(=O)(=O)Cc1cccc(F)c1F

>  <rationale>  (1483) 
info info set:sulfonimide_whole;hbond:S87+S125; 

>  <experiment>  (1483) 
sulfonimide_whole

>  <cluster_label>  (1483) 
3

>  <cluster_rank>  (1483) 
1140

>  <N_interactions>  (1483) 
2

>  <∆∆G>  (1483) 
-3.431925

>  <comRMSD>  (1483) 
0.700873

>  <ROCS_TanimotoCombo>  (1483) 
0.328

>  <ROCS_ShapeTanimoto>  (1483) 
0.183

>  <ROCS_ColorTanimoto>  (1483) 
0.146

$$$$
EN300_744932
     RDKit          3D

 16 17  0  0  0  0  0  0  0  0999 V2000
   30.8016    7.8777    8.5849 C   0  0  0  0  0  0  0  0  0  0  0  0
   30.2601    9.1736    8.8972 C   0  0  0  0  0  0  0  0  0  0  0  0
   28.8380    9.1908    8.8049 C   0  0  0  0  0  0  0  0  0  0  0  0
   30.9011   10.2863    8.1616 C   0  0  0  0  0  0  0  0  0  0  0  0
   30.5914   11.4338    8.4571 O   0  0  0  0  0  0  0  0  0  0  0  0
   31.9296   10.0475    7.0713 C   0  0  0  0  0  0  0  0  0  0  0  0
   32.4184   11.3372    6.5329 C   0  0  0  0  0  0  0  0  0  0  0  0
   33.3913   10.9440    5.4875 C   0  0  0  0  0  0  0  0  0  0  0  0
   34.1218   11.7863    4.6843 C   0  0  0  0  0  0  0  0  0  0  0  0
   34.9830   11.2435    3.7443 C   0  0  0  0  0  0  0  0  0  0  0  0
   35.7100   12.0175    2.9404 F   0  0  0  0  0  0  0  0  0  0  0  0
   35.1115    9.7446    3.6085 C   0  0  0  0  0  0  0  0  0  0  0  0
   34.3925    8.9147    4.3990 C   0  0  0  0  0  0  0  0  0  0  0  0
   34.6414    7.6646    4.1147 F   0  0  0  0  0  0  0  0  0  0  0  0
   33.4203    9.5228    5.4693 C   0  0  0  0  0  0  0  0  0  0  0  0
   32.5363    8.9587    6.4448 O   0  0  0  0  0  0  0  0  0  0  0  0
  1  2  1  0
  2  3  1  0
  2  4  1  0
  4  5  2  0
  4  6  1  0
  6  7  2  0
  7  8  1  0
  8  9  2  0
  9 10  1  0
 10 11  1  0
 10 12  2  0
 12 13  1  0
 13 14  1  0
 13 15  2  0
 15 16  1  0
 16  6  1  0
 15  8  1  0
A    1
 C1 
A    2
 C2 
A    3
 C3 
A    4
 C4 
A    5
 O1 
A    6
 C5 
A    7
 C6 
A    8
 C7 
A    9
 C8 
A   10
 C9 
A   11
 F1 
A   12
 C10
A   13
 C11
A   14
 F2 
A   15
 C12
A   16
 O2 
M  END
>  <ref_pdb>  (1484) 
Ax0310a

>  <ref_mols>  (1484) 
Ax0446a,Ax1080a,Ax0812a,Ax0719a,Ax1140a,Ax0528a,Ax0310a

>  <original SMILES>  (1484) 
CC(C)C(=O)c1cc2cc(F)cc(F)c2o1

>  <rationale>  (1484) 
info info set:bb_densepocket2;hbond:G127; hydroph_interaction:V124; 

>  <experiment>  (1484) 
bb_densepocket2

>  <cluster_label>  (1484) 
3

>  <cluster_rank>  (1484) 
1141

>  <N_interactions>  (1484) 
2

>  <∆∆G>  (1484) 
-5.869684

>  <comRMSD>  (1484) 
0.841466

>  <ROCS_TanimotoCombo>  (1484) 
0.606

>  <ROCS_ShapeTanimoto>  (1484) 
0.238

>  <ROCS_ColorTanimoto>  (1484) 
0.368

$$$$
EN300_1971953
     RDKit          3D

 16 17  0  0  0  0  0  0  0  0999 V2000
   33.0924   13.0238    8.8161 O   0  0  0  0  0  0  0  0  0  0  0  0
   31.7800   13.5968    8.8575 C   0  0  0  0  0  0  0  0  0  0  0  0
   31.4931   14.8525    9.2254 O   0  0  0  0  0  0  0  0  0  0  0  0
   30.6067   12.6963    8.4859 C   0  0  0  0  0  0  0  0  0  0  0  0
   30.1231   12.4853    7.0346 C   0  0  0  0  0  0  0  0  0  0  0  0
   30.4267   13.4450    6.1432 F   0  0  0  0  0  0  0  0  0  0  0  0
   28.8053   12.1784    6.9831 F   0  0  0  0  0  0  0  0  0  0  0  0
   31.1012   11.2406    6.9537 C   0  0  0  0  0  0  0  0  0  0  0  0
   31.0250    9.9139    7.6136 C   0  0  0  0  0  0  0  0  0  0  0  0
   31.9950    9.0958    7.2949 N   0  0  0  0  0  0  0  0  0  0  0  0
   32.7273    9.8723    6.4221 C   0  0  0  0  0  0  0  0  0  0  0  0
   34.0136    9.4770    5.6569 C   0  0  0  0  0  0  0  0  0  0  0  0
   34.6610   10.2877    4.8491 N   0  0  0  0  0  0  0  0  0  0  0  0
   34.1647   11.5591    4.6830 C   0  0  0  0  0  0  0  0  0  0  0  0
   32.9003   12.0591    5.3673 C   0  0  0  0  0  0  0  0  0  0  0  0
   32.2404   11.1784    6.2011 N   0  0  0  0  0  0  0  0  0  0  0  0
  1  2  2  0
  2  3  1  0
  2  4  1  0
  4  5  1  0
  5  6  1  0
  5  7  1  0
  5  8  1  0
  8  9  2  0
  9 10  1  0
 10 11  2  0
 11 12  1  0
 12 13  2  0
 13 14  1  0
 14 15  2  0
 15 16  1  0
 16  8  1  0
 16 11  1  0
A    1
 O1 
A    2
 C1 
A    3
 O2 
A    4
 C2 
A    5
 C3 
A    6
 F1 
A    7
 F2 
A    8
 C4 
A    9
 C5 
A   10
 N1 
A   11
 C6 
A   12
 C7 
A   13
 N2 
A   14
 C8 
A   15
 C9 
A   16
 N3 
M  END
>  <ref_pdb>  (1485) 
Ax0310a

>  <ref_mols>  (1485) 
Ax0446a,Ax1080a,Ax0812a,Ax0719a,Ax1140a,Ax0528a,Ax0310a

>  <original SMILES>  (1485) 
O=C(O)CC(F)(F)c1cnc2cnccn12

>  <rationale>  (1485) 
info info set:bb_whole;hbond:S87+G127; 

>  <experiment>  (1485) 
bb_whole

>  <cluster_label>  (1485) 
3

>  <cluster_rank>  (1485) 
1142

>  <N_interactions>  (1485) 
3

>  <∆∆G>  (1485) 
-0.055148

>  <comRMSD>  (1485) 
0.680102

>  <ROCS_TanimotoCombo>  (1485) 
0.412

>  <ROCS_ShapeTanimoto>  (1485) 
0.233

>  <ROCS_ColorTanimoto>  (1485) 
0.179

$$$$
Z1281387879
     RDKit          3D

 13 13  0  0  0  0  0  0  0  0999 V2000
   34.1633   13.3100    7.0179 N   0  0  0  0  0  0  0  0  0  0  0  0
   33.2201   12.8218    6.1819 C   0  0  0  0  0  0  0  0  0  0  0  0
   32.5763   11.6704    6.6174 C   0  0  0  0  0  0  0  0  0  0  0  0
   33.0628   10.4068    6.3602 C   0  0  0  0  0  0  0  0  0  0  0  0
   34.1871   10.2385    5.6561 F   0  0  0  0  0  0  0  0  0  0  0  0
   32.3890    9.2834    6.8341 C   0  0  0  0  0  0  0  0  0  0  0  0
   31.1002    9.4200    7.6574 C   0  0  0  0  0  0  0  0  0  0  0  0
   30.6051   10.6942    7.9095 C   0  0  0  0  0  0  0  0  0  0  0  0
   31.2611   11.8213    7.4308 C   0  0  0  0  0  0  0  0  0  0  0  0
   30.8141   13.0966    7.6357 O   0  0  0  0  0  0  0  0  0  0  0  0
   29.4354   13.2340    7.9802 C   0  0  0  0  0  0  0  0  0  0  0  0
   28.6610   12.8924    6.9208 F   0  0  0  0  0  0  0  0  0  0  0  0
   29.2200   14.5490    8.2015 F   0  0  0  0  0  0  0  0  0  0  0  0
  1  2  1  0
  2  3  1  0
  3  4  2  0
  4  5  1  0
  4  6  1  0
  6  7  2  0
  7  8  1  0
  8  9  2  0
  9 10  1  0
 10 11  1  0
 11 12  1  0
 11 13  1  0
  9  3  1  0
A    1
 N1 
A    2
 C1 
A    3
 C2 
A    4
 C3 
A    5
 F1 
A    6
 C4 
A    7
 C5 
A    8
 C6 
A    9
 C7 
A   10
 O1 
A   11
 C8 
A   12
 F2 
A   13
 F3 
M  END
>  <ref_pdb>  (1486) 
Ax0310a

>  <ref_mols>  (1486) 
Ax0446a,Ax1080a,Ax0812a,Ax0719a,Ax1140a,Ax0528a,Ax0310a

>  <original SMILES>  (1486) 
NCc1c(F)cccc1OC(F)F

>  <rationale>  (1486) 
info info set:3d;hbond:G127; 

>  <experiment>  (1486) 
3d

>  <cluster_label>  (1486) 
3

>  <cluster_rank>  (1486) 
1143

>  <N_interactions>  (1486) 
2

>  <∆∆G>  (1486) 
-5.148734

>  <comRMSD>  (1486) 
0.496769

>  <ROCS_TanimotoCombo>  (1486) 
0.286

>  <ROCS_ShapeTanimoto>  (1486) 
0.207

>  <ROCS_ColorTanimoto>  (1486) 
0.08

$$$$
Z4327149895
     RDKit          3D

 12 13  0  0  0  0  0  0  0  0999 V2000
   34.1400   13.4302    5.9508 O   0  0  0  0  0  0  0  0  0  0  0  0
   33.9615   12.2193    5.9269 C   0  0  0  0  0  0  0  0  0  0  0  0
   34.9194   11.3179    5.1721 C   0  0  0  0  0  0  0  0  0  0  0  0
   34.6019    9.8350    5.2065 C   0  0  0  0  0  0  0  0  0  0  0  0
   33.4824    9.4138    5.9165 C   0  0  0  0  0  0  0  0  0  0  0  0
   32.6023   10.2500    6.6134 C   0  0  0  0  0  0  0  0  0  0  0  0
   32.8638   11.6499    6.5976 C   0  0  0  0  0  0  0  0  0  0  0  0
   31.8896   12.5143    7.3373 C   0  0  0  0  0  0  0  0  0  0  0  0
   30.6082   12.1187    7.0596 C   0  0  0  0  0  0  0  0  0  0  0  0
   30.0256   11.2788    7.9543 C   0  0  0  0  0  0  0  0  0  0  0  0
   30.5465   10.0003    8.1920 C   0  0  0  0  0  0  0  0  0  0  0  0
   31.5521    9.5207    7.2369 N   0  0  0  0  0  0  0  0  0  0  0  0
  1  2  1  0
  2  3  2  0
  3  4  1  0
  4  5  2  0
  5  6  1  0
  6  7  2  0
  7  8  1  0
  8  9  1  0
  9 10  1  0
 10 11  1  0
 11 12  1  0
  7  2  1  0
 12  6  1  0
A    1
 O1 
A    2
 C1 
A    3
 C2 
A    4
 C3 
A    5
 C4 
A    6
 C5 
A    7
 C6 
A    8
 C7 
A    9
 C8 
A   10
 C9 
A   11
 C10
A   12
 N1 
M  END
>  <ref_pdb>  (1487) 
Ax0310a

>  <ref_mols>  (1487) 
Ax0446a,Ax1080a,Ax0812a,Ax0719a,Ax1140a,Ax0528a,Ax0310a

>  <original SMILES>  (1487) 
Oc1cccc2c1CCCCN2

>  <rationale>  (1487) 
info info set:3d;

>  <experiment>  (1487) 
3d

>  <cluster_label>  (1487) 
3

>  <cluster_rank>  (1487) 
1144

>  <N_interactions>  (1487) 
0

>  <∆∆G>  (1487) 
-3.093078

>  <comRMSD>  (1487) 
0.67473

>  <ROCS_TanimotoCombo>  (1487) 
0.295

>  <ROCS_ShapeTanimoto>  (1487) 
0.183

>  <ROCS_ColorTanimoto>  (1487) 
0.112

$$$$
EN300_26689347
     RDKit          3D

 22 25  0  0  0  0  0  0  0  0999 V2000
   33.8282   13.6461    5.6642 C   0  0  0  0  0  0  0  0  0  0  0  0
   33.5720   12.1524    5.8410 C   0  0  0  0  0  0  0  0  0  0  0  0
   34.4398   11.2904    5.2909 N   0  0  0  0  0  0  0  0  0  0  0  0
   33.9735   10.0294    5.6065 O   0  0  0  0  0  0  0  0  0  0  0  0
   32.8339   10.1325    6.3439 C   0  0  0  0  0  0  0  0  0  0  0  0
   32.1697    9.0542    6.7947 N   0  0  0  0  0  0  0  0  0  0  0  0
   31.0640    9.3215    7.5179 C   0  0  0  0  0  0  0  0  0  0  0  0
   30.2208    8.2020    8.1509 C   0  0  0  0  0  0  0  0  0  0  0  0
   30.6667    9.1906    9.0173 C   0  0  0  0  0  0  0  0  0  0  0  0
   30.9102    7.9289    9.6057 C   0  0  0  0  0  0  0  0  0  0  0  0
   30.6080   10.5714    7.7889 C   0  0  0  0  0  0  0  0  0  0  0  0
   31.3622   11.7299    7.2649 C   0  0  0  0  0  0  0  0  0  0  0  0
   30.6051   12.9934    7.7049 C   0  0  0  0  0  0  0  0  0  0  0  0
   30.0769   13.6670    6.8381 O   0  0  0  0  0  0  0  0  0  0  0  0
   30.5176   13.2592    9.0697 N   0  0  0  0  0  0  0  0  0  0  0  0
   29.9262   14.5404    9.5472 C   0  0  0  0  0  0  0  0  0  0  0  0
   30.9915   15.6071    9.8265 C   0  0  0  0  0  0  0  0  0  0  0  0
   31.7675   16.4167   10.0986 N   0  0  0  0  0  0  0  0  0  0  0  0
   28.6253   14.8831    8.7889 C   0  0  0  0  0  0  0  0  0  0  0  0
   27.9204   14.1892    9.9256 C   0  0  0  0  0  0  0  0  0  0  0  0
   28.9851   14.4944   10.7817 C   0  0  0  0  0  0  0  0  0  0  0  0
   32.5259   11.4872    6.5222 C   0  0  0  0  0  0  0  0  0  0  0  0
  1  2  1  0
  2  3  2  0
  3  4  1  0
  4  5  1  0
  5  6  2  0
  6  7  1  0
  7  8  1  0
  8  9  1  0
  9 10  1  0
  7 11  2  0
 11 12  1  0
 12 13  1  0
 13 14  2  0
 13 15  1  0
 15 16  1  0
 16 17  1  0
 17 18  3  0
 16 19  1  0
 19 20  1  0
 20 21  1  0
 12 22  2  0
 22  2  1  0
 22  5  1  0
 10  8  1  0
 21 16  1  0
A    1
 C1 
A    2
 C2 
A    3
 N1 
A    4
 O1 
A    5
 C3 
A    6
 N2 
A    7
 C4 
A    8
 C5 
A    9
 C6 
A   10
 C7 
A   11
 C8 
A   12
 C9 
A   13
 C10
A   14
 O2 
A   15
 N3 
A   16
 C11
A   17
 C12
A   18
 N4 
A   19
 C13
A   20
 C14
A   21
 C15
A   22
 C16
M  END
>  <ref_pdb>  (1488) 
Ax0310a

>  <ref_mols>  (1488) 
Ax0446a,Ax1080a,Ax0812a,Ax0719a,Ax1140a,Ax0528a,Ax0310a

>  <original SMILES>  (1488) 
Cc1noc2nc(C3CC3)cc(C(=O)NC3(C#N)CCC3)c12

>  <rationale>  (1488) 
info info set:bb_whole;hbond:S87+S125; hydroph_interaction:Y90+V124; 

>  <experiment>  (1488) 
bb_whole

>  <cluster_label>  (1488) 
3

>  <cluster_rank>  (1488) 
1145

>  <N_interactions>  (1488) 
4

>  <∆∆G>  (1488) 
-0.523719

>  <comRMSD>  (1488) 
0.951641

>  <ROCS_TanimotoCombo>  (1488) 
0.41

>  <ROCS_ShapeTanimoto>  (1488) 
0.245

>  <ROCS_ColorTanimoto>  (1488) 
0.165

$$$$
EN300_123564
     RDKit          3D

 15 15  0  0  0  0  0  0  0  0999 V2000
   28.5134   14.2092    8.6244 C   0  0  0  0  0  0  0  0  0  0  0  0
   30.1014   13.6448    8.0612 S   0  0  0  0  0  6  0  0  0  0  0  0
   30.0780   13.6280    6.6144 O   0  0  0  0  0  0  0  0  0  0  0  0
   31.1451   14.2768    8.8430 O   0  0  0  0  0  0  0  0  0  0  0  0
   30.0945   12.0274    8.4436 N   0  0  0  0  0  0  0  0  0  0  0  0
   31.0386   11.1937    7.7918 C   0  0  0  0  0  0  0  0  0  0  0  0
   30.8694    9.6960    7.9181 C   0  0  0  0  0  0  0  0  0  0  0  0
   31.8927    8.8616    7.1896 C   0  0  0  0  0  0  0  0  0  0  0  0
   32.9085    9.5709    6.4683 C   0  0  0  0  0  0  0  0  0  0  0  0
   33.0351   10.9450    6.3900 C   0  0  0  0  0  0  0  0  0  0  0  0
   34.0775   11.6176    5.6686 O   0  0  0  0  0  0  0  0  0  0  0  0
   34.2378   13.0451    5.7274 C   0  0  0  0  0  0  0  0  0  0  0  0
   35.0618   13.5229    6.9289 C   0  0  0  0  0  0  0  0  0  0  0  0
   35.1154   14.9690    7.0681 N   0  0  0  0  0  0  0  0  0  0  0  0
   32.0961   11.7550    7.0515 C   0  0  0  0  0  0  0  0  0  0  0  0
  1  2  1  0
  2  3  2  0
  2  4  2  0
  2  5  1  0
  5  6  1  0
  6  7  2  0
  7  8  1  0
  8  9  2  0
  9 10  1  0
 10 11  1  0
 11 12  1  0
 12 13  1  0
 13 14  1  0
 10 15  2  0
 15  6  1  0
A    1
 C1 
A    2
 S1 
A    3
 O1 
A    4
 O2 
A    5
 N1 
A    6
 C2 
A    7
 C3 
A    8
 C4 
A    9
 C5 
A   10
 C6 
A   11
 O3 
A   12
 C7 
A   13
 C8 
A   14
 N2 
A   15
 C9 
M  END
>  <ref_pdb>  (1489) 
Ax0310a

>  <ref_mols>  (1489) 
Ax0446a,Ax1080a,Ax0812a,Ax0719a,Ax1140a,Ax0528a,Ax0310a

>  <original SMILES>  (1489) 
CS(=O)(=O)Nc1cccc(OCCN)c1

>  <rationale>  (1489) 
info info set:sulfonimide_whole;hbond:S87+S125+E85; 

>  <experiment>  (1489) 
sulfonimide_whole

>  <cluster_label>  (1489) 
3

>  <cluster_rank>  (1489) 
1146

>  <N_interactions>  (1489) 
3

>  <∆∆G>  (1489) 
-6.834528

>  <comRMSD>  (1489) 
0.472735

>  <ROCS_TanimotoCombo>  (1489) 
0.329

>  <ROCS_ShapeTanimoto>  (1489) 
0.205

>  <ROCS_ColorTanimoto>  (1489) 
0.124

$$$$
EN300_24402290
     RDKit          3D

 26 29  0  0  0  0  0  0  0  0999 V2000
   32.9517   13.7352    8.4302 C   0  0  0  0  0  0  0  0  0  0  0  0
   31.8379   13.8439    9.3203 O   0  0  0  0  0  0  0  0  0  0  0  0
   30.5834   13.9863    8.7918 C   0  0  0  0  0  0  0  0  0  0  0  0
   29.6368   14.5986    9.6859 C   0  0  0  0  0  0  0  0  0  0  0  0
   28.2573   14.7724    9.1274 C   0  0  0  0  0  0  0  0  0  0  0  0
   27.1939   15.4176   10.0014 C   0  0  0  0  0  0  0  0  0  0  0  0
   26.6236   16.4299    9.6868 O   0  0  0  0  0  0  0  0  0  0  0  0
   27.8790   14.3835    7.8543 C   0  0  0  0  0  0  0  0  0  0  0  0
   28.8214   13.7330    6.8638 C   0  0  0  0  0  0  0  0  0  0  0  0
   30.2149   13.5940    7.5030 C   0  0  0  0  0  0  0  0  0  0  0  0
   31.2000   13.0258    6.6846 O   0  0  0  0  0  0  0  0  0  0  0  0
   31.4203   11.7054    6.8719 C   0  0  0  0  0  0  0  0  0  0  0  0
   30.5861   10.8932    7.5392 N   0  0  0  0  0  0  0  0  0  0  0  0
   30.9433    9.5889    7.6106 C   0  0  0  0  0  0  0  0  0  0  0  0
   32.0216    9.0165    7.0678 N   0  0  0  0  0  0  0  0  0  0  0  0
   32.7981    9.9227    6.4271 C   0  0  0  0  0  0  0  0  0  0  0  0
   34.2349    9.5078    5.6365 S   0  0  0  0  0  0  0  0  0  0  0  0
   34.6119   11.1493    5.2741 C   0  0  0  0  0  0  0  0  0  0  0  0
   35.8826   11.5547    4.6775 C   0  0  0  0  0  0  0  0  0  0  0  0
   36.4699   12.7014    5.2441 C   0  0  0  0  0  0  0  0  0  0  0  0
   37.6890   13.1834    4.7989 C   0  0  0  0  0  0  0  0  0  0  0  0
   38.3552   12.5276    3.7720 C   0  0  0  0  0  0  0  0  0  0  0  0
   37.7883   11.3903    3.1953 C   0  0  0  0  0  0  0  0  0  0  0  0
   36.5519   10.9016    3.6440 C   0  0  0  0  0  0  0  0  0  0  0  0
   33.5967   11.9652    5.6566 C   0  0  0  0  0  0  0  0  0  0  0  0
   32.5663   11.2611    6.3239 C   0  0  0  0  0  0  0  0  0  0  0  0
  1  2  1  0
  2  3  1  0
  3  4  2  0
  4  5  1  0
  5  6  1  0
  6  7  2  0
  5  8  2  0
  8  9  1  0
  9 10  2  0
 10 11  1  0
 11 12  1  0
 12 13  2  0
 13 14  1  0
 14 15  2  0
 15 16  1  0
 16 17  1  0
 17 18  1  0
 18 19  1  0
 19 20  2  0
 20 21  1  0
 21 22  2  0
 22 23  1  0
 23 24  2  0
 18 25  2  0
 25 26  1  0
 10  3  1  0
 26 12  1  0
 26 16  2  0
 24 19  1  0
A    1
 C1 
A    2
 O1 
A    3
 C2 
A    4
 C3 
A    5
 C4 
A    6
 C5 
A    7
 O2 
A    8
 C6 
A    9
 C7 
A   10
 C8 
A   11
 O3 
A   12
 C9 
A   13
 N1 
A   14
 C10
A   15
 N2 
A   16
 C11
A   17
 S1 
A   18
 C12
A   19
 C13
A   20
 C14
A   21
 C15
A   22
 C16
A   23
 C17
A   24
 C18
A   25
 C19
A   26
 C20
M  END
>  <ref_pdb>  (1490) 
Ax0310a

>  <ref_mols>  (1490) 
Ax0446a,Ax1080a,Ax0812a,Ax0719a,Ax1140a,Ax0528a,Ax0310a

>  <original SMILES>  (1490) 
COc1cc(C=O)ccc1Oc1ncnc2sc(-c3ccccc3)cc12

>  <rationale>  (1490) 
info info set:bb_whole;hbond:S87; 

>  <experiment>  (1490) 
bb_whole

>  <cluster_label>  (1490) 
3

>  <cluster_rank>  (1490) 
1147

>  <N_interactions>  (1490) 
1

>  <∆∆G>  (1490) 
-6.184713

>  <comRMSD>  (1490) 
0.589105

>  <ROCS_TanimotoCombo>  (1490) 
0.414

>  <ROCS_ShapeTanimoto>  (1490) 
0.239

>  <ROCS_ColorTanimoto>  (1490) 
0.175

$$$$
EN300_219722
     RDKit          3D

 15 15  0  0  0  0  0  0  0  0999 V2000
   35.5063   10.5180    4.5949 C   0  0  0  0  0  0  0  0  0  0  0  0
   34.5864   10.2949    5.6227 O   0  0  0  0  0  0  0  0  0  0  0  0
   34.0046    9.0207    5.5082 C   0  0  0  0  0  0  0  0  0  0  0  0
   32.9084    8.8417    6.4008 O   0  0  0  0  0  0  0  0  0  0  0  0
   32.2722    9.9845    6.7681 C   0  0  0  0  0  0  0  0  0  0  0  0
   32.5289   11.2438    6.2134 C   0  0  0  0  0  0  0  0  0  0  0  0
   31.8378   12.3657    6.6402 C   0  0  0  0  0  0  0  0  0  0  0  0
   30.8535   12.2990    7.6324 C   0  0  0  0  0  0  0  0  0  0  0  0
   30.0253   13.7308    8.1109 S   0  0  0  0  0  6  0  0  0  0  0  0
   28.7535   13.2897    9.0905 N   0  0  0  0  0  0  0  0  0  0  0  0
   30.9301   14.5109    8.9356 O   0  0  0  0  0  0  0  0  0  0  0  0
   29.3908   14.2371    6.9290 O   0  0  0  0  0  0  0  0  0  0  0  0
   30.6231   11.0436    8.1597 C   0  0  0  0  0  0  0  0  0  0  0  0
   31.3019    9.8881    7.7620 C   0  0  0  0  0  0  0  0  0  0  0  0
   31.0066    8.7232    8.3432 F   0  0  0  0  0  0  0  0  0  0  0  0
  1  2  1  0
  2  3  1  0
  3  4  1  0
  4  5  1  0
  5  6  2  0
  6  7  1  0
  7  8  2  0
  8  9  1  0
  9 10  1  0
  9 11  2  0
  9 12  2  0
  8 13  1  0
 13 14  2  0
 14 15  1  0
 14  5  1  0
A    1
 C1 
A    2
 O1 
A    3
 C2 
A    4
 O2 
A    5
 C3 
A    6
 C4 
A    7
 C5 
A    8
 C6 
A    9
 S1 
A   10
 N1 
A   11
 O3 
A   12
 O4 
A   13
 C7 
A   14
 C8 
A   15
 F1 
M  END
>  <ref_pdb>  (1491) 
Ax0310a

>  <ref_mols>  (1491) 
Ax0446a,Ax1080a,Ax0812a,Ax0719a,Ax1140a,Ax0528a,Ax0310a

>  <original SMILES>  (1491) 
COCOc1ccc(S(N)(=O)=O)cc1F

>  <rationale>  (1491) 
info info set:sulfonimide_whole;halogenbond:S105; hbond:S87+S125; hydroph_interaction:P107; 

>  <experiment>  (1491) 
sulfonimide_whole

>  <cluster_label>  (1491) 
3

>  <cluster_rank>  (1491) 
1148

>  <N_interactions>  (1491) 
4

>  <∆∆G>  (1491) 
-3.806376

>  <comRMSD>  (1491) 
0.849856

>  <ROCS_TanimotoCombo>  (1491) 
0.328

>  <ROCS_ShapeTanimoto>  (1491) 
0.196

>  <ROCS_ColorTanimoto>  (1491) 
0.131

$$$$
EN300_2980581
     RDKit          3D

 10 10  0  0  0  0  0  0  0  0999 V2000
   29.1463   12.1811    7.5935 C   0  0  0  0  0  0  0  0  0  0  0  0
   30.3515   12.0101    8.2165 N   0  0  0  0  0  0  0  0  0  0  0  0
   31.2364   11.0573    7.5293 C   0  0  0  0  0  0  0  0  0  0  0  0
   32.2021   11.6963    6.5815 C   0  0  0  0  0  0  0  0  0  0  0  0
   33.2018   10.8396    5.7821 C   0  0  0  0  0  0  0  0  0  0  0  0
   34.3565   11.4392    4.6689 Cl  0  0  0  0  0  0  0  0  0  0  0  0
   32.9954    9.3517    6.1481 C   0  0  0  0  0  0  0  0  0  0  0  0
   32.1242    8.8303    7.0010 N   0  0  0  0  0  0  0  0  0  0  0  0
   31.2881    9.6629    7.6515 C   0  0  0  0  0  0  0  0  0  0  0  0
   30.1149    8.7773    8.8159 Br  0  0  0  0  0  0  0  0  0  0  0  0
  1  2  1  0
  2  3  1  0
  3  4  2  0
  4  5  1  0
  5  6  1  0
  5  7  2  0
  7  8  1  0
  8  9  2  0
  9 10  1  0
  9  3  1  0
A    1
 C1 
A    2
 N1 
A    3
 C2 
A    4
 C3 
A    5
 C4 
A    6
CL1 
A    7
 C5 
A    8
 N2 
A    9
 C6 
A   10
BR1 
M  END
>  <ref_pdb>  (1492) 
Ax0310a

>  <ref_mols>  (1492) 
Ax0446a,Ax1080a,Ax0812a,Ax0719a,Ax1140a,Ax0528a,Ax0310a

>  <original SMILES>  (1492) 
CNc1cc(Cl)cnc1Br

>  <rationale>  (1492) 
info info set:bb_densepocket2;hbond:S125; 

>  <experiment>  (1492) 
bb_densepocket2

>  <cluster_label>  (1492) 
3

>  <cluster_rank>  (1492) 
1149

>  <N_interactions>  (1492) 
1

>  <∆∆G>  (1492) 
-4.950115

>  <comRMSD>  (1492) 
0.394387

>  <ROCS_TanimotoCombo>  (1492) 
0.606

>  <ROCS_ShapeTanimoto>  (1492) 
0.208

>  <ROCS_ColorTanimoto>  (1492) 
0.398

$$$$
EN300_20824748
     RDKit          3D

 16 16  0  0  0  0  0  0  0  0999 V2000
   28.0317   13.3327    7.2276 C   0  0  0  0  0  0  0  0  0  0  0  0
   29.1211   13.5001    8.2636 C   0  0  0  0  0  0  0  0  0  0  0  0
   30.3374   12.8980    7.7871 O   0  0  0  0  0  0  0  0  0  0  0  0
   30.4800   11.5622    8.0217 C   0  0  0  0  0  0  0  0  0  0  0  0
   29.8637   10.9182    8.7965 O   0  0  0  0  0  0  0  0  0  0  0  0
   31.5096   10.8968    7.1998 C   0  0  0  0  0  0  0  0  0  0  0  0
   31.8157    9.3675    7.2688 C   0  0  0  0  0  0  0  0  0  0  0  0
   32.7538    8.7780    6.5149 N   0  0  0  0  0  0  0  0  0  0  0  0
   33.5613    9.4974    5.5684 C   0  0  0  0  0  0  0  0  0  0  0  0
   34.4892    8.7669    4.8525 N   0  0  0  0  0  0  0  0  0  0  0  0
   33.3273   10.8879    5.4601 C   0  0  0  0  0  0  0  0  0  0  0  0
   34.2553   11.4760    4.4176 C   0  0  0  0  0  0  0  0  0  0  0  0
   35.5749   11.2623    4.6846 F   0  0  0  0  0  0  0  0  0  0  0  0
   34.0377   10.9663    3.1766 F   0  0  0  0  0  0  0  0  0  0  0  0
   34.1141   12.8288    4.3060 F   0  0  0  0  0  0  0  0  0  0  0  0
   32.3921   11.6128    6.1873 C   0  0  0  0  0  0  0  0  0  0  0  0
  1  2  1  0
  2  3  1  0
  3  4  1  0
  4  5  2  0
  4  6  1  0
  6  7  2  0
  7  8  1  0
  8  9  2  0
  9 10  1  0
  9 11  1  0
 11 12  1  0
 12 13  1  0
 12 14  1  0
 12 15  1  0
 11 16  2  0
 16  6  1  0
A    1
 C1 
A    2
 C2 
A    3
 O1 
A    4
 C3 
A    5
 O2 
A    6
 C4 
A    7
 C5 
A    8
 N1 
A    9
 C6 
A   10
 N2 
A   11
 C7 
A   12
 C8 
A   13
 F1 
A   14
 F2 
A   15
 F3 
A   16
 C9 
M  END
>  <ref_pdb>  (1493) 
Ax0310a

>  <ref_mols>  (1493) 
Ax0446a,Ax1080a,Ax0812a,Ax0719a,Ax1140a,Ax0528a,Ax0310a

>  <original SMILES>  (1493) 
CCOC(=O)c1cnc(N)c(C(F)(F)F)c1

>  <rationale>  (1493) 
info info set:bb_densepocket2;hbond:S105; hydroph_interaction:P107; 

>  <experiment>  (1493) 
bb_densepocket2

>  <cluster_label>  (1493) 
3

>  <cluster_rank>  (1493) 
1150

>  <N_interactions>  (1493) 
2

>  <∆∆G>  (1493) 
-3.752574

>  <comRMSD>  (1493) 
0.560535

>  <ROCS_TanimotoCombo>  (1493) 
0.609

>  <ROCS_ShapeTanimoto>  (1493) 
0.254

>  <ROCS_ColorTanimoto>  (1493) 
0.355

$$$$
EN300_122195
     RDKit          3D

 10 10  0  0  0  0  0  0  0  0999 V2000
   30.3048   11.4430    8.3527 N   0  0  0  0  0  0  0  0  0  0  0  0
   31.2936   10.9492    7.4932 C   0  0  0  0  0  0  0  0  0  0  0  0
   32.0915   11.9376    6.6783 C   0  0  0  0  0  0  0  0  0  0  0  0
   33.1258   11.3161    5.7845 C   0  0  0  0  0  0  0  0  0  0  0  0
   34.1107   12.3196    4.7955 Cl  0  0  0  0  0  0  0  0  0  0  0  0
   33.2441    9.8184    5.8034 C   0  0  0  0  0  0  0  0  0  0  0  0
   34.3950    9.0112    4.8121 Cl  0  0  0  0  0  0  0  0  0  0  0  0
   32.4828    9.0107    6.5744 N   0  0  0  0  0  0  0  0  0  0  0  0
   31.5512    9.5621    7.3796 C   0  0  0  0  0  0  0  0  0  0  0  0
   30.7911    8.6733    8.1533 N   0  0  0  0  0  0  0  0  0  0  0  0
  1  2  1  0
  2  3  2  0
  3  4  1  0
  4  5  1  0
  4  6  2  0
  6  7  1  0
  6  8  1  0
  8  9  2  0
  9 10  1  0
  9  2  1  0
A    1
 N1 
A    2
 C1 
A    3
 C2 
A    4
 C3 
A    5
CL1 
A    6
 C4 
A    7
CL2 
A    8
 N2 
A    9
 C5 
A   10
 N3 
M  END
>  <ref_pdb>  (1494) 
Ax0310a

>  <ref_mols>  (1494) 
Ax0446a,Ax1080a,Ax0812a,Ax0719a,Ax1140a,Ax0528a,Ax0310a

>  <original SMILES>  (1494) 
Nc1cc(Cl)c(Cl)nc1N

>  <rationale>  (1494) 
info info set:bb_densepocket2;hbond:S105+S125; 

>  <experiment>  (1494) 
bb_densepocket2

>  <cluster_label>  (1494) 
3

>  <cluster_rank>  (1494) 
1151

>  <N_interactions>  (1494) 
2

>  <∆∆G>  (1494) 
-2.117923

>  <comRMSD>  (1494) 
0.324166

>  <ROCS_TanimotoCombo>  (1494) 
0.607

>  <ROCS_ShapeTanimoto>  (1494) 
0.213

>  <ROCS_ColorTanimoto>  (1494) 
0.394

$$$$
Z361883070
     RDKit          3D

 13 14  0  0  0  0  0  0  0  0999 V2000
   28.9519   12.5510    6.9397 C   0  0  0  0  0  0  0  0  0  0  0  0
   29.9359   12.2910    7.9451 O   0  0  0  0  0  0  0  0  0  0  0  0
   30.8972   11.3356    7.5230 C   0  0  0  0  0  0  0  0  0  0  0  0
   30.6554    9.9410    7.7558 C   0  0  0  0  0  0  0  0  0  0  0  0
   31.6535    8.9478    7.2624 C   0  0  0  0  0  0  0  0  0  0  0  0
   33.0004    9.2885    6.4806 C   0  0  0  0  0  0  0  0  0  0  0  0
   33.0771   10.6945    6.3840 C   0  0  0  0  0  0  0  0  0  0  0  0
   32.0497   11.6786    6.8986 C   0  0  0  0  0  0  0  0  0  0  0  0
   32.4795   13.0697    6.6310 C   0  0  0  0  0  0  0  0  0  0  0  0
   32.2699   13.7274    8.0059 C   0  0  0  0  0  0  0  0  0  0  0  0
   32.0493   14.2905    9.2191 N   0  0  0  0  0  0  0  0  0  0  0  0
   32.5882   13.6872    5.0944 C   0  0  0  0  0  0  0  0  0  0  0  0
   33.7279   13.3771    5.9367 C   0  0  0  0  0  0  0  0  0  0  0  0
  1  2  1  0
  2  3  1  0
  3  4  2  0
  4  5  1  0
  5  6  2  0
  6  7  1  0
  7  8  2  0
  8  9  1  0
  9 10  1  0
 10 11  3  0
  9 12  1  0
 12 13  1  0
  8  3  1  0
 13  9  1  0
A    1
 C1 
A    2
 O1 
A    3
 C2 
A    4
 C3 
A    5
 C4 
A    6
 C5 
A    7
 C6 
A    8
 C7 
A    9
 C8 
A   10
 C9 
A   11
 N1 
A   12
 C10
A   13
 C11
M  END
>  <ref_pdb>  (1495) 
Ax0310a

>  <ref_mols>  (1495) 
Ax0446a,Ax1080a,Ax0812a,Ax0719a,Ax1140a,Ax0528a,Ax0310a

>  <original SMILES>  (1495) 
COc1ccccc1C1(C#N)CC1

>  <rationale>  (1495) 
info info set:3d;hbond:S87+S125; 

>  <experiment>  (1495) 
3d

>  <cluster_label>  (1495) 
3

>  <cluster_rank>  (1495) 
1152

>  <N_interactions>  (1495) 
2

>  <∆∆G>  (1495) 
-4.223941

>  <comRMSD>  (1495) 
0.945932

>  <ROCS_TanimotoCombo>  (1495) 
0.282

>  <ROCS_ShapeTanimoto>  (1495) 
0.164

>  <ROCS_ColorTanimoto>  (1495) 
0.118

$$$$
EN300_1617484
     RDKit          3D

 12 12  0  0  0  0  0  0  0  0999 V2000
   29.2972    8.1111    8.4821 C   0  0  0  0  0  0  0  0  0  0  0  0
   30.6823    7.8332    8.3833 C   0  0  0  0  0  0  0  0  0  0  0  0
   31.3843    9.0420    8.3592 C   0  0  0  0  0  0  0  0  0  0  0  0
   31.9126    9.6954    7.2273 N   0  0  0  0  0  0  0  0  0  0  0  0
   32.7465    9.0446    6.4483 N   0  0  0  0  0  0  0  0  0  0  0  0
   33.0946    9.9304    5.5314 C   0  0  0  0  0  0  0  0  0  0  0  0
   34.0853    9.5591    4.4296 C   0  0  0  0  0  0  0  0  0  0  0  0
   32.3843   11.2322    5.7863 C   0  0  0  0  0  0  0  0  0  0  0  0
   31.6410   10.9715    6.9041 C   0  0  0  0  0  0  0  0  0  0  0  0
   30.8004   11.8480    7.5644 C   0  0  0  0  0  0  0  0  0  0  0  0
   30.6255   13.1342    7.1135 C   0  0  0  0  0  0  0  0  0  0  0  0
   30.1827   11.4812    8.5446 O   0  0  0  0  0  0  0  0  0  0  0  0
  1  2  1  0
  2  3  1  0
  3  4  1  0
  4  5  1  0
  5  6  2  0
  6  7  1  0
  6  8  1  0
  8  9  2  0
  9 10  1  0
 10 11  1  0
 10 12  2  0
  9  4  1  0
A    1
 C1 
A    2
 C2 
A    3
 C3 
A    4
 N1 
A    5
 N2 
A    6
 C4 
A    7
 C5 
A    8
 C6 
A    9
 C7 
A   10
 C8 
A   11
 C9 
A   12
 O1 
M  END
>  <ref_pdb>  (1496) 
Ax0310a

>  <ref_mols>  (1496) 
Ax0446a,Ax1080a,Ax0812a,Ax0719a,Ax1140a,Ax0528a,Ax0310a

>  <original SMILES>  (1496) 
CCCn1nc(C)cc1C(C)=O

>  <rationale>  (1496) 
info info set:bb_densepocket2;hydroph_interaction:P107+V124+D109; 

>  <experiment>  (1496) 
bb_densepocket2

>  <cluster_label>  (1496) 
3

>  <cluster_rank>  (1496) 
1153

>  <N_interactions>  (1496) 
3

>  <∆∆G>  (1496) 
-0.560591

>  <comRMSD>  (1496) 
0.847282

>  <ROCS_TanimotoCombo>  (1496) 
0.615

>  <ROCS_ShapeTanimoto>  (1496) 
0.198

>  <ROCS_ColorTanimoto>  (1496) 
0.418

$$$$
Z2648736318
     RDKit          3D

 27 31  0  0  0  0  0  0  0  0999 V2000
   31.1128   16.2064   11.3285 C   0  0  0  0  0  0  0  0  0  0  0  0
   31.6248   15.3507   10.2316 C   0  0  0  0  0  0  0  0  0  0  0  0
   32.9594   15.1715   10.1584 C   0  0  0  0  0  0  0  0  0  0  0  0
   33.5822   14.3724    9.2191 C   0  0  0  0  0  0  0  0  0  0  0  0
   35.0750   14.1669    9.1503 C   0  0  0  0  0  0  0  0  0  0  0  0
   32.7270   13.7710    8.3427 C   0  0  0  0  0  0  0  0  0  0  0  0
   33.2321   12.8925    7.3206 C   0  0  0  0  0  0  0  0  0  0  0  0
   34.0360   13.2412    6.4634 O   0  0  0  0  0  0  0  0  0  0  0  0
   32.6565   11.7024    7.5147 N   0  0  0  0  0  0  0  0  0  0  0  0
   31.2350   11.6492    7.8470 C   0  0  0  0  0  0  0  0  0  0  0  0
   30.9759   10.2160    7.5646 C   0  0  1  0  0  0  0  0  0  0  0  0
   31.5198   10.5333    6.1685 C   0  0  0  0  0  0  0  0  0  0  0  0
   32.8743   10.4761    6.7449 C   0  0  1  0  0  0  0  0  0  0  0  0
   33.7665   10.3293    5.4802 C   0  0  0  0  0  0  0  0  0  0  0  0
   34.7737    9.5009    5.3336 N   0  0  0  0  0  0  0  0  0  0  0  0
   35.2949    9.6702    4.0727 N   0  0  0  0  0  0  0  0  0  0  0  0
   34.5618   10.5926    3.5095 C   0  0  0  0  0  0  0  0  0  0  0  0
   34.6585   11.1669    2.1609 C   0  0  0  0  0  0  0  0  0  0  0  0
   33.5713   11.0654    4.3294 O   0  0  0  0  0  0  0  0  0  0  0  0
   32.1092    9.2155    7.3645 C   0  0  0  0  0  0  0  0  0  0  0  0
   31.3457   14.0171    8.4569 C   0  0  0  0  0  0  0  0  0  0  0  0
   30.4702   13.4610    7.5636 O   0  0  0  0  0  0  0  0  0  0  0  0
   29.0661   13.6427    7.8537 C   0  0  0  0  0  0  0  0  0  0  0  0
   28.0996   12.8910    6.9136 C   0  0  0  0  0  0  0  0  0  0  0  0
   28.2413   14.0740    5.9709 C   0  0  0  0  0  0  0  0  0  0  0  0
   28.3515   14.8825    7.2748 C   0  0  0  0  0  0  0  0  0  0  0  0
   30.7831   14.7913    9.3897 N   0  0  0  0  0  0  0  0  0  0  0  0
  1  2  1  0
  2  3  2  0
  3  4  1  0
  4  5  1  0
  4  6  2  0
  6  7  1  0
  7  8  2  0
  7  9  1  0
  9 10  1  0
 11 10  1  1
 11 12  1  0
 12 13  1  0
 13 14  1  6
 14 15  2  0
 15 16  1  0
 16 17  2  0
 17 18  1  0
 17 19  1  0
 13 20  1  0
  6 21  1  0
 21 22  1  0
 22 23  1  0
 23 24  1  0
 24 25  1  0
 25 26  1  0
 21 27  2  0
 27  2  1  0
 13  9  1  0
 19 14  1  0
 26 23  1  0
 20 11  1  0
A    1
 C1 
A    2
 C2 
A    3
 C3 
A    4
 C4 
A    5
 C5 
A    6
 C6 
A    7
 C7 
A    8
 O1 
A    9
 N1 
A   10
 C8 
A   11
 C9 
A   12
 C10
A   13
 C11
A   14
 C12
A   15
 N2 
A   16
 N3 
A   17
 C13
A   18
 C14
A   19
 O2 
A   20
 C15
A   21
 C16
A   22
 O3 
A   23
 C17
A   24
 C18
A   25
 C19
A   26
 C20
A   27
 N4 
M  END
>  <ref_pdb>  (1497) 
Ax0310a

>  <ref_mols>  (1497) 
Ax0446a,Ax1080a,Ax0812a,Ax0719a,Ax1140a,Ax0528a,Ax0310a

>  <original SMILES>  (1497) 
Cc1cc(C)c(C(=O)N2C[C@H]3C[C@]2(c2nnc(C)o2)C3)c(OC2CCC2)n1

>  <rationale>  (1497) 
info info set:screening_whole;hbond:S87; hydroph_interaction:P107+Y89+Y90+V84; 

>  <experiment>  (1497) 
screening_whole

>  <cluster_label>  (1497) 
3

>  <cluster_rank>  (1497) 
1154

>  <N_interactions>  (1497) 
6

>  <∆∆G>  (1497) 
-0.758788

>  <comRMSD>  (1497) 
0.862379

>  <ROCS_TanimotoCombo>  (1497) 
0.455

>  <ROCS_ShapeTanimoto>  (1497) 
0.24

>  <ROCS_ColorTanimoto>  (1497) 
0.215

$$$$
Z56768351
     RDKit          3D

 19 20  0  0  0  0  0  0  0  0999 V2000
   28.9013   16.7847    9.0036 C   0  0  0  0  0  0  0  0  0  0  0  0
   28.9308   15.4551    8.4405 C   0  0  0  0  0  0  0  0  0  0  0  0
   28.2587   15.3098    7.3299 N   0  0  0  0  0  0  0  0  0  0  0  0
   28.3686   14.1091    6.9031 C   0  0  0  0  0  0  0  0  0  0  0  0
   27.6787   13.6846    5.6140 C   0  0  0  0  0  0  0  0  0  0  0  0
   29.1381   13.3534    7.7186 C   0  0  0  0  0  0  0  0  0  0  0  0
   29.3512   11.9350    7.3189 C   0  0  0  0  0  0  0  0  0  0  0  0
   30.3940   11.1468    7.9937 C   0  0  0  0  0  0  0  0  0  0  0  0
   30.3805   10.7268    9.0956 O   0  0  0  0  0  0  0  0  0  0  0  0
   31.5381   10.7452    7.2172 C   0  0  0  0  0  0  0  0  0  0  0  0
   32.4230   11.5204    6.5264 C   0  0  0  0  0  0  0  0  0  0  0  0
   32.5886   12.8854    6.3213 C   0  0  0  0  0  0  0  0  0  0  0  0
   33.5619   10.9466    5.7287 C   0  0  0  0  0  0  0  0  0  0  0  0
   33.6302    9.5617    5.7674 C   0  0  0  0  0  0  0  0  0  0  0  0
   34.5924    8.8690    5.0949 O   0  0  0  0  0  0  0  0  0  0  0  0
   32.6918    8.8642    6.5166 C   0  0  0  0  0  0  0  0  0  0  0  0
   31.6885    9.4162    7.2129 C   0  0  0  0  0  0  0  0  0  0  0  0
   30.8627    8.5595    7.8889 O   0  0  0  0  0  0  0  0  0  0  0  0
   29.7666   14.1380    9.0951 S   0  0  0  0  0  0  0  0  0  0  0  0
  1  2  1  0
  2  3  2  0
  3  4  1  0
  4  5  1  0
  4  6  2  0
  6  7  1  0
  7  8  1  0
  8  9  2  0
  8 10  1  0
 10 11  2  0
 11 12  1  0
 11 13  1  0
 13 14  2  0
 14 15  1  0
 14 16  1  0
 16 17  2  0
 17 18  1  0
  6 19  1  0
 19  2  1  0
 17 10  1  0
A    1
 C1 
A    2
 C2 
A    3
 N1 
A    4
 C3 
A    5
 C4 
A    6
 C5 
A    7
 C6 
A    8
 C7 
A    9
 O1 
A   10
 C8 
A   11
 C9 
A   12
 C10
A   13
 C11
A   14
 C12
A   15
 O2 
A   16
 C13
A   17
 C14
A   18
 O3 
A   19
 S1 
M  END
>  <ref_pdb>  (1498) 
Ax0310a

>  <ref_mols>  (1498) 
Ax0446a,Ax1080a,Ax0812a,Ax0719a,Ax1140a,Ax0528a,Ax0310a

>  <original SMILES>  (1498) 
Cc1nc(C)c(CC(=O)c2c(C)cc(O)cc2O)s1

>  <rationale>  (1498) 
info info set:screening_pocket;hbond:S105; hydroph_interaction:Y89+Y90; pistack:H21; 

>  <experiment>  (1498) 
screening_pocket

>  <cluster_label>  (1498) 
3

>  <cluster_rank>  (1498) 
1155

>  <N_interactions>  (1498) 
5

>  <∆∆G>  (1498) 
-3.717733

>  <comRMSD>  (1498) 
0.456033

>  <ROCS_TanimotoCombo>  (1498) 
0.626

>  <ROCS_ShapeTanimoto>  (1498) 
0.257

>  <ROCS_ColorTanimoto>  (1498) 
0.368

$$$$
EN300_7654678
     RDKit          3D

 10 10  0  0  0  0  0  0  0  0999 V2000
   29.1335   12.6306    7.5327 C   0  0  0  0  0  0  0  0  0  0  0  0
   30.3009   12.1936    8.2795 N   0  0  0  0  0  0  0  0  0  0  0  0
   31.2174   11.3103    7.5520 C   0  0  0  0  0  0  0  0  0  0  0  0
   32.1617   11.9947    6.6239 C   0  0  0  0  0  0  0  0  0  0  0  0
   33.2867   11.3869    5.6974 C   0  0  0  0  0  0  0  0  0  0  0  0
   33.1882    9.8349    5.9859 C   0  0  0  0  0  0  0  0  0  0  0  0
   34.1850    9.0412    5.2363 C   0  0  0  0  0  0  0  0  0  0  0  0
   32.3471    9.1455    6.8095 N   0  0  0  0  0  0  0  0  0  0  0  0
   31.4257    9.7827    7.5498 C   0  0  0  0  0  0  0  0  0  0  0  0
   30.3381    8.7123    8.6666 Br  0  0  0  0  0  0  0  0  0  0  0  0
  1  2  1  0
  2  3  1  0
  3  4  2  0
  4  5  1  0
  5  6  2  0
  6  7  1  0
  6  8  1  0
  8  9  2  0
  9 10  1  0
  9  3  1  0
A    1
 C1 
A    2
 N1 
A    3
 C2 
A    4
 C3 
A    5
 C4 
A    6
 C5 
A    7
 C6 
A    8
 N2 
A    9
 C7 
A   10
BR1 
M  END
>  <ref_pdb>  (1499) 
Ax0310a

>  <ref_mols>  (1499) 
Ax0446a,Ax1080a,Ax0812a,Ax0719a,Ax1140a,Ax0528a,Ax0310a

>  <original SMILES>  (1499) 
CNc1ccc(C)nc1Br

>  <rationale>  (1499) 
info info set:bb_densepocket2;hbond:S125; 

>  <experiment>  (1499) 
bb_densepocket2

>  <cluster_label>  (1499) 
3

>  <cluster_rank>  (1499) 
1156

>  <N_interactions>  (1499) 
1

>  <∆∆G>  (1499) 
-5.649663

>  <comRMSD>  (1499) 
0.593172

>  <ROCS_TanimotoCombo>  (1499) 
0.607

>  <ROCS_ShapeTanimoto>  (1499) 
0.209

>  <ROCS_ColorTanimoto>  (1499) 
0.398

$$$$
Z31118205
     RDKit          3D

 28 31  0  0  0  0  0  0  0  0999 V2000
   25.5029   13.0726    8.4957 C   0  0  0  0  0  0  0  0  0  0  0  0
   26.2186   14.0385    8.6956 O   0  0  0  0  0  0  0  0  0  0  0  0
   27.5352   13.9256    8.3344 C   0  0  0  0  0  0  0  0  0  0  0  0
   27.7484   13.1752    6.9868 C   0  0  0  0  0  0  0  0  0  0  0  0
   29.2212   13.0313    6.5331 C   0  0  0  0  0  0  0  0  0  0  0  0
   30.2847   13.6392    7.4550 C   0  0  0  0  0  0  0  0  0  0  0  0
   31.5023   13.5555    7.0895 O   0  0  0  0  0  0  0  0  0  0  0  0
   31.9949   12.2958    6.8529 C   0  0  0  0  0  0  0  0  0  0  0  0
   31.2276   11.3650    7.4484 N   0  0  0  0  0  0  0  0  0  0  0  0
   31.6564   10.1411    7.2478 C   0  0  0  0  0  0  0  0  0  0  0  0
   30.7843    9.3313    7.9097 C   0  0  0  0  0  0  0  0  0  0  0  0
   29.8438   10.2617    8.4987 C   0  0  0  0  0  0  0  0  0  0  0  0
   28.9100    9.7117    9.1485 C   0  0  0  0  0  0  0  0  0  0  0  0
   28.9452    8.3826    9.1591 C   0  0  0  0  0  0  0  0  0  0  0  0
   29.7994    7.5056    8.6436 N   0  0  0  0  0  0  0  0  0  0  0  0
   30.7515    8.0633    8.0054 C   0  0  0  0  0  0  0  0  0  0  0  0
   32.6538    9.6747    6.5857 N   0  0  0  0  0  0  0  0  0  0  0  0
   33.4240   10.5505    5.9969 C   0  0  0  0  0  0  0  0  0  0  0  0
   34.5457    9.7799    5.2737 C   0  0  0  0  0  0  0  0  0  0  0  0
   35.2392   11.0004    4.7428 C   0  0  0  0  0  0  0  0  0  0  0  0
   34.9761   12.3450    4.8465 C   0  0  0  0  0  0  0  0  0  0  0  0
   33.9338   12.8726    5.5152 C   0  0  0  0  0  0  0  0  0  0  0  0
   33.1353   11.9625    6.1068 C   0  0  0  0  0  0  0  0  0  0  0  0
   29.9259   14.2836    8.6468 C   0  0  0  0  0  0  0  0  0  0  0  0
   30.9604   14.8603    9.5088 N   0  0  0  0  0  4  0  0  0  0  0  0
   32.1343   14.5693    9.2576 O   0  0  0  0  0  0  0  0  0  0  0  0
   30.6321   15.8968   10.1126 O   0  0  0  0  0  1  0  0  0  0  0  0
   28.6002   14.4245    9.0760 C   0  0  0  0  0  0  0  0  0  0  0  0
  1  2  1  0
  2  3  1  0
  3  4  2  0
  4  5  1  0
  5  6  2  0
  6  7  1  0
  7  8  1  0
  8  9  2  0
  9 10  1  0
 10 11  1  0
 11 12  2  0
 12 13  1  0
 13 14  2  0
 14 15  1  0
 15 16  2  0
 10 17  2  0
 17 18  1  0
 18 19  2  0
 19 20  1  0
 20 21  2  0
 21 22  1  0
 22 23  2  0
  6 24  1  0
 24 25  1  0
 25 26  2  0
 25 27  1  0
 24 28  2  0
 28  3  1  0
 23  8  1  0
 16 11  1  0
 23 18  1  0
M  CHG  2  25   1  27  -1
A    1
 C1 
A    2
 O1 
A    3
 C2 
A    4
 C3 
A    5
 C4 
A    6
 C5 
A    7
 O2 
A    8
 C6 
A    9
 N1 
A   10
 C7 
A   11
 C8 
A   12
 C9 
A   13
 C10
A   14
 C11
A   15
 N2 
A   16
 C12
A   17
 N3 
A   18
 C13
A   19
 C14
A   20
 C15
A   21
 C16
A   22
 C17
A   23
 C18
A   24
 C19
A   25
 N4 
A   26
 O3 
A   27
 O4 
A   28
 C20
M  END
>  <ref_pdb>  (1500) 
Ax0310a

>  <ref_mols>  (1500) 
Ax0446a,Ax1080a,Ax0812a,Ax0719a,Ax1140a,Ax0528a,Ax0310a

>  <original SMILES>  (1500) 
COc1ccc(Oc2nc(-c3cccnc3)nc3ccccc23)c([N+](=O)[O-])c1

>  <rationale>  (1500) 
info info set:screening_whole;hbond:G127; hydroph_interaction:P107; 

>  <experiment>  (1500) 
screening_whole

>  <cluster_label>  (1500) 
3

>  <cluster_rank>  (1500) 
1157

>  <N_interactions>  (1500) 
2

>  <∆∆G>  (1500) 
-2.382884

>  <comRMSD>  (1500) 
0.893817

>  <ROCS_TanimotoCombo>  (1500) 
0.46

>  <ROCS_ShapeTanimoto>  (1500) 
0.271

>  <ROCS_ColorTanimoto>  (1500) 
0.189

$$$$
EN300_1274112
     RDKit          3D

 14 14  0  0  0  0  0  0  0  0999 V2000
   28.2869   14.6443    6.8043 C   0  0  0  0  0  0  0  0  0  0  0  0
   28.8042   15.6426    7.6551 O   0  0  0  0  0  0  0  0  0  0  0  0
   28.9596   15.1992    8.9177 C   0  0  0  0  0  0  0  0  0  0  0  0
   29.3474   13.7440    9.0054 C   0  0  0  0  0  0  0  0  0  0  0  0
   30.0222   13.0652    7.7547 C   0  0  0  0  0  0  0  0  0  0  0  0
   30.3220   11.6797    8.0350 N   0  0  0  0  0  0  0  0  0  0  0  0
   31.3056   11.0488    7.3176 C   0  0  0  0  0  0  0  0  0  0  0  0
   32.2224   11.8327    6.4027 C   0  0  0  0  0  0  0  0  0  0  0  0
   33.3065   11.0467    5.6512 C   0  0  0  0  0  0  0  0  0  0  0  0
   33.2757    9.5679    5.9565 C   0  0  0  0  0  0  0  0  0  0  0  0
   34.3830    8.8141    5.2229 C   0  0  0  0  0  0  0  0  0  0  0  0
   34.3553    8.5713    3.8501 N   0  0  0  0  0  0  0  0  0  0  0  0
   32.4174    8.9282    6.7805 N   0  0  0  0  0  0  0  0  0  0  0  0
   31.4829    9.6664    7.4205 C   0  0  0  0  0  0  0  0  0  0  0  0
  1  2  1  0
  2  3  1  0
  3  4  1  0
  4  5  1  0
  5  6  1  0
  6  7  1  0
  7  8  2  0
  8  9  1  0
  9 10  2  0
 10 11  1  0
 11 12  3  0
 10 13  1  0
 13 14  2  0
 14  7  1  0
A    1
 C1 
A    2
 O1 
A    3
 C2 
A    4
 C3 
A    5
 C4 
A    6
 N1 
A    7
 C5 
A    8
 C6 
A    9
 C7 
A   10
 C8 
A   11
 C9 
A   12
 N2 
A   13
 N3 
A   14
 C10
M  END
>  <ref_pdb>  (1501) 
Ax0310a

>  <ref_mols>  (1501) 
Ax0446a,Ax1080a,Ax0812a,Ax0719a,Ax1140a,Ax0528a,Ax0310a

>  <original SMILES>  (1501) 
COCCCNc1ccc(C#N)nc1

>  <rationale>  (1501) 
info info set:bb_densepocket2;hbond:S87+S125; hydroph_interaction:P107; 

>  <experiment>  (1501) 
bb_densepocket2

>  <cluster_label>  (1501) 
3

>  <cluster_rank>  (1501) 
1158

>  <N_interactions>  (1501) 
3

>  <∆∆G>  (1501) 
-3.62104

>  <comRMSD>  (1501) 
0.747355

>  <ROCS_TanimotoCombo>  (1501) 
0.61

>  <ROCS_ShapeTanimoto>  (1501) 
0.21

>  <ROCS_ColorTanimoto>  (1501) 
0.401

$$$$
EN300_6509933
     RDKit          3D

 13 13  0  0  0  0  0  0  0  0999 V2000
   28.7512   14.2745    8.0366 C   0  0  0  0  0  0  0  0  0  0  0  0
   28.7456   12.7484    7.9404 C   0  0  0  0  0  0  0  0  0  0  0  0
   29.9671   12.2032    7.3650 O   0  0  0  0  0  0  0  0  0  0  0  0
   30.4875   11.0710    7.9267 C   0  0  0  0  0  0  0  0  0  0  0  0
   30.1477   10.5033    8.9226 O   0  0  0  0  0  0  0  0  0  0  0  0
   31.6392   10.5448    7.0880 C   0  0  0  0  0  0  0  0  0  0  0  0
   32.2648   11.5658    6.4122 C   0  0  0  0  0  0  0  0  0  0  0  0
   33.4240   11.2436    5.5283 C   0  0  0  0  0  0  0  0  0  0  0  0
   33.7827    9.7515    5.4858 C   0  0  0  0  0  0  0  0  0  0  0  0
   34.8814    9.4483    4.6514 N   0  0  0  0  0  0  0  0  0  0  0  0
   35.2121    8.0783    4.3322 C   0  0  0  0  0  0  0  0  0  0  0  0
   33.0109    8.8166    6.2666 N   0  0  0  0  0  0  0  0  0  0  0  0
   31.9566    9.2377    7.0501 N   0  0  0  0  0  0  0  0  0  0  0  0
  1  2  1  0
  2  3  1  0
  3  4  1  0
  4  5  2  0
  4  6  1  0
  6  7  2  0
  7  8  1  0
  8  9  2  0
  9 10  1  0
 10 11  1  0
  9 12  1  0
 12 13  2  0
 13  6  1  0
A    1
 C1 
A    2
 C2 
A    3
 O1 
A    4
 C3 
A    5
 O2 
A    6
 C4 
A    7
 C5 
A    8
 C6 
A    9
 C7 
A   10
 N1 
A   11
 C8 
A   12
 N2 
A   13
 N3 
M  END
>  <ref_pdb>  (1502) 
Ax0310a

>  <ref_mols>  (1502) 
Ax0446a,Ax1080a,Ax0812a,Ax0719a,Ax1140a,Ax0528a,Ax0310a

>  <original SMILES>  (1502) 
CCOC(=O)c1ccc(NC)nn1

>  <rationale>  (1502) 
info info set:bb_densepocket2;hydroph_interaction:P107; 

>  <experiment>  (1502) 
bb_densepocket2

>  <cluster_label>  (1502) 
3

>  <cluster_rank>  (1502) 
1159

>  <N_interactions>  (1502) 
1

>  <∆∆G>  (1502) 
-4.178613

>  <comRMSD>  (1502) 
0.766474

>  <ROCS_TanimotoCombo>  (1502) 
0.614

>  <ROCS_ShapeTanimoto>  (1502) 
0.224

>  <ROCS_ColorTanimoto>  (1502) 
0.39

$$$$
EN300_37375168
     RDKit          3D

  9 10  0  0  0  0  0  0  0  0999 V2000
   34.1253    9.8895    5.3173 C   0  0  0  0  0  0  0  0  0  0  0  0
   33.1444   10.2570    6.3913 C   0  0  2  0  0  0  0  0  0  0  0  0
   33.0063   11.6654    7.1167 C   0  0  0  0  0  0  0  0  0  0  0  0
   31.5786   11.0806    7.4466 C   0  0  2  0  0  0  0  0  0  0  0  0
   30.4569   11.9166    7.9164 C   0  0  0  0  0  0  0  0  0  0  0  0
   29.9915   12.7108    6.8350 O   0  0  0  0  0  0  0  0  0  0  0  0
   31.4487    9.5702    7.7281 C   0  0  0  0  0  0  0  0  0  0  0  0
   32.6217    9.0912    7.0869 O   0  0  0  0  0  0  0  0  0  0  0  0
   31.8481   10.9409    5.9481 C   0  0  0  0  0  0  0  0  0  0  0  0
  2  1  1  6
  2  3  1  0
  3  4  1  0
  4  5  1  6
  5  6  1  0
  4  7  1  0
  7  8  1  0
  4  9  1  0
  8  2  1  0
  9  2  1  0
A    1
 C1 
A    2
 C2 
A    3
 C3 
A    4
 C4 
A    5
 C5 
A    6
 O1 
A    7
 C6 
A    8
 O2 
A    9
 C7 
M  END
>  <ref_pdb>  (1503) 
Ax0310a

>  <ref_mols>  (1503) 
Ax0446a,Ax1080a,Ax0812a,Ax0719a,Ax1140a,Ax0528a,Ax0310a

>  <original SMILES>  (1503) 
C[C@]12C[C@](CO)(CO1)C2

>  <rationale>  (1503) 
info info set:bb_densepocket;hydroph_interaction:P107; 

>  <experiment>  (1503) 
bb_densepocket

>  <cluster_label>  (1503) 
3

>  <cluster_rank>  (1503) 
1160

>  <N_interactions>  (1503) 
1

>  <∆∆G>  (1503) 
-0.146214

>  <comRMSD>  (1503) 
0.766196

>  <ROCS_TanimotoCombo>  (1503) 
0.705

>  <ROCS_ShapeTanimoto>  (1503) 
0.193

>  <ROCS_ColorTanimoto>  (1503) 
0.512

$$$$
Z45529979
     RDKit          3D

 15 15  0  0  0  0  0  0  0  0999 V2000
   33.2560   12.8611    4.1509 C   0  0  0  0  0  0  0  0  0  0  0  0
   34.5776   12.8970    4.8723 C   0  0  0  0  0  0  0  0  0  0  0  0
   34.7529   13.7616    6.1313 C   0  0  0  0  0  0  0  0  0  0  0  0
   33.4731   14.0630    6.4828 N   0  0  0  0  0  0  0  0  0  0  0  0
   32.8475   13.4483    7.9021 S   0  0  0  0  0  6  0  0  0  0  0  0
   31.6703   14.1604    8.3589 O   0  0  0  0  0  0  0  0  0  0  0  0
   33.9391   13.2238    8.8226 O   0  0  0  0  0  0  0  0  0  0  0  0
   32.2721   11.8926    7.5291 C   0  0  0  0  0  0  0  0  0  0  0  0
   33.0463   10.8907    6.7583 C   0  0  0  0  0  0  0  0  0  0  0  0
   34.1993   11.1975    6.2246 F   0  0  0  0  0  0  0  0  0  0  0  0
   32.5629    9.4837    6.5727 C   0  0  0  0  0  0  0  0  0  0  0  0
   31.2045    9.2632    7.2688 C   0  0  0  0  0  0  0  0  0  0  0  0
   30.5680   10.3281    7.9032 C   0  0  0  0  0  0  0  0  0  0  0  0
   31.0713   11.5892    8.0145 C   0  0  0  0  0  0  0  0  0  0  0  0
   30.3580   12.5237    8.6352 F   0  0  0  0  0  0  0  0  0  0  0  0
  1  2  2  0
  2  3  1  0
  3  4  1  0
  4  5  1  0
  5  6  2  0
  5  7  2  0
  5  8  1  0
  8  9  2  0
  9 10  1  0
  9 11  1  0
 11 12  2  0
 12 13  1  0
 13 14  2  0
 14 15  1  0
 14  8  1  0
A    1
 C1 
A    2
 C2 
A    3
 C3 
A    4
 N1 
A    5
 S1 
A    6
 O1 
A    7
 O2 
A    8
 C4 
A    9
 C5 
A   10
 F1 
A   11
 C6 
A   12
 C7 
A   13
 C8 
A   14
 C9 
A   15
 F2 
M  END
>  <ref_pdb>  (1504) 
Ax0310a

>  <ref_mols>  (1504) 
Ax0446a,Ax1080a,Ax0812a,Ax0719a,Ax1140a,Ax0528a,Ax0310a

>  <original SMILES>  (1504) 
C=CCNS(=O)(=O)c1c(F)cccc1F

>  <rationale>  (1504) 
info info set:3d;hbond:S87+G127; 

>  <experiment>  (1504) 
3d

>  <cluster_label>  (1504) 
3

>  <cluster_rank>  (1504) 
1161

>  <N_interactions>  (1504) 
2

>  <∆∆G>  (1504) 
-1.106301

>  <comRMSD>  (1504) 
0.997011

>  <ROCS_TanimotoCombo>  (1504) 
0.302

>  <ROCS_ShapeTanimoto>  (1504) 
0.178

>  <ROCS_ColorTanimoto>  (1504) 
0.124

$$$$
EN300_4805181
     RDKit          3D

 15 16  0  0  0  0  0  0  0  0999 V2000
   32.9247   13.8845    6.3402 N   0  0  0  0  0  0  0  0  0  0  0  0
   31.6900   13.3673    7.3804 S   0  0  0  0  0  6  0  0  0  0  0  0
   31.9852   13.7848    8.7370 O   0  0  0  0  0  0  0  0  0  0  0  0
   30.3961   13.6067    6.7617 O   0  0  0  0  0  0  0  0  0  0  0  0
   32.0025   11.7183    7.1275 C   0  0  0  0  0  0  0  0  0  0  0  0
   31.0832   10.9376    7.9082 C   0  0  0  0  0  0  0  0  0  0  0  0
   31.1773    9.4585    7.8308 C   0  0  0  0  0  0  0  0  0  0  0  0
   30.0520    8.4168    8.7913 Br  0  0  0  0  0  0  0  0  0  0  0  0
   32.3235    9.0777    6.8545 C   0  0  0  0  0  0  0  0  0  0  0  0
   33.1387    9.9710    6.1602 C   0  0  0  0  0  0  0  0  0  0  0  0
   32.9864   11.3105    6.2898 C   0  0  0  0  0  0  0  0  0  0  0  0
   33.7237   12.2678    5.6576 O   0  0  0  0  0  0  0  0  0  0  0  0
   34.3558   11.8533    4.4672 C   0  0  0  0  0  0  0  0  0  0  0  0
   35.1789   10.6328    4.7655 C   0  0  0  0  0  0  0  0  0  0  0  0
   34.2614    9.4927    5.2021 C   0  0  0  0  0  0  0  0  0  0  0  0
  1  2  1  0
  2  3  2  0
  2  4  2  0
  2  5  1  0
  5  6  2  0
  6  7  1  0
  7  8  1  0
  7  9  2  0
  9 10  1  0
 10 11  2  0
 11 12  1  0
 12 13  1  0
 13 14  1  0
 14 15  1  0
 11  5  1  0
 15 10  1  0
A    1
 N1 
A    2
 S1 
A    3
 O1 
A    4
 O2 
A    5
 C1 
A    6
 C2 
A    7
 C3 
A    8
BR1 
A    9
 C4 
A   10
 C5 
A   11
 C6 
A   12
 O3 
A   13
 C7 
A   14
 C8 
A   15
 C9 
M  END
>  <ref_pdb>  (1505) 
Ax0310a

>  <ref_mols>  (1505) 
Ax0446a,Ax1080a,Ax0812a,Ax0719a,Ax1140a,Ax0528a,Ax0310a

>  <original SMILES>  (1505) 
NS(=O)(=O)c1cc(Br)cc2c1OCCC2

>  <rationale>  (1505) 
info info set:sulfonimide_whole;hbond:S87; 

>  <experiment>  (1505) 
sulfonimide_whole

>  <cluster_label>  (1505) 
3

>  <cluster_rank>  (1505) 
1162

>  <N_interactions>  (1505) 
1

>  <∆∆G>  (1505) 
-0.945781

>  <comRMSD>  (1505) 
0.626358

>  <ROCS_TanimotoCombo>  (1505) 
0.332

>  <ROCS_ShapeTanimoto>  (1505) 
0.202

>  <ROCS_ColorTanimoto>  (1505) 
0.13

$$$$
EN300_311371
     RDKit          3D

 11 11  0  0  0  0  0  0  0  0999 V2000
   30.5379    8.7597    9.5450 C   0  0  0  0  0  0  0  0  0  0  0  0
   30.5758    8.4190    8.1534 C   0  0  0  0  0  0  0  0  0  0  0  0
   29.1189    8.3958    8.2272 C   0  0  0  0  0  0  0  0  0  0  0  0
   31.3237    9.4446    7.4660 N   0  0  0  0  0  0  0  0  0  0  0  0
   32.3541    9.0274    6.6665 N   0  0  0  0  0  0  0  0  0  0  0  0
   32.9190   10.1206    6.1338 C   0  0  0  0  0  0  0  0  0  0  0  0
   34.1073   10.0199    5.1736 C   0  0  0  0  0  0  0  0  0  0  0  0
   34.2729    8.7417    4.5396 O   0  0  0  0  0  0  0  0  0  0  0  0
   32.2587   11.2686    6.5900 C   0  0  0  0  0  0  0  0  0  0  0  0
   31.1546   10.8111    7.5068 C   0  0  0  0  0  0  0  0  0  0  0  0
   30.2324   11.5056    8.1961 N   0  0  0  0  0  0  0  0  0  0  0  0
  1  2  1  0
  2  3  1  0
  2  4  1  0
  4  5  1  0
  5  6  2  0
  6  7  1  0
  7  8  1  0
  6  9  1  0
  9 10  2  0
 10 11  1  0
 10  4  1  0
A    1
 C1 
A    2
 C2 
A    3
 C3 
A    4
 N1 
A    5
 N2 
A    6
 C4 
A    7
 C5 
A    8
 O1 
A    9
 C6 
A   10
 C7 
A   11
 N3 
M  END
>  <ref_pdb>  (1506) 
Ax0310a

>  <ref_mols>  (1506) 
Ax0446a,Ax1080a,Ax0812a,Ax0719a,Ax1140a,Ax0528a,Ax0310a

>  <original SMILES>  (1506) 
CC(C)n1nc(CO)cc1N

>  <rationale>  (1506) 
info info set:bb_densepocket2;hbond:S125; 

>  <experiment>  (1506) 
bb_densepocket2

>  <cluster_label>  (1506) 
3

>  <cluster_rank>  (1506) 
1163

>  <N_interactions>  (1506) 
1

>  <∆∆G>  (1506) 
-2.987943

>  <comRMSD>  (1506) 
0.505974

>  <ROCS_TanimotoCombo>  (1506) 
0.618

>  <ROCS_ShapeTanimoto>  (1506) 
0.213

>  <ROCS_ColorTanimoto>  (1506) 
0.405

$$$$
EN300_2922361
     RDKit          3D

 13 13  0  0  0  0  0  0  0  0999 V2000
   29.5251   14.1690    9.3062 C   0  0  0  0  0  0  0  0  0  0  0  0
   29.0243   13.1730    8.2785 C   0  0  0  0  0  0  0  0  0  0  0  0
   30.1515   12.6149    7.5736 O   0  0  0  0  0  0  0  0  0  0  0  0
   30.5312   11.3711    7.9724 C   0  0  0  0  0  0  0  0  0  0  0  0
   30.0949   10.7305    8.8751 O   0  0  0  0  0  0  0  0  0  0  0  0
   31.5219   10.8220    7.2001 C   0  0  0  0  0  0  0  0  0  0  0  0
   32.3477   11.5602    6.3834 C   0  0  0  0  0  0  0  0  0  0  0  0
   32.2153   12.9381    6.3076 C   0  0  0  0  0  0  0  0  0  0  0  0
   33.3117   10.8824    5.6417 C   0  0  0  0  0  0  0  0  0  0  0  0
   33.3831    9.5101    5.7706 C   0  0  0  0  0  0  0  0  0  0  0  0
   32.5743    8.7997    6.5767 N   0  0  0  0  0  0  0  0  0  0  0  0
   31.6514    9.4487    7.2883 C   0  0  0  0  0  0  0  0  0  0  0  0
   30.8226    8.6861    8.1261 N   0  0  0  0  0  0  0  0  0  0  0  0
  1  2  1  0
  2  3  1  0
  3  4  1  0
  4  5  2  0
  4  6  1  0
  6  7  2  0
  7  8  1  0
  7  9  1  0
  9 10  2  0
 10 11  1  0
 11 12  2  0
 12 13  1  0
 12  6  1  0
A    1
 C1 
A    2
 C2 
A    3
 O1 
A    4
 C3 
A    5
 O2 
A    6
 C4 
A    7
 C5 
A    8
 C6 
A    9
 C7 
A   10
 C8 
A   11
 N1 
A   12
 C9 
A   13
 N2 
M  END
>  <ref_pdb>  (1507) 
Ax0310a

>  <ref_mols>  (1507) 
Ax0446a,Ax1080a,Ax0812a,Ax0719a,Ax1140a,Ax0528a,Ax0310a

>  <original SMILES>  (1507) 
CCOC(=O)c1c(C)ccnc1N

>  <rationale>  (1507) 
info info set:bb_densepocket2;hbond:S105; hydroph_interaction:P107; 

>  <experiment>  (1507) 
bb_densepocket2

>  <cluster_label>  (1507) 
3

>  <cluster_rank>  (1507) 
1164

>  <N_interactions>  (1507) 
2

>  <∆∆G>  (1507) 
-4.493874

>  <comRMSD>  (1507) 
0.461819

>  <ROCS_TanimotoCombo>  (1507) 
0.609

>  <ROCS_ShapeTanimoto>  (1507) 
0.235

>  <ROCS_ColorTanimoto>  (1507) 
0.375

$$$$
EN300_3381784
     RDKit          3D

 15 15  0  0  0  0  0  0  0  0999 V2000
   28.4077   14.3074    9.1346 C   0  0  0  0  0  0  0  0  0  0  0  0
   29.1906   13.1288    8.8306 N   0  0  0  0  0  0  0  0  0  0  0  0
   30.4833   13.3415    7.8133 S   0  0  0  0  0  6  0  0  0  0  0  0
   29.8364   13.6669    6.5600 O   0  0  0  0  0  0  0  0  0  0  0  0
   31.4042   14.1743    8.5307 O   0  0  0  0  0  0  0  0  0  0  0  0
   31.2390   11.7994    7.5382 C   0  0  0  0  0  0  0  0  0  0  0  0
   30.6294   10.7059    7.9581 C   0  0  0  0  0  0  0  0  0  0  0  0
   31.0894    9.3792    7.7949 C   0  0  0  0  0  0  0  0  0  0  0  0
   30.0942    8.0438    8.5516 Br  0  0  0  0  0  0  0  0  0  0  0  0
   32.3681    9.2141    7.0221 C   0  0  0  0  0  0  0  0  0  0  0  0
   32.9493   10.4111    6.6513 C   0  0  0  0  0  0  0  0  0  0  0  0
   32.4912   11.7121    6.8807 C   0  0  0  0  0  0  0  0  0  0  0  0
   33.2345   12.8799    6.5006 N   0  0  0  0  0  4  0  0  0  0  0  0
   33.6802   13.4577    7.5130 O   0  0  0  0  0  0  0  0  0  0  0  0
   33.8112   12.8496    5.4174 O   0  0  0  0  0  1  0  0  0  0  0  0
  1  2  1  0
  2  3  1  0
  3  4  2  0
  3  5  2  0
  3  6  1  0
  6  7  2  0
  7  8  1  0
  8  9  1  0
  8 10  2  0
 10 11  1  0
 11 12  2  0
 12 13  1  0
 13 14  2  0
 13 15  1  0
 12  6  1  0
M  CHG  2  13   1  15  -1
A    1
 C1 
A    2
 N1 
A    3
 S1 
A    4
 O1 
A    5
 O2 
A    6
 C2 
A    7
 C3 
A    8
 C4 
A    9
BR1 
A   10
 C5 
A   11
 C6 
A   12
 C7 
A   13
 N2 
A   14
 O3 
A   15
 O4 
M  END
>  <ref_pdb>  (1508) 
Ax0310a

>  <ref_mols>  (1508) 
Ax0446a,Ax1080a,Ax0812a,Ax0719a,Ax1140a,Ax0528a,Ax0310a

>  <original SMILES>  (1508) 
CNS(=O)(=O)c1cc(Br)ccc1[N+](=O)[O-]

>  <rationale>  (1508) 
info info set:sulfonimide_whole;hbond:S87; 

>  <experiment>  (1508) 
sulfonimide_whole

>  <cluster_label>  (1508) 
3

>  <cluster_rank>  (1508) 
1165

>  <N_interactions>  (1508) 
1

>  <∆∆G>  (1508) 
-4.667448

>  <comRMSD>  (1508) 
0.991408

>  <ROCS_TanimotoCombo>  (1508) 
0.331

>  <ROCS_ShapeTanimoto>  (1508) 
0.194

>  <ROCS_ColorTanimoto>  (1508) 
0.137

$$$$
Z2193987986
     RDKit          3D

 16 18  0  0  0  0  0  0  0  0999 V2000
   29.7299   13.2672    6.1265 O   0  0  0  0  0  0  0  0  0  0  0  0
   30.1505   12.3100    6.7398 C   0  0  0  0  0  0  0  0  0  0  0  0
   29.4204   11.6393    7.8445 C   0  0  0  0  0  0  0  0  0  0  0  0
   30.2592   10.4917    8.0917 N   0  0  0  0  0  0  0  0  0  0  0  0
   31.3373   10.4780    7.2422 C   0  0  0  0  0  0  0  0  0  0  0  0
   32.1736    9.4080    7.1419 O   0  0  0  0  0  0  0  0  0  0  0  0
   31.3255   11.6949    6.5626 N   0  0  0  0  0  0  0  0  0  0  0  0
   32.5183   12.5289    6.5436 C   0  0  0  0  0  0  0  0  0  0  0  0
   32.8977   12.7901    7.9763 C   0  0  0  0  0  0  0  0  0  0  0  0
   32.2484   13.7614    8.7597 C   0  0  0  0  0  0  0  0  0  0  0  0
   33.3551   14.3225    9.2809 C   0  0  0  0  0  0  0  0  0  0  0  0
   34.2352   13.5375    8.5230 C   0  0  0  0  0  0  0  0  0  0  0  0
   33.2782   12.0569    5.4831 C   0  0  0  0  0  0  0  0  0  0  0  0
   33.7178   10.7855    5.4988 C   0  0  0  0  0  0  0  0  0  0  0  0
   35.0323   10.9621    4.8879 C   0  0  0  0  0  0  0  0  0  0  0  0
   34.8436   12.3109    5.3481 C   0  0  0  0  0  0  0  0  0  0  0  0
  1  2  2  0
  2  3  1  0
  3  4  1  0
  4  5  1  0
  5  6  2  0
  5  7  1  0
  7  8  1  0
  8  9  1  0
  9 10  1  0
 10 11  1  0
 11 12  1  0
  8 13  1  0
 13 14  1  0
 14 15  1  0
 15 16  1  0
  7  2  1  0
 12  9  1  0
 16 13  1  0
A    1
 O1 
A    2
 C1 
A    3
 C2 
A    4
 N1 
A    5
 C3 
A    6
 O2 
A    7
 N2 
A    8
 C4 
A    9
 C5 
A   10
 C6 
A   11
 C7 
A   12
 C8 
A   13
 C9 
A   14
 C10
A   15
 C11
A   16
 C12
M  END
>  <ref_pdb>  (1509) 
Ax0310a

>  <ref_mols>  (1509) 
Ax0446a,Ax1080a,Ax0812a,Ax0719a,Ax1140a,Ax0528a,Ax0310a

>  <original SMILES>  (1509) 
O=C1CNC(=O)N1C(C1CCC1)C1CCC1

>  <rationale>  (1509) 
info info set:3d;

>  <experiment>  (1509) 
3d

>  <cluster_label>  (1509) 
3

>  <cluster_rank>  (1509) 
1166

>  <N_interactions>  (1509) 
0

>  <∆∆G>  (1509) 
-0.522441

>  <comRMSD>  (1509) 
0.914631

>  <ROCS_TanimotoCombo>  (1509) 
0.314

>  <ROCS_ShapeTanimoto>  (1509) 
0.212

>  <ROCS_ColorTanimoto>  (1509) 
0.101

$$$$
Z1971703351
     RDKit          3D

 12 12  0  0  0  0  0  0  0  0999 V2000
   34.5957    8.9048    5.0807 C   0  0  0  0  0  0  0  0  0  0  0  0
   33.8161   10.1440    5.3462 C   0  0  0  0  0  0  0  0  0  0  0  0
   32.7999   10.0996    6.2486 N   0  0  0  0  0  0  0  0  0  0  0  0
   32.3315    8.9080    6.8073 N   0  0  0  0  0  0  0  0  0  0  0  0
   31.3394    9.3623    7.6207 C   0  0  0  0  0  0  0  0  0  0  0  0
   31.1848   10.8494    7.5674 C   0  0  0  0  0  0  0  0  0  0  0  0
   30.2365   11.5995    8.2907 N   0  0  0  0  0  0  0  0  0  0  0  0
   32.1492   11.2322    6.6802 C   0  0  0  0  0  0  0  0  0  0  0  0
   32.3455   12.6918    6.3340 C   0  0  0  0  0  0  0  0  0  0  0  0
   33.5983   13.1277    6.6193 F   0  0  0  0  0  0  0  0  0  0  0  0
   31.4810   13.4334    7.0454 F   0  0  0  0  0  0  0  0  0  0  0  0
   32.1464   12.9464    5.0160 F   0  0  0  0  0  0  0  0  0  0  0  0
  1  2  1  0
  2  3  1  0
  3  4  1  0
  4  5  2  0
  5  6  1  0
  6  7  1  0
  6  8  2  0
  8  9  1  0
  9 10  1  0
  9 11  1  0
  9 12  1  0
  8  3  1  0
A    1
 C1 
A    2
 C2 
A    3
 N1 
A    4
 N2 
A    5
 C3 
A    6
 C4 
A    7
 N3 
A    8
 C5 
A    9
 C6 
A   10
 F1 
A   11
 F2 
A   12
 F3 
M  END
>  <ref_pdb>  (1510) 
Ax0310a

>  <ref_mols>  (1510) 
Ax0446a,Ax1080a,Ax0812a,Ax0719a,Ax1140a,Ax0528a,Ax0310a

>  <original SMILES>  (1510) 
CCn1ncc(N)c1C(F)(F)F

>  <rationale>  (1510) 
info info set:3d;hbond:S125; 

>  <experiment>  (1510) 
3d

>  <cluster_label>  (1510) 
3

>  <cluster_rank>  (1510) 
1167

>  <N_interactions>  (1510) 
1

>  <∆∆G>  (1510) 
-4.146603

>  <comRMSD>  (1510) 
0.56402

>  <ROCS_TanimotoCombo>  (1510) 
0.291

>  <ROCS_ShapeTanimoto>  (1510) 
0.188

>  <ROCS_ColorTanimoto>  (1510) 
0.103

$$$$
Z448247422
     RDKit          3D

 15 16  0  0  0  0  0  0  0  0999 V2000
   32.1391   14.2501   10.0043 N   0  0  0  0  0  0  0  0  0  0  0  0
   32.3881   13.7523    8.8067 C   0  0  0  0  0  0  0  0  0  0  0  0
   31.1127   14.0097    8.2832 O   0  0  0  0  0  0  0  0  0  0  0  0
   33.0972   13.1146    7.6567 C   0  0  0  0  0  0  0  0  0  0  0  0
   32.5677   11.9616    7.0850 C   0  0  0  0  0  0  0  0  0  0  0  0
   31.3991   11.3522    7.5449 C   0  0  0  0  0  0  0  0  0  0  0  0
   30.2181   11.9980    7.2554 C   0  0  0  0  0  0  0  0  0  0  0  0
   28.9584   11.4859    7.9645 C   0  0  0  0  0  0  0  0  0  0  0  0
   29.1416   10.0474    8.5137 C   0  0  0  0  0  0  0  0  0  0  0  0
   30.4190    9.2645    8.1815 C   0  0  0  0  0  0  0  0  0  0  0  0
   31.3798    9.8579    7.3640 C   0  0  0  0  0  0  0  0  0  0  0  0
   33.3539   11.5244    6.0299 C   0  0  0  0  0  0  0  0  0  0  0  0
   34.7056   12.5330    5.7617 S   0  0  0  0  0  0  0  0  0  0  0  0
   34.2650   13.5523    7.0605 C   0  0  0  0  0  0  0  0  0  0  0  0
   35.0183   14.6252    7.3860 N   0  0  0  0  0  0  0  0  0  0  0  0
  1  2  1  0
  2  3  2  0
  2  4  1  0
  4  5  1  0
  5  6  1  0
  6  7  1  0
  7  8  1  0
  8  9  1  0
  9 10  1  0
 10 11  1  0
  5 12  2  0
 12 13  1  0
 13 14  1  0
 14 15  1  0
 14  4  2  0
 11  6  1  0
A    1
 N1 
A    2
 C1 
A    3
 O1 
A    4
 C2 
A    5
 C3 
A    6
 C4 
A    7
 C5 
A    8
 C6 
A    9
 C7 
A   10
 C8 
A   11
 C9 
A   12
 C10
A   13
 S1 
A   14
 C11
A   15
 N2 
M  END
>  <ref_pdb>  (1511) 
Ax0310a

>  <ref_mols>  (1511) 
Ax0446a,Ax1080a,Ax0812a,Ax0719a,Ax1140a,Ax0528a,Ax0310a

>  <original SMILES>  (1511) 
NC(=O)c1c(C2CCCCC2)csc1N

>  <rationale>  (1511) 
info info set:3d;hbond:S87+E85; 

>  <experiment>  (1511) 
3d

>  <cluster_label>  (1511) 
3

>  <cluster_rank>  (1511) 
1168

>  <N_interactions>  (1511) 
3

>  <∆∆G>  (1511) 
-1.865494

>  <comRMSD>  (1511) 
0.645663

>  <ROCS_TanimotoCombo>  (1511) 
0.281

>  <ROCS_ShapeTanimoto>  (1511) 
0.18

>  <ROCS_ColorTanimoto>  (1511) 
0.1

$$$$
EN300_26863024
     RDKit          3D

  9 10  0  0  0  0  0  0  0  0999 V2000
   30.5828   11.8999    8.1759 N   0  0  0  0  0  0  0  0  0  0  0  0
   31.5756   11.0077    7.6301 C   0  0  2  0  0  0  0  0  0  0  0  0
   31.5066    9.5111    7.7496 C   0  0  0  0  0  0  0  0  0  0  0  0
   32.6527    9.1131    7.0019 O   0  0  0  0  0  0  0  0  0  0  0  0
   33.0146   10.3725    6.3376 C   0  0  2  0  0  0  0  0  0  0  0  0
   34.0124   10.1930    5.1807 C   0  0  0  0  0  0  0  0  0  0  0  0
   34.0293   11.3126    4.4162 F   0  0  0  0  0  0  0  0  0  0  0  0
   32.9271   11.6950    7.2163 C   0  0  0  0  0  0  0  0  0  0  0  0
   31.6457   11.0817    6.1232 C   0  0  0  0  0  0  0  0  0  0  0  0
  2  1  1  1
  2  3  1  0
  3  4  1  0
  4  5  1  0
  5  6  1  6
  6  7  1  0
  5  8  1  0
  5  9  1  0
  8  2  1  0
  9  2  1  0
A    1
 N1 
A    2
 C1 
A    3
 C2 
A    4
 O1 
A    5
 C3 
A    6
 C4 
A    7
 F1 
A    8
 C5 
A    9
 C6 
M  END
>  <ref_pdb>  (1512) 
Ax0310a

>  <ref_mols>  (1512) 
Ax0446a,Ax1080a,Ax0812a,Ax0719a,Ax1140a,Ax0528a,Ax0310a

>  <original SMILES>  (1512) 
N[C@]12CO[C@](CF)(C1)C2

>  <rationale>  (1512) 
info info set:bb_densepocket;hbond:S125+G127; hydroph_interaction:P107; 

>  <experiment>  (1512) 
bb_densepocket

>  <cluster_label>  (1512) 
3

>  <cluster_rank>  (1512) 
1169

>  <N_interactions>  (1512) 
3

>  <∆∆G>  (1512) 
-0.056401

>  <comRMSD>  (1512) 
0.599248

>  <ROCS_TanimotoCombo>  (1512) 
0.692

>  <ROCS_ShapeTanimoto>  (1512) 
0.199

>  <ROCS_ColorTanimoto>  (1512) 
0.493

$$$$
EN300_359504
     RDKit          3D

 20 21  0  0  0  0  0  0  0  0999 V2000
   34.6430    8.5565    4.2888 C   0  0  0  0  0  0  0  0  0  0  0  0
   34.2434    8.5984    5.5932 N   0  0  0  0  0  0  0  0  0  0  0  0
   33.2974    9.5338    5.9998 C   0  0  0  0  0  0  0  0  0  0  0  0
   32.2958    9.0853    6.8205 N   0  0  0  0  0  0  0  0  0  0  0  0
   31.3709    9.9647    7.2156 C   0  0  0  0  0  0  0  0  0  0  0  0
   31.4270   11.4125    6.7685 C   0  0  0  0  0  0  0  0  0  0  0  0
   30.3261   12.3030    7.2652 C   0  0  0  0  0  0  0  0  0  0  0  0
   29.6367   11.7362    8.4287 C   0  0  0  0  0  0  0  0  0  0  0  0
   28.5085   12.6737    8.9673 C   0  0  0  0  0  0  0  0  0  0  0  0
   28.3029   13.9024    8.3118 C   0  0  0  0  0  0  0  0  0  0  0  0
   28.9924   14.3102    7.2681 C   0  0  0  0  0  0  0  0  0  0  0  0
   28.7051   15.4782    6.8278 O   0  0  0  0  0  0  0  0  0  0  0  0
   28.6926   16.2073    8.0369 C   0  0  0  0  0  0  0  0  0  0  0  0
   29.9918   13.5714    6.6840 C   0  0  0  0  0  0  0  0  0  0  0  0
   32.4523   11.7985    5.9660 C   0  0  0  0  0  0  0  0  0  0  0  0
   33.4035   10.8703    5.5661 C   0  0  0  0  0  0  0  0  0  0  0  0
   34.4925   11.3807    4.6818 C   0  0  0  0  0  0  0  0  0  0  0  0
   34.5245   12.7432    4.6358 F   0  0  0  0  0  0  0  0  0  0  0  0
   34.3582   10.9892    3.3836 F   0  0  0  0  0  0  0  0  0  0  0  0
   35.7437   10.9969    5.0305 F   0  0  0  0  0  0  0  0  0  0  0  0
  1  2  1  0
  2  3  1  0
  3  4  2  0
  4  5  1  0
  5  6  2  0
  6  7  1  0
  7  8  2  0
  8  9  1  0
  9 10  2  0
 10 11  1  0
 11 12  1  0
 12 13  1  0
 11 14  2  0
  6 15  1  0
 15 16  2  0
 16 17  1  0
 17 18  1  0
 17 19  1  0
 17 20  1  0
 16  3  1  0
 14  7  1  0
A    1
 C1 
A    2
 N1 
A    3
 C2 
A    4
 N2 
A    5
 C3 
A    6
 C4 
A    7
 C5 
A    8
 C6 
A    9
 C7 
A   10
 C8 
A   11
 C9 
A   12
 O1 
A   13
 C10
A   14
 C11
A   15
 C12
A   16
 C13
A   17
 C14
A   18
 F1 
A   19
 F2 
A   20
 F3 
M  END
>  <ref_pdb>  (1513) 
Ax0310a

>  <ref_mols>  (1513) 
Ax0446a,Ax1080a,Ax0812a,Ax0719a,Ax1140a,Ax0528a,Ax0310a

>  <original SMILES>  (1513) 
CNc1ncc(-c2cccc(OC)c2)cc1C(F)(F)F

>  <rationale>  (1513) 
info info set:bb_densepocket2;hbond:S105; hydroph_interaction:P107; 

>  <experiment>  (1513) 
bb_densepocket2

>  <cluster_label>  (1513) 
3

>  <cluster_rank>  (1513) 
1170

>  <N_interactions>  (1513) 
2

>  <∆∆G>  (1513) 
-0.71014

>  <comRMSD>  (1513) 
0.686841

>  <ROCS_TanimotoCombo>  (1513) 
0.615

>  <ROCS_ShapeTanimoto>  (1513) 
0.26

>  <ROCS_ColorTanimoto>  (1513) 
0.356

$$$$
Z2168484245
     RDKit          3D

 14 14  0  0  0  0  0  0  0  0999 V2000
   35.4913   13.8985    9.2888 C   0  0  0  0  0  0  0  0  0  0  0  0
   33.9931   14.1983    8.3952 S   0  0  0  0  0  6  0  0  0  0  0  0
   34.7214   14.9944    6.9428 C   0  0  0  0  0  0  0  0  0  0  0  0
   33.0756   14.9770    9.2126 O   0  0  0  0  0  0  0  0  0  0  0  0
   33.2308   12.8316    7.8239 N   0  0  0  0  0  0  0  0  0  0  0  0
   32.7697   12.8856    6.3295 S   0  0  0  0  0  6  0  0  0  0  0  0
   33.7816   12.7145    5.2902 O   0  0  0  0  0  0  0  0  0  0  0  0
   31.6099   13.6070    5.8793 O   0  0  0  0  0  0  0  0  0  0  0  0
   31.9832   11.3845    6.3871 N   0  0  0  0  0  0  0  0  0  0  0  0
   32.9356   10.4271    6.2946 C   0  0  0  0  0  0  0  0  0  0  0  0
   32.6145    9.1926    6.5441 C   0  0  0  0  0  0  0  0  0  0  0  0
   31.8499    8.9857    7.7759 N   0  0  0  0  0  0  0  0  0  0  0  0
   30.8322   10.0037    8.0290 C   0  0  0  0  0  0  0  0  0  0  0  0
   31.0414   11.2781    7.4491 C   0  0  0  0  0  0  0  0  0  0  0  0
  1  2  1  0
  2  3  1  0
  2  4  2  0
  2  5  2  0
  5  6  1  0
  6  7  2  0
  6  8  2  0
  6  9  1  0
  9 10  1  0
 10 11  1  0
 11 12  1  0
 12 13  1  0
 13 14  1  0
 14  9  1  0
A    1
 C1 
A    2
 S1 
A    3
 C2 
A    4
 O1 
A    5
 N1 
A    6
 S2 
A    7
 O2 
A    8
 O3 
A    9
 N2 
A   10
 C3 
A   11
 C4 
A   12
 N3 
A   13
 C5 
A   14
 C6 
M  END
>  <ref_pdb>  (1514) 
Ax0310a

>  <ref_mols>  (1514) 
Ax0446a,Ax1080a,Ax0812a,Ax0719a,Ax1140a,Ax0528a,Ax0310a

>  <original SMILES>  (1514) 
CS(C)(=O)=NS(=O)(=O)N1CCNCC1

>  <rationale>  (1514) 
info info set:3d;hbond:S87+S105+G127; 

>  <experiment>  (1514) 
3d

>  <cluster_label>  (1514) 
3

>  <cluster_rank>  (1514) 
1171

>  <N_interactions>  (1514) 
3

>  <∆∆G>  (1514) 
-1.40217

>  <comRMSD>  (1514) 
0.992435

>  <ROCS_TanimotoCombo>  (1514) 
0.291

>  <ROCS_ShapeTanimoto>  (1514) 
0.173

>  <ROCS_ColorTanimoto>  (1514) 
0.118

$$$$
EN300_81894
     RDKit          3D

 19 19  0  0  0  0  0  0  0  0999 V2000
   34.1901   14.4551    4.0642 C   0  0  0  0  0  0  0  0  0  0  0  0
   34.8716   13.1048    4.2419 C   0  0  0  0  0  0  0  0  0  0  0  0
   33.7874   12.1484    4.3018 O   0  0  0  0  0  0  0  0  0  0  0  0
   33.9414   11.1996    5.2348 C   0  0  0  0  0  0  0  0  0  0  0  0
   34.8361   10.3711    5.2895 O   0  0  0  0  0  0  0  0  0  0  0  0
   32.9000   11.2923    6.1501 C   0  0  0  0  0  0  0  0  0  0  0  0
   32.1770   12.4752    6.6068 C   0  0  0  0  0  0  0  0  0  0  0  0
   31.0512   12.3137    7.6244 C   0  0  0  0  0  0  0  0  0  0  0  0
   30.1649   13.7453    8.1431 S   0  0  0  0  0  6  0  0  0  0  0  0
   28.8498   13.2349    9.0112 N   0  0  0  0  0  0  0  0  0  0  0  0
   29.5056   14.2319    6.9600 O   0  0  0  0  0  0  0  0  0  0  0  0
   31.0410   14.5353    8.9812 O   0  0  0  0  0  0  0  0  0  0  0  0
   30.6791   10.9611    8.1859 C   0  0  0  0  0  0  0  0  0  0  0  0
   31.4601    9.9395    7.6584 C   0  0  0  0  0  0  0  0  0  0  0  0
   31.1286    8.6292    8.1940 N   0  0  0  0  0  4  0  0  0  0  0  0
   32.0271    8.1058    8.8042 O   0  0  0  0  0  0  0  0  0  0  0  0
   29.9623    8.4666    8.5098 O   0  0  0  0  0  1  0  0  0  0  0  0
   32.4817   10.1008    6.7034 C   0  0  0  0  0  0  0  0  0  0  0  0
   33.1572    8.8772    6.2489 C   0  0  0  0  0  0  0  0  0  0  0  0
  1  2  1  0
  2  3  1  0
  3  4  1  0
  4  5  2  0
  4  6  1  0
  6  7  2  0
  7  8  1  0
  8  9  1  0
  9 10  1  0
  9 11  2  0
  9 12  2  0
  8 13  2  0
 13 14  1  0
 14 15  1  0
 15 16  2  0
 15 17  1  0
 14 18  2  0
 18 19  1  0
 18  6  1  0
M  CHG  2  15   1  17  -1
A    1
 C1 
A    2
 C2 
A    3
 O1 
A    4
 C3 
A    5
 O2 
A    6
 C4 
A    7
 C5 
A    8
 C6 
A    9
 S1 
A   10
 N1 
A   11
 O3 
A   12
 O4 
A   13
 C7 
A   14
 C8 
A   15
 N2 
A   16
 O5 
A   17
 O6 
A   18
 C9 
A   19
 C10
M  END
>  <ref_pdb>  (1515) 
Ax0310a

>  <ref_mols>  (1515) 
Ax0446a,Ax1080a,Ax0812a,Ax0719a,Ax1140a,Ax0528a,Ax0310a

>  <original SMILES>  (1515) 
CCOC(=O)c1cc(S(N)(=O)=O)cc([N+](=O)[O-])c1C

>  <rationale>  (1515) 
info info set:sulfonimide_whole;hbond:S87+S125; 

>  <experiment>  (1515) 
sulfonimide_whole

>  <cluster_label>  (1515) 
3

>  <cluster_rank>  (1515) 
1172

>  <N_interactions>  (1515) 
2

>  <∆∆G>  (1515) 
-1.705936

>  <comRMSD>  (1515) 
0.725241

>  <ROCS_TanimotoCombo>  (1515) 
0.342

>  <ROCS_ShapeTanimoto>  (1515) 
0.211

>  <ROCS_ColorTanimoto>  (1515) 
0.131

$$$$
EN300_6735076
     RDKit          3D

 11 12  0  0  0  0  0  0  0  0999 V2000
   34.6322    8.7625    4.8099 N   0  0  0  0  0  0  0  0  0  0  0  0
   33.9825   10.0854    4.7526 C   0  0  0  0  0  0  0  0  0  0  0  0
   33.1353   10.4774    5.9811 C   0  0  2  0  0  0  0  0  0  0  0  0
   33.4433   11.7261    6.4392 C   0  0  0  0  0  0  0  0  0  0  0  0
   32.5595   12.0613    7.4344 C   0  0  0  0  0  0  0  0  0  0  0  0
   31.5101   11.1506    7.4372 C   0  0  2  0  0  0  0  0  0  0  0  0
   30.1621   11.5934    7.8989 C   0  0  0  0  0  0  0  0  0  0  0  0
   30.2785   12.6855    8.7740 O   0  0  0  0  0  0  0  0  0  0  0  0
   31.7229    9.6453    7.5856 C   0  0  0  0  0  0  0  0  0  0  0  0
   32.9935    9.4339    6.9535 O   0  0  0  0  0  0  0  0  0  0  0  0
   31.7188   10.9640    5.9737 C   0  0  0  0  0  0  0  0  0  0  0  0
  1  2  1  0
  3  2  1  6
  3  4  1  0
  4  5  1  0
  5  6  1  0
  6  7  1  6
  7  8  1  0
  6  9  1  0
  9 10  1  0
  6 11  1  0
 10  3  1  0
 11  3  1  0
A    1
 N1 
A    2
 C1 
A    3
 C2 
A    4
 C3 
A    5
 C4 
A    6
 C5 
A    7
 C6 
A    8
 O1 
A    9
 C7 
A   10
 O2 
A   11
 C8 
M  END
>  <ref_pdb>  (1516) 
Ax0310a

>  <ref_mols>  (1516) 
Ax0446a,Ax1080a,Ax0812a,Ax0719a,Ax1140a,Ax0528a,Ax0310a

>  <original SMILES>  (1516) 
NC[C@]12CC[C@](CO)(CO1)C2

>  <rationale>  (1516) 
info info set:bb_densepocket;hbond:S105; hydroph_interaction:P107; 

>  <experiment>  (1516) 
bb_densepocket

>  <cluster_label>  (1516) 
3

>  <cluster_rank>  (1516) 
1173

>  <N_interactions>  (1516) 
2

>  <∆∆G>  (1516) 
-0.072133

>  <comRMSD>  (1516) 
0.929592

>  <ROCS_TanimotoCombo>  (1516) 
0.703

>  <ROCS_ShapeTanimoto>  (1516) 
0.212

>  <ROCS_ColorTanimoto>  (1516) 
0.491

$$$$
EN300_231491
     RDKit          3D

 22 24  0  0  0  0  0  0  0  0999 V2000
   36.5606   12.2830    4.9794 C   0  0  0  0  0  0  0  0  0  0  0  0
   35.5221   11.3070    4.8605 O   0  0  0  0  0  0  0  0  0  0  0  0
   34.3000   11.8841    4.8823 C   0  0  0  0  0  0  0  0  0  0  0  0
   34.0094   13.0773    4.1088 O   0  0  0  0  0  0  0  0  0  0  0  0
   33.1913   11.2723    5.7969 C   0  0  0  0  0  0  0  0  0  0  0  0
   33.5326    9.7770    5.8540 C   0  0  0  0  0  0  0  0  0  0  0  0
   32.6549    9.1521    6.6253 N   0  0  0  0  0  0  0  0  0  0  0  0
   31.7802   10.2323    7.0550 N   0  0  0  0  0  0  0  0  0  0  0  0
   30.7192   10.1924    7.8996 C   0  0  0  0  0  0  0  0  0  0  0  0
   30.3111    8.9357    8.6411 C   0  0  0  0  0  0  0  0  0  0  0  0
   29.7546    9.1710    9.8062 F   0  0  0  0  0  0  0  0  0  0  0  0
   29.3964    8.1485    8.1104 F   0  0  0  0  0  0  0  0  0  0  0  0
   31.3930    8.2611    8.9266 F   0  0  0  0  0  0  0  0  0  0  0  0
   30.0059   11.3272    8.1548 C   0  0  0  0  0  0  0  0  0  0  0  0
   30.3478   12.4759    7.5409 C   0  0  0  0  0  0  0  0  0  0  0  0
   29.3428   13.5448    7.8532 C   0  0  0  0  0  0  0  0  0  0  0  0
   29.8263   14.7186    8.7451 C   0  0  0  0  0  0  0  0  0  0  0  0
   28.4185   15.3872    8.6796 C   0  0  0  0  0  0  0  0  0  0  0  0
   27.4039   14.8174    7.9965 C   0  0  0  0  0  0  0  0  0  0  0  0
   27.7742   13.4066    7.2398 S   0  0  0  0  0  0  0  0  0  0  0  0
   31.3689   12.6378    6.7703 N   0  0  0  0  0  0  0  0  0  0  0  0
   32.0975   11.5111    6.5227 C   0  0  0  0  0  0  0  0  0  0  0  0
  1  2  1  0
  2  3  1  0
  3  4  2  0
  3  5  1  0
  5  6  1  0
  6  7  2  0
  7  8  1  0
  8  9  1  0
  9 10  1  0
 10 11  1  0
 10 12  1  0
 10 13  1  0
  9 14  2  0
 14 15  1  0
 15 16  1  0
 16 17  2  0
 17 18  1  0
 18 19  2  0
 19 20  1  0
 15 21  2  0
 21 22  1  0
 22  5  2  0
 22  8  1  0
 20 16  1  0
A    1
 C1 
A    2
 O1 
A    3
 C2 
A    4
 O2 
A    5
 C3 
A    6
 C4 
A    7
 N1 
A    8
 N2 
A    9
 C5 
A   10
 C6 
A   11
 F1 
A   12
 F2 
A   13
 F3 
A   14
 C7 
A   15
 C8 
A   16
 C9 
A   17
 C10
A   18
 C11
A   19
 C12
A   20
 S1 
A   21
 N3 
A   22
 C13
M  END
>  <ref_pdb>  (1517) 
Ax0310a

>  <ref_mols>  (1517) 
Ax0446a,Ax1080a,Ax0812a,Ax0719a,Ax1140a,Ax0528a,Ax0310a

>  <original SMILES>  (1517) 
COC(=O)c1cnn2c(C(F)(F)F)cc(-c3cccs3)nc12

>  <rationale>  (1517) 
info info set:bb_whole;hbond:S87; hydroph_interaction:Y89+Y90; 

>  <experiment>  (1517) 
bb_whole

>  <cluster_label>  (1517) 
3

>  <cluster_rank>  (1517) 
1174

>  <N_interactions>  (1517) 
3

>  <∆∆G>  (1517) 
-1.230447

>  <comRMSD>  (1517) 
0.991242

>  <ROCS_TanimotoCombo>  (1517) 
0.41

>  <ROCS_ShapeTanimoto>  (1517) 
0.262

>  <ROCS_ColorTanimoto>  (1517) 
0.147

$$$$
EN300_139058
     RDKit          3D

 12 12  0  0  0  0  0  0  0  0999 V2000
   30.0756   10.3167    8.1943 C   0  0  0  0  0  0  0  0  0  0  0  0
   31.4008   10.0453    7.6878 C   0  0  0  0  0  0  0  0  0  0  0  0
   31.7413    8.6110    7.8002 C   0  0  0  0  0  0  0  0  0  0  0  0
   31.6421   10.4075    6.2670 C   0  0  0  0  0  0  0  0  0  0  0  0
   32.7822   11.1114    6.2718 C   0  0  0  0  0  0  0  0  0  0  0  0
   32.8720   11.8434    7.3800 C   0  0  1  0  0  0  0  0  0  0  0  0
   32.5053   13.1360    7.3609 C   0  0  0  0  0  0  0  0  0  0  0  0
   33.9452   13.8425    6.6156 S   0  0  0  0  0  6  0  0  0  0  0  0
   34.7215   14.5846    7.8917 N   0  0  0  0  0  0  0  0  0  0  0  0
   33.5990   14.8119    5.6479 O   0  0  0  0  0  0  0  0  0  0  0  0
   34.8044   12.7769    6.2055 O   0  0  0  0  0  0  0  0  0  0  0  0
   32.2128   11.0195    8.3514 O   0  0  0  0  0  0  0  0  0  0  0  0
  1  2  1  0
  2  3  1  0
  2  4  1  0
  4  5  1  0
  5  6  1  0
  6  7  1  6
  7  8  1  0
  8  9  1  0
  8 10  2  0
  8 11  2  0
  6 12  1  0
 12  2  1  0
A    1
 C1 
A    2
 C2 
A    3
 C3 
A    4
 C4 
A    5
 C5 
A    6
 C6 
A    7
 C7 
A    8
 S1 
A    9
 N1 
A   10
 O1 
A   11
 O2 
A   12
 O3 
M  END
>  <ref_pdb>  (1518) 
Ax0310a

>  <ref_mols>  (1518) 
Ax0446a,Ax1080a,Ax0812a,Ax0719a,Ax1140a,Ax0528a,Ax0310a

>  <original SMILES>  (1518) 
CC1(C)CC[C@@H](CS(N)(=O)=O)O1

>  <rationale>  (1518) 
info info set:sulfonimide_joint;hbond:G127; hydroph_interaction:P107; 

>  <experiment>  (1518) 
sulfonimide_joint

>  <cluster_label>  (1518) 
3

>  <cluster_rank>  (1518) 
1175

>  <N_interactions>  (1518) 
2

>  <∆∆G>  (1518) 
-1.002132

>  <comRMSD>  (1518) 
0.79595

>  <ROCS_TanimotoCombo>  (1518) 
0.308

>  <ROCS_ShapeTanimoto>  (1518) 
0.16

>  <ROCS_ColorTanimoto>  (1518) 
0.149

$$$$
EN300_15855
     RDKit          3D

 13 13  0  0  0  0  0  0  0  0999 V2000
   36.2730   13.8892    8.6091 C   0  0  0  0  0  0  0  0  0  0  0  0
   35.2835   14.7468    7.9855 N   0  0  0  0  0  0  0  0  0  0  0  0
   34.9565   14.4032    6.3924 S   0  0  0  0  0  6  0  0  0  0  0  0
   34.0493   15.3001    5.8748 O   0  0  0  0  0  0  0  0  0  0  0  0
   36.2278   14.1823    5.7795 O   0  0  0  0  0  0  0  0  0  0  0  0
   34.1221   12.9399    6.5396 C   0  0  0  0  0  0  0  0  0  0  0  0
   32.7749   12.8001    7.1341 C   0  0  0  0  0  0  0  0  0  0  0  0
   32.2258   11.4795    7.2508 C   0  0  0  0  0  0  0  0  0  0  0  0
   32.8232   10.4604    6.5363 C   0  0  0  0  0  0  0  0  0  0  0  0
   32.3394    9.0899    6.6553 C   0  0  0  0  0  0  0  0  0  0  0  0
   31.1701    8.9110    7.5971 C   0  0  0  0  0  0  0  0  0  0  0  0
   30.6277    9.9789    8.2590 C   0  0  0  0  0  0  0  0  0  0  0  0
   31.1420   11.2501    8.0870 C   0  0  0  0  0  0  0  0  0  0  0  0
  1  2  1  0
  2  3  1  0
  3  4  2  0
  3  5  2  0
  3  6  1  0
  6  7  2  3
  7  8  1  0
  8  9  2  0
  9 10  1  0
 10 11  2  0
 11 12  1  0
 12 13  2  0
 13  8  1  0
A    1
 C1 
A    2
 N1 
A    3
 S1 
A    4
 O1 
A    5
 O2 
A    6
 C2 
A    7
 C3 
A    8
 C4 
A    9
 C5 
A   10
 C6 
A   11
 C7 
A   12
 C8 
A   13
 C9 
M  END
>  <ref_pdb>  (1519) 
Ax0310a

>  <ref_mols>  (1519) 
Ax0446a,Ax1080a,Ax0812a,Ax0719a,Ax1140a,Ax0528a,Ax0310a

>  <original SMILES>  (1519) 
CNS(=O)(=O)C=Cc1ccccc1

>  <rationale>  (1519) 
info info set:sulfonimide_joint;hbond:E85; 

>  <experiment>  (1519) 
sulfonimide_joint

>  <cluster_label>  (1519) 
3

>  <cluster_rank>  (1519) 
1176

>  <N_interactions>  (1519) 
1

>  <∆∆G>  (1519) 
-5.552258

>  <comRMSD>  (1519) 
0.885322

>  <ROCS_TanimotoCombo>  (1519) 
0.298

>  <ROCS_ShapeTanimoto>  (1519) 
0.17

>  <ROCS_ColorTanimoto>  (1519) 
0.128

$$$$
EN300_27082457
     RDKit          3D

 16 16  0  0  0  0  0  0  0  0999 V2000
   33.8783   13.7318    6.5847 C   0  0  0  0  0  0  0  0  0  0  0  0
   32.5057   13.4687    6.2538 O   0  0  0  0  0  0  0  0  0  0  0  0
   32.0203   12.3031    6.7708 C   0  0  0  0  0  0  0  0  0  0  0  0
   32.5969   10.9504    6.4400 C   0  0  0  0  0  0  0  0  0  0  0  0
   32.0655    9.6497    7.0235 C   0  0  0  0  0  0  0  0  0  0  0  0
   32.6373    8.4972    6.6625 N   0  0  0  0  0  0  0  0  0  0  0  0
   30.8983    9.7524    8.0027 C   0  0  0  0  0  0  0  0  0  0  0  0
   30.3011    8.6025    8.6618 N   0  0  0  0  0  4  0  0  0  0  0  0
   30.7442    8.3041    9.7610 O   0  0  0  0  0  0  0  0  0  0  0  0
   29.2412    8.2064    8.2098 O   0  0  0  0  0  1  0  0  0  0  0  0
   30.4159   11.0194    8.2419 C   0  0  0  0  0  0  0  0  0  0  0  0
   30.9322   12.3193    7.6565 C   0  0  0  0  0  0  0  0  0  0  0  0
   30.1059   13.8012    8.1415 S   0  0  0  0  0  6  0  0  0  0  0  0
   28.7905   13.4022    9.1039 N   0  0  0  0  0  0  0  0  0  0  0  0
   29.4305   14.2859    6.9559 O   0  0  0  0  0  0  0  0  0  0  0  0
   31.0005   14.5522    8.9974 O   0  0  0  0  0  0  0  0  0  0  0  0
  1  2  1  0
  2  3  1  0
  3  4  2  0
  4  5  1  0
  5  6  1  0
  5  7  2  0
  7  8  1  0
  8  9  2  0
  8 10  1  0
  7 11  1  0
 11 12  2  0
 12 13  1  0
 13 14  1  0
 13 15  2  0
 13 16  2  0
 12  3  1  0
M  CHG  2   8   1  10  -1
A    1
 C1 
A    2
 O1 
A    3
 C2 
A    4
 C3 
A    5
 C4 
A    6
 N1 
A    7
 C5 
A    8
 N2 
A    9
 O2 
A   10
 O3 
A   11
 C6 
A   12
 C7 
A   13
 S1 
A   14
 N3 
A   15
 O4 
A   16
 O5 
M  END
>  <ref_pdb>  (1520) 
Ax0310a

>  <ref_mols>  (1520) 
Ax0446a,Ax1080a,Ax0812a,Ax0719a,Ax1140a,Ax0528a,Ax0310a

>  <original SMILES>  (1520) 
COc1cc(N)c([N+](=O)[O-])cc1S(N)(=O)=O

>  <rationale>  (1520) 
info info set:sulfonimide_whole;hbond:S87+S105+S125; 

>  <experiment>  (1520) 
sulfonimide_whole

>  <cluster_label>  (1520) 
3

>  <cluster_rank>  (1520) 
1177

>  <N_interactions>  (1520) 
3

>  <∆∆G>  (1520) 
-0.475432

>  <comRMSD>  (1520) 
0.618123

>  <ROCS_TanimotoCombo>  (1520) 
0.335

>  <ROCS_ShapeTanimoto>  (1520) 
0.211

>  <ROCS_ColorTanimoto>  (1520) 
0.124

$$$$
EN300_90071
     RDKit          3D

 15 15  0  0  0  0  0  0  0  0999 V2000
   33.8933    8.9501    5.7815 C   0  0  0  0  0  0  0  0  0  0  0  0
   32.7917    8.6420    6.6240 O   0  0  0  0  0  0  0  0  0  0  0  0
   32.1994    9.7806    6.9879 C   0  0  0  0  0  0  0  0  0  0  0  0
   32.7164   11.0750    6.4475 C   0  0  0  0  0  0  0  0  0  0  0  0
   32.1463   12.4389    6.7690 C   0  0  0  0  0  0  0  0  0  0  0  0
   32.8697   13.4795    6.0960 O   0  0  0  0  0  0  0  0  0  0  0  0
   34.0956   13.5622    6.8983 C   0  0  0  0  0  0  0  0  0  0  0  0
   30.9405   12.4428    7.7209 C   0  0  0  0  0  0  0  0  0  0  0  0
   30.1092   13.8996    8.2220 S   0  0  0  0  0  6  0  0  0  0  0  0
   28.8316   13.5205    9.2150 N   0  0  0  0  0  0  0  0  0  0  0  0
   31.0509   14.6468    9.0265 O   0  0  0  0  0  0  0  0  0  0  0  0
   29.4307   14.3829    7.0499 O   0  0  0  0  0  0  0  0  0  0  0  0
   30.4760   11.2705    8.2126 C   0  0  0  0  0  0  0  0  0  0  0  0
   31.0388    9.9273    7.9125 C   0  0  0  0  0  0  0  0  0  0  0  0
   30.1968    8.5177    8.7657 Br  0  0  0  0  0  0  0  0  0  0  0  0
  1  2  1  0
  2  3  1  0
  3  4  2  0
  4  5  1  0
  5  6  1  0
  6  7  1  0
  5  8  2  0
  8  9  1  0
  9 10  1  0
  9 11  2  0
  9 12  2  0
  8 13  1  0
 13 14  2  0
 14 15  1  0
 14  3  1  0
A    1
 C1 
A    2
 O1 
A    3
 C2 
A    4
 C3 
A    5
 C4 
A    6
 O2 
A    7
 C5 
A    8
 C6 
A    9
 S1 
A   10
 N1 
A   11
 O3 
A   12
 O4 
A   13
 C7 
A   14
 C8 
A   15
BR1 
M  END
>  <ref_pdb>  (1521) 
Ax0310a

>  <ref_mols>  (1521) 
Ax0446a,Ax1080a,Ax0812a,Ax0719a,Ax1140a,Ax0528a,Ax0310a

>  <original SMILES>  (1521) 
COc1cc(OC)c(S(N)(=O)=O)cc1Br

>  <rationale>  (1521) 
info info set:sulfonimide_whole;hbond:S87+S125; 

>  <experiment>  (1521) 
sulfonimide_whole

>  <cluster_label>  (1521) 
3

>  <cluster_rank>  (1521) 
1178

>  <N_interactions>  (1521) 
2

>  <∆∆G>  (1521) 
-5.599013

>  <comRMSD>  (1521) 
0.885579

>  <ROCS_TanimotoCombo>  (1521) 
0.33

>  <ROCS_ShapeTanimoto>  (1521) 
0.2

>  <ROCS_ColorTanimoto>  (1521) 
0.13

$$$$
Z4416006374
     RDKit          3D

 11 12  0  0  0  0  0  0  0  0999 V2000
   31.2983   12.9827    7.2348 N   0  0  0  0  0  0  0  0  0  0  0  0
   31.3388   11.8323    7.3304 C   0  0  0  0  0  0  0  0  0  0  0  0
   30.8608   10.5107    7.8588 C   0  0  0  0  0  0  0  0  0  0  0  0
   31.2852    9.2778    7.6528 N   0  0  0  0  0  0  0  0  0  0  0  0
   32.3019    9.0891    6.8514 C   0  0  0  0  0  0  0  0  0  0  0  0
   32.9382   10.1320    6.2314 C   0  0  0  0  0  0  0  0  0  0  0  0
   32.4508   11.5380    6.4810 C   0  0  0  0  0  0  0  0  0  0  0  0
   33.1476   12.5668    5.8370 C   0  0  0  0  0  0  0  0  0  0  0  0
   33.8751   12.1332    4.7019 C   0  0  0  0  0  0  0  0  0  0  0  0
   34.7550   11.0759    5.0004 C   0  0  0  0  0  0  0  0  0  0  0  0
   34.0977    9.8752    5.3172 C   0  0  0  0  0  0  0  0  0  0  0  0
  1  2  1  0
  2  3  2  0
  3  4  1  0
  4  5  2  0
  5  6  1  0
  6  7  2  0
  7  8  1  0
  8  9  1  0
  9 10  1  0
 10 11  1  0
  7  2  1  0
 11  6  1  0
A    1
 N1 
A    2
 C1 
A    3
 C2 
A    4
 N2 
A    5
 C3 
A    6
 C4 
A    7
 C5 
A    8
 C6 
A    9
 C7 
A   10
 C8 
A   11
 C9 
M  END
>  <ref_pdb>  (1522) 
Ax0310a

>  <ref_mols>  (1522) 
Ax0446a,Ax1080a,Ax0812a,Ax0719a,Ax1140a,Ax0528a,Ax0310a

>  <original SMILES>  (1522) 
Nc1cncc2c1CCCC2

>  <rationale>  (1522) 
info info set:3d;

>  <experiment>  (1522) 
3d

>  <cluster_label>  (1522) 
3

>  <cluster_rank>  (1522) 
1179

>  <N_interactions>  (1522) 
0

>  <∆∆G>  (1522) 
-3.637543

>  <comRMSD>  (1522) 
0.691067

>  <ROCS_TanimotoCombo>  (1522) 
0.288

>  <ROCS_ShapeTanimoto>  (1522) 
0.176

>  <ROCS_ColorTanimoto>  (1522) 
0.112

$$$$
EN300_254518
     RDKit          3D

 12 12  0  0  0  0  0  0  0  0999 V2000
   28.9227    9.5165    8.7965 C   0  0  0  0  0  0  0  0  0  0  0  0
   29.9841    8.5549    9.1436 C   0  0  0  0  0  0  0  0  0  0  0  0
   31.0925    8.8059    8.3856 O   0  0  0  0  0  0  0  0  0  0  0  0
   31.1580   10.1042    8.0453 C   0  0  0  0  0  0  0  0  0  0  0  0
   30.5722   11.0432    8.5626 O   0  0  0  0  0  0  0  0  0  0  0  0
   32.0980   10.1567    6.9267 C   0  0  0  0  0  0  0  0  0  0  0  0
   32.5196   11.3673    6.0882 C   0  0  0  0  0  0  0  0  0  0  0  0
   33.3980   10.9163    5.1770 O   0  0  0  0  0  0  0  0  0  0  0  0
   33.4866    9.5570    5.4633 C   0  0  0  0  0  0  0  0  0  0  0  0
   34.2848    8.8074    4.7202 N   0  0  0  0  0  0  0  0  0  0  0  0
   35.3345    9.3692    3.9289 C   0  0  0  0  0  0  0  0  0  0  0  0
   32.7661    9.0884    6.4518 N   0  0  0  0  0  0  0  0  0  0  0  0
  1  2  1  0
  2  3  1  0
  3  4  1  0
  4  5  2  0
  4  6  1  0
  6  7  2  0
  7  8  1  0
  8  9  1  0
  9 10  1  0
 10 11  1  0
  9 12  2  0
 12  6  1  0
A    1
 C1 
A    2
 C2 
A    3
 O1 
A    4
 C3 
A    5
 O2 
A    6
 C4 
A    7
 C5 
A    8
 O3 
A    9
 C6 
A   10
 N1 
A   11
 C7 
A   12
 N2 
M  END
>  <ref_pdb>  (1523) 
Ax0310a

>  <ref_mols>  (1523) 
Ax0446a,Ax1080a,Ax0812a,Ax0719a,Ax1140a,Ax0528a,Ax0310a

>  <original SMILES>  (1523) 
CCOC(=O)c1coc(NC)n1

>  <rationale>  (1523) 
info info set:bb_densepocket2;hbond:S105; hydroph_interaction:V124; 

>  <experiment>  (1523) 
bb_densepocket2

>  <cluster_label>  (1523) 
3

>  <cluster_rank>  (1523) 
1180

>  <N_interactions>  (1523) 
2

>  <∆∆G>  (1523) 
-2.527638

>  <comRMSD>  (1523) 
0.791756

>  <ROCS_TanimotoCombo>  (1523) 
0.612

>  <ROCS_ShapeTanimoto>  (1523) 
0.206

>  <ROCS_ColorTanimoto>  (1523) 
0.406

$$$$
Z1966570493
     RDKit          3D

 11 11  0  0  0  0  0  0  0  0999 V2000
   33.2831   13.4955    6.7095 C   0  0  0  0  0  0  0  0  0  0  0  0
   32.4420   12.9933    7.8570 C   0  0  0  0  0  0  0  0  0  0  0  0
   33.1183   13.5114    9.1063 C   0  0  0  0  0  0  0  0  0  0  0  0
   31.0339   13.5750    7.8788 C   0  0  0  0  0  0  0  0  0  0  0  0
   30.1386   13.3098    7.0864 O   0  0  0  0  0  0  0  0  0  0  0  0
   30.8038   14.4741    8.8752 O   0  0  0  0  0  0  0  0  0  0  0  0
   32.2525   11.5538    7.7059 N   0  0  0  0  0  0  0  0  0  0  0  0
   31.0607   10.8682    7.9088 C   0  0  0  0  0  0  0  0  0  0  0  0
   31.3439    9.4282    7.5730 C   0  0  0  0  0  0  0  0  0  0  0  0
   32.3716    9.6730    6.5303 C   0  0  0  0  0  0  0  0  0  0  0  0
   32.7802   11.0164    6.5035 C   0  0  0  0  0  0  0  0  0  0  0  0
  1  2  1  0
  2  3  1  0
  2  4  1  0
  4  5  2  0
  4  6  1  0
  2  7  1  0
  7  8  1  0
  8  9  1  0
  9 10  1  0
 10 11  1  0
 11  7  1  0
A    1
 C1 
A    2
 C2 
A    3
 C3 
A    4
 C4 
A    5
 O1 
A    6
 O2 
A    7
 N1 
A    8
 C5 
A    9
 C6 
A   10
 C7 
A   11
 C8 
M  END
>  <ref_pdb>  (1524) 
Ax0310a

>  <ref_mols>  (1524) 
Ax0446a,Ax1080a,Ax0812a,Ax0719a,Ax1140a,Ax0528a,Ax0310a

>  <original SMILES>  (1524) 
CC(C)(C(=O)O)N1CCCC1

>  <rationale>  (1524) 
info info set:3d;hbond:S87+G127; hydroph_interaction:V84; 

>  <experiment>  (1524) 
3d

>  <cluster_label>  (1524) 
3

>  <cluster_rank>  (1524) 
1181

>  <N_interactions>  (1524) 
3

>  <∆∆G>  (1524) 
-2.100298

>  <comRMSD>  (1524) 
0.954721

>  <ROCS_TanimotoCombo>  (1524) 
0.286

>  <ROCS_ShapeTanimoto>  (1524) 
0.154

>  <ROCS_ColorTanimoto>  (1524) 
0.132

$$$$
Z3211922670
     RDKit          3D

 13 13  0  0  0  0  0  0  0  0999 V2000
   28.3779   13.3009    8.0679 C   0  0  0  0  0  0  0  0  0  0  0  0
   29.7716   13.8885    8.2228 C   0  0  0  0  0  0  0  0  0  0  0  0
   30.7815   13.0989    7.5222 O   0  0  0  0  0  0  0  0  0  0  0  0
   30.6174   11.8146    7.8786 C   0  0  0  0  0  0  0  0  0  0  0  0
   29.7709   11.5007    8.6456 O   0  0  0  0  0  0  0  0  0  0  0  0
   31.4766   10.7660    7.3062 C   0  0  0  0  0  0  0  0  0  0  0  0
   32.4384   10.8957    6.1539 C   0  0  0  0  0  0  0  0  0  0  0  0
   32.6064   12.2139    5.4728 C   0  0  0  0  0  0  0  0  0  0  0  0
   33.0671    9.5258    5.9423 C   0  0  0  0  0  0  0  0  0  0  0  0
   32.5789    8.6386    6.8622 O   0  0  0  0  0  0  0  0  0  0  0  0
   31.6816    9.2819    7.6695 C   0  0  0  0  0  0  0  0  0  0  0  0
   31.0438    8.5319    8.7771 C   0  0  0  0  0  0  0  0  0  0  0  0
   29.6816    8.0884    8.4847 C   0  0  0  0  0  0  0  0  0  0  0  0
  1  2  1  0
  2  3  1  0
  3  4  1  0
  4  5  2  0
  4  6  1  0
  6  7  1  0
  7  8  1  0
  7  9  2  0
  9 10  1  0
 10 11  1  0
 11 12  1  0
 12 13  1  0
 11  6  2  0
A    1
 C1 
A    2
 C2 
A    3
 O1 
A    4
 C3 
A    5
 O2 
A    6
 C4 
A    7
 C5 
A    8
 C6 
A    9
 C7 
A   10
 O3 
A   11
 C8 
A   12
 C9 
A   13
 C10
M  END
>  <ref_pdb>  (1525) 
Ax0310a

>  <ref_mols>  (1525) 
Ax0446a,Ax1080a,Ax0812a,Ax0719a,Ax1140a,Ax0528a,Ax0310a

>  <original SMILES>  (1525) 
CCOC(=O)c1c(C)coc1CC

>  <rationale>  (1525) 
info info set:screening_pocket;hydroph_interaction:P107+V124; 

>  <experiment>  (1525) 
screening_pocket

>  <cluster_label>  (1525) 
3

>  <cluster_rank>  (1525) 
1182

>  <N_interactions>  (1525) 
2

>  <∆∆G>  (1525) 
-6.126957

>  <comRMSD>  (1525) 
0.546655

>  <ROCS_TanimotoCombo>  (1525) 
0.626

>  <ROCS_ShapeTanimoto>  (1525) 
0.225

>  <ROCS_ColorTanimoto>  (1525) 
0.401

$$$$
EN300_1236391
     RDKit          3D

 12 12  0  0  0  0  0  0  0  0999 V2000
   31.8374   12.6522    6.5053 C   0  0  0  0  0  0  0  0  0  0  0  0
   32.2824   11.1927    6.4162 C   0  0  0  0  0  0  0  0  0  0  0  0
   33.2646   10.7816    5.3692 C   0  0  0  0  0  0  0  0  0  0  0  0
   33.4582    9.2763    5.6022 C   0  0  0  0  0  0  0  0  0  0  0  0
   32.6622    8.9129    6.6601 O   0  0  0  0  0  0  0  0  0  0  0  0
   31.9945   10.0464    7.1089 C   0  0  0  0  0  0  0  0  0  0  0  0
   31.0996    9.8015    8.2529 C   0  0  0  0  0  0  0  0  0  0  0  0
   30.4585   10.6540    8.8385 O   0  0  0  0  0  0  0  0  0  0  0  0
   31.1598    8.2898    8.5062 C   0  0  0  0  0  0  0  0  0  0  0  0
   29.7770    7.9853    8.9264 C   0  0  0  0  0  0  0  0  0  0  0  0
   29.3405    8.8762    9.9468 C   0  0  0  0  0  0  0  0  0  0  0  0
   29.0043    8.5919    8.0261 C   0  0  0  0  0  0  0  0  0  0  0  0
  1  2  1  0
  2  3  1  0
  3  4  2  0
  4  5  1  0
  5  6  1  0
  6  7  1  0
  7  8  2  0
  7  9  1  0
  9 10  1  0
 10 11  1  0
 10 12  1  0
  6  2  2  0
A    1
 C1 
A    2
 C2 
A    3
 C3 
A    4
 C4 
A    5
 O1 
A    6
 C5 
A    7
 C6 
A    8
 O2 
A    9
 C7 
A   10
 C8 
A   11
 C9 
A   12
 C10
M  END
>  <ref_pdb>  (1526) 
Ax0310a

>  <ref_mols>  (1526) 
Ax0446a,Ax1080a,Ax0812a,Ax0719a,Ax1140a,Ax0528a,Ax0310a

>  <original SMILES>  (1526) 
Cc1ccoc1C(=O)CC(C)C

>  <rationale>  (1526) 
info info set:bb_densepocket2;hydroph_interaction:P107+V124; 

>  <experiment>  (1526) 
bb_densepocket2

>  <cluster_label>  (1526) 
3

>  <cluster_rank>  (1526) 
1183

>  <N_interactions>  (1526) 
2

>  <∆∆G>  (1526) 
-0.978119

>  <comRMSD>  (1526) 
0.701369

>  <ROCS_TanimotoCombo>  (1526) 
0.617

>  <ROCS_ShapeTanimoto>  (1526) 
0.188

>  <ROCS_ColorTanimoto>  (1526) 
0.43

$$$$
EN300_208854
     RDKit          3D

 15 15  0  0  0  0  0  0  0  0999 V2000
   33.6294   11.9663    6.2636 C   0  0  0  0  0  0  0  0  0  0  0  0
   33.9970   13.3281    6.5403 O   0  0  0  0  0  0  0  0  0  0  0  0
   35.3383   13.5279    6.8654 C   0  0  0  0  0  0  0  0  0  0  0  0
   35.7114   13.7579    8.3614 C   0  0  0  0  0  0  0  0  0  0  0  0
   37.0607   13.3791    8.8004 O   0  0  0  0  0  0  0  0  0  0  0  0
   37.3234   12.7461   10.0264 C   0  0  0  0  0  0  0  0  0  0  0  0
   36.4786   11.8903   10.7135 C   0  0  0  0  0  0  0  0  0  0  0  0
   36.8065   11.2105   12.0248 C   0  0  0  0  0  0  0  0  0  0  0  0
   38.1529   11.5636   12.5594 C   0  0  0  0  0  0  0  0  0  0  0  0
   38.9381   12.4303   11.8337 C   0  0  0  0  0  0  0  0  0  0  0  0
   40.4991   12.8054   12.5198 S   0  0  0  0  0  6  0  0  0  0  0  0
   41.3665   11.4368   12.0795 N   0  0  0  0  0  0  0  0  0  0  0  0
   41.1131   13.9229   11.8496 O   0  0  0  0  0  0  0  0  0  0  0  0
   40.3623   12.7374   13.9566 O   0  0  0  0  0  0  0  0  0  0  0  0
   38.5605   13.0123   10.6020 C   0  0  0  0  0  0  0  0  0  0  0  0
  1  2  1  0
  2  3  1  0
  3  4  1  0
  4  5  1  0
  5  6  1  0
  6  7  2  0
  7  8  1  0
  8  9  2  0
  9 10  1  0
 10 11  1  0
 11 12  1  0
 11 13  2  0
 11 14  2  0
 10 15  2  0
 15  6  1  0
A    1
 C1 
A    2
 O1 
A    3
 C2 
A    4
 C3 
A    5
 O2 
A    6
 C4 
A    7
 C5 
A    8
 C6 
A    9
 C7 
A   10
 C8 
A   11
 S1 
A   12
 N1 
A   13
 O3 
A   14
 O4 
A   15
 C9 
M  END
>  <ref_pdb>  (1527) 
Ax0310a

>  <ref_mols>  (1527) 
Ax0446a,Ax1080a,Ax0812a,Ax0719a,Ax1140a,Ax0528a,Ax0310a

>  <original SMILES>  (1527) 
COCCOc1cccc(S(N)(=O)=O)c1

>  <rationale>  (1527) 
info info set:sulfonimide_whole;hbond:E85; hydroph_interaction:V84+L100; 

>  <experiment>  (1527) 
sulfonimide_whole

>  <cluster_label>  (1527) 
3

>  <cluster_rank>  (1527) 
1184

>  <N_interactions>  (1527) 
3

>  <∆∆G>  (1527) 
-3.489057

>  <comRMSD>  (1527) 
0.784897

>  <ROCS_TanimotoCombo>  (1527) 
0.303

>  <ROCS_ShapeTanimoto>  (1527) 
0.182

>  <ROCS_ColorTanimoto>  (1527) 
0.121

$$$$
Z641665016
     RDKit          3D

 27 30  0  0  0  0  0  0  0  0999 V2000
   35.2581   16.6580    3.0651 C   0  0  0  0  0  0  0  0  0  0  0  0
   34.8316   15.4196    3.8551 C   0  0  0  0  0  0  0  0  0  0  0  0
   35.5543   14.9724    5.0892 C   0  0  0  0  0  0  0  0  0  0  0  0
   35.1582   13.7922    5.7401 C   0  0  0  0  0  0  0  0  0  0  0  0
   34.0873   13.0838    5.1763 C   0  0  0  0  0  0  0  0  0  0  0  0
   33.6491   11.8631    5.6448 C   0  0  0  0  0  0  0  0  0  0  0  0
   34.4689   10.7266    5.1520 C   0  0  0  0  0  0  0  0  0  0  0  0
   33.9480    9.1830    5.6692 S   0  0  0  0  0  0  0  0  0  0  0  0
   32.6796    9.9187    6.5508 C   0  0  0  0  0  0  0  0  0  0  0  0
   31.8606    9.1129    7.2483 N   0  0  0  0  0  0  0  0  0  0  0  0
   30.8511    9.7429    7.9202 C   0  0  0  0  0  0  0  0  0  0  0  0
   30.7070   11.0770    7.8735 N   0  0  0  0  0  0  0  0  0  0  0  0
   31.5365   11.8398    7.1874 C   0  0  0  0  0  0  0  0  0  0  0  0
   31.3301   13.1972    7.1904 O   0  0  0  0  0  0  0  0  0  0  0  0
   30.0832   13.6061    7.5451 C   0  0  0  0  0  0  0  0  0  0  0  0
   28.9470   13.2042    6.6461 C   0  0  0  0  0  0  0  0  0  0  0  0
   27.6076   13.6567    7.0182 C   0  0  0  0  0  0  0  0  0  0  0  0
   27.5109   14.4375    8.2001 C   0  0  0  0  0  0  0  0  0  0  0  0
   28.5401   14.7813    8.9918 N   0  0  0  0  0  0  0  0  0  0  0  0
   29.7990   14.3727    8.6666 C   0  0  0  0  0  0  0  0  0  0  0  0
   30.9454   14.7506    9.5131 N   0  0  0  0  0  4  0  0  0  0  0  0
   32.0426   14.2962    9.1589 O   0  0  0  0  0  0  0  0  0  0  0  0
   30.8476   15.8486   10.0681 O   0  0  0  0  0  1  0  0  0  0  0  0
   32.5961   11.3196    6.4713 C   0  0  0  0  0  0  0  0  0  0  0  0
   33.4102   13.5526    4.0498 C   0  0  0  0  0  0  0  0  0  0  0  0
   33.7649   14.6955    3.4044 C   0  0  0  0  0  0  0  0  0  0  0  0
   33.0178   15.1602    2.1975 C   0  0  0  0  0  0  0  0  0  0  0  0
  1  2  1  0
  2  3  2  0
  3  4  1  0
  4  5  2  0
  5  6  1  0
  6  7  2  0
  7  8  1  0
  8  9  1  0
  9 10  2  0
 10 11  1  0
 11 12  2  0
 12 13  1  0
 13 14  1  0
 14 15  1  0
 15 16  2  0
 16 17  1  0
 17 18  2  0
 18 19  1  0
 19 20  2  0
 20 21  1  0
 21 22  2  0
 21 23  1  0
 13 24  2  0
  5 25  1  0
 25 26  2  0
 26 27  1  0
 26  2  1  0
 24  6  1  0
 24  9  1  0
 20 15  1  0
M  CHG  2  21   1  23  -1
A    1
 C1 
A    2
 C2 
A    3
 C3 
A    4
 C4 
A    5
 C5 
A    6
 C6 
A    7
 C7 
A    8
 S1 
A    9
 C8 
A   10
 N1 
A   11
 C9 
A   12
 N2 
A   13
 C10
A   14
 O1 
A   15
 C11
A   16
 C12
A   17
 C13
A   18
 C14
A   19
 N3 
A   20
 C15
A   21
 N4 
A   22
 O2 
A   23
 O3 
A   24
 C16
A   25
 C17
A   26
 C18
A   27
 C19
M  END
>  <ref_pdb>  (1528) 
Ax0310a

>  <ref_mols>  (1528) 
Ax0446a,Ax1080a,Ax0812a,Ax0719a,Ax1140a,Ax0528a,Ax0310a

>  <original SMILES>  (1528) 
Cc1ccc(-c2csc3ncnc(Oc4cccnc4[N+](=O)[O-])c23)cc1C

>  <rationale>  (1528) 
info info set:screening_whole;hbond:S87; hydroph_interaction:P107; 

>  <experiment>  (1528) 
screening_whole

>  <cluster_label>  (1528) 
3

>  <cluster_rank>  (1528) 
1185

>  <N_interactions>  (1528) 
2

>  <∆∆G>  (1528) 
-7.909751

>  <comRMSD>  (1528) 
0.877256

>  <ROCS_TanimotoCombo>  (1528) 
0.454

>  <ROCS_ShapeTanimoto>  (1528) 
0.257

>  <ROCS_ColorTanimoto>  (1528) 
0.197

$$$$
EN300_7499134
     RDKit          3D

 14 15  0  0  0  0  0  0  0  0999 V2000
   28.8502    9.1331    8.2190 C   0  0  0  0  0  0  0  0  0  0  0  0
   29.9054    8.8938    9.0529 C   0  0  0  0  0  0  0  0  0  0  0  0
   29.2206    8.5359   10.2161 C   0  0  0  0  0  0  0  0  0  0  0  0
   30.5805    7.6903    8.6850 C   0  0  0  0  0  0  0  0  0  0  0  0
   30.8694    9.8746    9.0275 O   0  0  0  0  0  0  0  0  0  0  0  0
   30.7244   10.8829    8.1806 C   0  0  0  0  0  0  0  0  0  0  0  0
   29.8620   11.7318    8.3134 O   0  0  0  0  0  0  0  0  0  0  0  0
   31.6634   10.8617    7.1896 N   0  0  0  0  0  0  0  0  0  0  0  0
   32.3397    9.7959    6.7030 C   0  0  0  0  0  0  0  0  0  0  0  0
   32.3191    8.5978    6.9286 O   0  0  0  0  0  0  0  0  0  0  0  0
   33.3036   10.2684    5.6708 C   0  0  0  0  0  0  0  0  0  0  0  0
   33.4557   11.7656    5.9737 C   0  0  1  0  0  0  0  0  0  0  0  0
   32.6023   12.7987    5.5260 C   0  0  0  0  0  0  0  0  0  0  0  0
   32.5334   12.0322    7.0071 C   0  0  1  0  0  0  0  0  0  0  0  0
  1  2  1  0
  2  3  1  0
  2  4  1  0
  2  5  1  0
  5  6  1  0
  6  7  2  0
  6  8  1  0
  8  9  1  0
  9 10  2  0
  9 11  1  0
 12 11  1  6
 12 13  1  0
 14 13  1  6
 14  8  1  0
 14 12  1  0
A    1
 C1 
A    2
 C2 
A    3
 C3 
A    4
 C4 
A    5
 O1 
A    6
 C5 
A    7
 O2 
A    8
 N1 
A    9
 C6 
A   10
 O3 
A   11
 C7 
A   12
 C8 
A   13
 C9 
A   14
 C10
M  END
>  <ref_pdb>  (1529) 
Ax0310a

>  <ref_mols>  (1529) 
Ax0446a,Ax1080a,Ax0812a,Ax0719a,Ax1140a,Ax0528a,Ax0310a

>  <original SMILES>  (1529) 
CC(C)(C)OC(=O)N1C(=O)C[C@H]2C[C@H]21

>  <rationale>  (1529) 
info info set:bb_densepocket2;

>  <experiment>  (1529) 
bb_densepocket2

>  <cluster_label>  (1529) 
3

>  <cluster_rank>  (1529) 
1186

>  <N_interactions>  (1529) 
0

>  <∆∆G>  (1529) 
-2.763714

>  <comRMSD>  (1529) 
0.930536

>  <ROCS_TanimotoCombo>  (1529) 
0.607

>  <ROCS_ShapeTanimoto>  (1529) 
0.208

>  <ROCS_ColorTanimoto>  (1529) 
0.399

$$$$
EN300_1269019
     RDKit          3D

 13 13  0  0  0  0  0  0  0  0999 V2000
   34.3845    8.9905    4.7153 C   0  0  0  0  0  0  0  0  0  0  0  0
   33.4418    9.8950    5.4368 C   0  0  0  0  0  0  0  0  0  0  0  0
   32.7064    9.4064    6.4710 N   0  0  0  0  0  0  0  0  0  0  0  0
   31.9588   10.3511    6.9666 C   0  0  0  0  0  0  0  0  0  0  0  0
   31.0500   10.0555    8.0993 C   0  0  0  0  0  0  0  0  0  0  0  0
   30.3560   10.7771    8.7923 O   0  0  0  0  0  0  0  0  0  0  0  0
   31.2491    8.5516    8.1434 C   0  0  0  0  0  0  0  0  0  0  0  0
   30.4857    7.8970    9.2095 C   0  0  0  0  0  0  0  0  0  0  0  0
   29.1626    7.4505    8.8522 C   0  0  0  0  0  0  0  0  0  0  0  0
   30.0281    8.7202   10.0271 C   0  0  0  0  0  0  0  0  0  0  0  0
   32.0734   11.8827    6.2611 S   0  0  0  0  0  0  0  0  0  0  0  0
   33.2189   11.2230    5.1735 C   0  0  0  0  0  0  0  0  0  0  0  0
   33.8420   12.0951    4.0980 C   0  0  0  0  0  0  0  0  0  0  0  0
  1  2  1  0
  2  3  1  0
  3  4  2  0
  4  5  1  0
  5  6  2  0
  5  7  1  0
  7  8  1  0
  8  9  1  0
  8 10  1  0
  4 11  1  0
 11 12  1  0
 12 13  1  0
 12  2  2  0
A    1
 C1 
A    2
 C2 
A    3
 N1 
A    4
 C3 
A    5
 C4 
A    6
 O1 
A    7
 C5 
A    8
 C6 
A    9
 C7 
A   10
 C8 
A   11
 S1 
A   12
 C9 
A   13
 C10
M  END
>  <ref_pdb>  (1530) 
Ax0310a

>  <ref_mols>  (1530) 
Ax0446a,Ax1080a,Ax0812a,Ax0719a,Ax1140a,Ax0528a,Ax0310a

>  <original SMILES>  (1530) 
Cc1nc(C(=O)CC(C)C)sc1C

>  <rationale>  (1530) 
info info set:bb_densepocket2;hydroph_interaction:V124+D109; 

>  <experiment>  (1530) 
bb_densepocket2

>  <cluster_label>  (1530) 
3

>  <cluster_rank>  (1530) 
1187

>  <N_interactions>  (1530) 
2

>  <∆∆G>  (1530) 
-1.662466

>  <comRMSD>  (1530) 
0.989914

>  <ROCS_TanimotoCombo>  (1530) 
0.619

>  <ROCS_ShapeTanimoto>  (1530) 
0.188

>  <ROCS_ColorTanimoto>  (1530) 
0.431

$$$$
Z1940299777
     RDKit          3D

 15 15  0  0  0  0  0  0  0  0999 V2000
   35.9972    8.2575    3.3780 C   0  0  0  0  0  0  0  0  0  0  0  0
   35.1682    9.2442    4.2060 C   0  0  0  0  0  0  0  0  0  0  0  0
   35.4450   10.5971    3.7683 O   0  0  0  0  0  0  0  0  0  0  0  0
   34.3684    8.7381    5.1656 N   0  0  0  0  0  0  0  0  0  0  0  0
   33.4400    9.4503    5.7933 C   0  0  0  0  0  0  0  0  0  0  0  0
   33.3590   10.9700    5.5875 C   0  0  0  0  0  0  0  0  0  0  0  0
   32.2634   11.6903    6.3500 C   0  0  0  0  0  0  0  0  0  0  0  0
   31.4071   10.8027    7.2055 C   0  0  0  0  0  0  0  0  0  0  0  0
   30.2801   11.3747    8.0167 C   0  0  0  0  0  0  0  0  0  0  0  0
   30.0140   10.6263    8.9164 O   0  0  0  0  0  0  0  0  0  0  0  0
   29.6337   12.5826    7.7180 N   0  0  0  0  0  0  0  0  0  0  0  0
   29.0228   13.2689    8.6979 C   0  0  0  0  0  0  0  0  0  0  0  0
   29.1049   12.9349    6.4211 C   0  0  0  0  0  0  0  0  0  0  0  0
   31.6194    9.4485    7.2762 C   0  0  0  0  0  0  0  0  0  0  0  0
   32.5864    8.8051    6.6062 N   0  0  0  0  0  0  0  0  0  0  0  0
  1  2  1  0
  2  3  2  0
  2  4  1  0
  4  5  1  0
  5  6  2  0
  6  7  1  0
  7  8  2  0
  8  9  1  0
  9 10  2  0
  9 11  1  0
 11 12  1  0
 11 13  1  0
  8 14  1  0
 14 15  2  0
 15  5  1  0
A    1
 C1 
A    2
 C2 
A    3
 O1 
A    4
 N1 
A    5
 C3 
A    6
 C4 
A    7
 C5 
A    8
 C6 
A    9
 C7 
A   10
 O2 
A   11
 N2 
A   12
 C8 
A   13
 C9 
A   14
 C10
A   15
 N3 
M  END
>  <ref_pdb>  (1531) 
Ax0310a

>  <ref_mols>  (1531) 
Ax0446a,Ax1080a,Ax0812a,Ax0719a,Ax1140a,Ax0528a,Ax0310a

>  <original SMILES>  (1531) 
CC(=O)Nc1ccc(C(=O)N(C)C)cn1

>  <rationale>  (1531) 
info info set:screening_pocket;hbond:S105; hydroph_interaction:P107; 

>  <experiment>  (1531) 
screening_pocket

>  <cluster_label>  (1531) 
3

>  <cluster_rank>  (1531) 
1188

>  <N_interactions>  (1531) 
2

>  <∆∆G>  (1531) 
-6.263691

>  <comRMSD>  (1531) 
0.547529

>  <ROCS_TanimotoCombo>  (1531) 
0.624

>  <ROCS_ShapeTanimoto>  (1531) 
0.244

>  <ROCS_ColorTanimoto>  (1531) 
0.379

$$$$
Z811811170
     RDKit          3D

 20 21  0  0  0  0  0  0  0  0999 V2000
   28.1755   14.1189    5.6689 C   0  0  0  0  0  0  0  0  0  0  0  0
   28.5867   14.6985    6.9950 C   0  0  0  0  0  0  0  0  0  0  0  0
   28.6047   16.0994    7.1311 O   0  0  0  0  0  0  0  0  0  0  0  0
   28.9807   16.4467    8.3532 C   0  0  0  0  0  0  0  0  0  0  0  0
   29.2795   15.2897    9.1827 C   0  0  0  0  0  0  0  0  0  0  0  0
   28.9815   14.2322    8.1753 C   0  0  0  0  0  0  0  0  0  0  0  0
   29.2182   12.9769    8.7840 C   0  0  0  0  0  0  0  0  0  0  0  0
   29.2742   12.0752    7.7319 N   0  0  0  0  0  0  0  0  0  0  0  0
   28.0594   12.0614    7.1005 C   0  0  0  0  0  0  0  0  0  0  0  0
   30.1258   11.0348    8.0334 C   0  0  0  0  0  0  0  0  0  0  0  0
   30.0351   10.3280    9.0055 O   0  0  0  0  0  0  0  0  0  0  0  0
   31.1944   10.6820    7.2833 C   0  0  0  0  0  0  0  0  0  0  0  0
   31.9868   11.5532    6.5710 C   0  0  0  0  0  0  0  0  0  0  0  0
   33.1707   11.1156    5.7534 C   0  0  0  0  0  0  0  0  0  0  0  0
   33.4017    9.6100    5.8049 C   0  0  0  0  0  0  0  0  0  0  0  0
   32.6143    8.7673    6.5126 N   0  0  0  0  0  0  0  0  0  0  0  0
   31.5542    9.2178    7.2220 C   0  0  0  0  0  0  0  0  0  0  0  0
   30.7570    8.2661    7.9176 N   0  0  0  0  0  0  0  0  0  0  0  0
   29.4437    8.6940    8.2689 C   0  0  0  0  0  0  0  0  0  0  0  0
   31.1857    8.0797    9.1946 C   0  0  0  0  0  0  0  0  0  0  0  0
  1  2  1  0
  2  3  1  0
  3  4  1  0
  4  5  2  0
  5  6  1  0
  6  7  1  0
  7  8  1  0
  8  9  1  0
  8 10  1  0
 10 11  2  0
 10 12  1  0
 12 13  2  0
 13 14  1  0
 14 15  2  0
 15 16  1  0
 16 17  2  0
 17 18  1  0
 18 19  1  0
 18 20  1  0
  6  2  2  0
 17 12  1  0
A    1
 C1 
A    2
 C2 
A    3
 O1 
A    4
 C3 
A    5
 C4 
A    6
 C5 
A    7
 C6 
A    8
 N1 
A    9
 C7 
A   10
 C8 
A   11
 O2 
A   12
 C9 
A   13
 C10
A   14
 C11
A   15
 C12
A   16
 N2 
A   17
 C13
A   18
 N3 
A   19
 C14
A   20
 C15
M  END
>  <ref_pdb>  (1532) 
Ax0310a

>  <ref_mols>  (1532) 
Ax0446a,Ax1080a,Ax0812a,Ax0719a,Ax1140a,Ax0528a,Ax0310a

>  <original SMILES>  (1532) 
Cc1occc1CN(C)C(=O)c1cccnc1N(C)C

>  <rationale>  (1532) 
info info set:screening_pocket;hydroph_interaction:P107+Y90; pistack:H21; 

>  <experiment>  (1532) 
screening_pocket

>  <cluster_label>  (1532) 
3

>  <cluster_rank>  (1532) 
1189

>  <N_interactions>  (1532) 
3

>  <∆∆G>  (1532) 
-0.638854

>  <comRMSD>  (1532) 
0.912749

>  <ROCS_TanimotoCombo>  (1532) 
0.639

>  <ROCS_ShapeTanimoto>  (1532) 
0.245

>  <ROCS_ColorTanimoto>  (1532) 
0.394

$$$$
EN300_28271498
     RDKit          3D

 13 14  0  0  0  0  0  0  0  0999 V2000
   28.4186   13.0991    7.6824 C   0  0  0  0  0  0  0  0  0  0  0  0
   29.8018   12.6582    7.1540 C   0  0  0  0  0  0  0  0  0  0  0  0
   30.2015   12.9921    6.0438 O   0  0  0  0  0  0  0  0  0  0  0  0
   30.5420   11.8688    8.0161 N   0  0  0  0  0  0  0  0  0  0  0  0
   31.5980   10.9843    7.5205 C   0  0  2  0  0  0  0  0  0  0  0  0
   31.4554    9.5922    7.7685 C   0  0  0  0  0  0  0  0  0  0  0  0
   32.5786    9.0350    7.0940 O   0  0  0  0  0  0  0  0  0  0  0  0
   33.1038   10.1825    6.3735 C   0  0  2  0  0  0  0  0  0  0  0  0
   34.1588    9.8989    5.2521 C   0  0  0  0  0  0  0  0  0  0  0  0
   34.4867   10.6431    4.3377 O   0  0  0  0  0  0  0  0  0  0  0  0
   34.8047    8.6916    5.3051 O   0  0  0  0  0  0  0  0  0  0  0  0
   32.9953   11.5820    7.1159 C   0  0  0  0  0  0  0  0  0  0  0  0
   31.7929   10.9103    6.0155 C   0  0  0  0  0  0  0  0  0  0  0  0
  1  2  1  0
  2  3  2  0
  2  4  1  0
  5  4  1  6
  5  6  1  0
  6  7  1  0
  7  8  1  0
  8  9  1  6
  9 10  2  0
  9 11  1  0
  8 12  1  0
  8 13  1  0
 12  5  1  0
 13  5  1  0
A    1
 C1 
A    2
 C2 
A    3
 O1 
A    4
 N1 
A    5
 C3 
A    6
 C4 
A    7
 O2 
A    8
 C5 
A    9
 C6 
A   10
 O3 
A   11
 O4 
A   12
 C7 
A   13
 C8 
M  END
>  <ref_pdb>  (1533) 
Ax0310a

>  <ref_mols>  (1533) 
Ax0446a,Ax1080a,Ax0812a,Ax0719a,Ax1140a,Ax0528a,Ax0310a

>  <original SMILES>  (1533) 
CC(=O)N[C@]12CO[C@](C(=O)O)(C1)C2

>  <rationale>  (1533) 
info info set:bb_densepocket;hbond:S125+G127; hydroph_interaction:P107; 

>  <experiment>  (1533) 
bb_densepocket

>  <cluster_label>  (1533) 
3

>  <cluster_rank>  (1533) 
1190

>  <N_interactions>  (1533) 
3

>  <∆∆G>  (1533) 
-1.268398

>  <comRMSD>  (1533) 
0.943087

>  <ROCS_TanimotoCombo>  (1533) 
0.692

>  <ROCS_ShapeTanimoto>  (1533) 
0.235

>  <ROCS_ColorTanimoto>  (1533) 
0.457

$$$$
Z340495298
     RDKit          3D

 15 16  0  0  0  0  0  0  0  0999 V2000
   31.6947    8.5113    7.3369 C   0  0  0  0  0  0  0  0  0  0  0  0
   31.7069    9.9365    7.3316 C   0  0  0  0  0  0  0  0  0  0  0  0
   32.6826   10.7858    7.0549 C   0  0  0  0  0  0  0  0  0  0  0  0
   32.2031   12.0186    7.2968 C   0  0  0  0  0  0  0  0  0  0  0  0
   32.9579   13.1645    7.2318 C   0  0  0  0  0  0  0  0  0  0  0  0
   33.0252   13.8326    8.4260 O   0  0  0  0  0  0  0  0  0  0  0  0
   33.6437   13.5545    6.1591 N   0  0  0  0  0  0  0  0  0  0  0  0
   33.3081   13.3160    4.7512 C   0  0  0  0  0  0  0  0  0  0  0  0
   32.0343   13.7714    4.4303 C   0  0  0  0  0  0  0  0  0  0  0  0
   33.4872   11.8458    4.3822 C   0  0  0  0  0  0  0  0  0  0  0  0
   34.8647   14.2700    6.3620 C   0  0  0  0  0  0  0  0  0  0  0  0
   35.5746   14.0683    7.4368 C   0  0  0  0  0  0  0  0  0  0  0  0
   36.3707   13.5420    6.3042 C   0  0  0  0  0  0  0  0  0  0  0  0
   30.8876   11.9682    7.6677 N   0  0  0  0  0  0  0  0  0  0  0  0
   30.5269   10.6207    7.7032 O   0  0  0  0  0  0  0  0  0  0  0  0
  1  2  1  0
  2  3  2  0
  3  4  1  0
  4  5  1  0
  5  6  2  0
  5  7  1  0
  7  8  1  0
  8  9  1  0
  8 10  1  0
  7 11  1  0
 11 12  1  0
 12 13  1  0
  4 14  2  0
 14 15  1  0
 15  2  1  0
 13 11  1  0
A    1
 C1 
A    2
 C2 
A    3
 C3 
A    4
 C4 
A    5
 C5 
A    6
 O1 
A    7
 N1 
A    8
 C6 
A    9
 C7 
A   10
 C8 
A   11
 C9 
A   12
 C10
A   13
 C11
A   14
 N2 
A   15
 O2 
M  END
>  <ref_pdb>  (1534) 
Ax0310a

>  <ref_mols>  (1534) 
Ax0446a,Ax1080a,Ax0812a,Ax0719a,Ax1140a,Ax0528a,Ax0310a

>  <original SMILES>  (1534) 
Cc1cc(C(=O)N(C(C)C)C2CC2)no1

>  <rationale>  (1534) 
info info set:3d;hbond:S87+G127; hydroph_interaction:E85; 

>  <experiment>  (1534) 
3d

>  <cluster_label>  (1534) 
3

>  <cluster_rank>  (1534) 
1191

>  <N_interactions>  (1534) 
3

>  <∆∆G>  (1534) 
-5.690772

>  <comRMSD>  (1534) 
0.796122

>  <ROCS_TanimotoCombo>  (1534) 
0.282

>  <ROCS_ShapeTanimoto>  (1534) 
0.171

>  <ROCS_ColorTanimoto>  (1534) 
0.111

$$$$
EN300_744880
     RDKit          3D

 16 17  0  0  0  0  0  0  0  0999 V2000
   28.8488    9.5263    8.8948 C   0  0  0  0  0  0  0  0  0  0  0  0
   30.1171    9.0909    8.4046 C   0  0  0  0  0  0  0  0  0  0  0  0
   30.7981    8.0977    9.1990 C   0  0  0  0  0  0  0  0  0  0  0  0
   30.9253   10.2867    8.0850 C   0  0  0  0  0  0  0  0  0  0  0  0
   30.7656   11.3880    8.5937 O   0  0  0  0  0  0  0  0  0  0  0  0
   31.9690   10.0824    7.0173 C   0  0  0  0  0  0  0  0  0  0  0  0
   32.4407   11.3946    6.4451 C   0  0  0  0  0  0  0  0  0  0  0  0
   33.4386   11.0036    5.4154 C   0  0  0  0  0  0  0  0  0  0  0  0
   34.2009   11.7530    4.5611 C   0  0  0  0  0  0  0  0  0  0  0  0
   34.1187   13.0849    4.5665 F   0  0  0  0  0  0  0  0  0  0  0  0
   35.0410   11.0753    3.7088 C   0  0  0  0  0  0  0  0  0  0  0  0
   36.0520   11.8764    2.5822 Cl  0  0  0  0  0  0  0  0  0  0  0  0
   35.0779    9.5708    3.7610 C   0  0  0  0  0  0  0  0  0  0  0  0
   34.2965    8.8495    4.6354 C   0  0  0  0  0  0  0  0  0  0  0  0
   33.4159    9.4883    5.5312 C   0  0  0  0  0  0  0  0  0  0  0  0
   32.5178    9.0593    6.5066 O   0  0  0  0  0  0  0  0  0  0  0  0
  1  2  1  0
  2  3  1  0
  2  4  1  0
  4  5  2  0
  4  6  1  0
  6  7  2  0
  7  8  1  0
  8  9  2  0
  9 10  1  0
  9 11  1  0
 11 12  1  0
 11 13  2  0
 13 14  1  0
 14 15  2  0
 15 16  1  0
 16  6  1  0
 15  8  1  0
A    1
 C1 
A    2
 C2 
A    3
 C3 
A    4
 C4 
A    5
 O1 
A    6
 C5 
A    7
 C6 
A    8
 C7 
A    9
 C8 
A   10
 F1 
A   11
 C9 
A   12
CL1 
A   13
 C10
A   14
 C11
A   15
 C12
A   16
 O2 
M  END
>  <ref_pdb>  (1535) 
Ax0310a

>  <ref_mols>  (1535) 
Ax0446a,Ax1080a,Ax0812a,Ax0719a,Ax1140a,Ax0528a,Ax0310a

>  <original SMILES>  (1535) 
CC(C)C(=O)c1cc2c(F)c(Cl)ccc2o1

>  <rationale>  (1535) 
info info set:bb_densepocket2;

>  <experiment>  (1535) 
bb_densepocket2

>  <cluster_label>  (1535) 
3

>  <cluster_rank>  (1535) 
1192

>  <N_interactions>  (1535) 
0

>  <∆∆G>  (1535) 
-6.087117

>  <comRMSD>  (1535) 
0.675274

>  <ROCS_TanimotoCombo>  (1535) 
0.61

>  <ROCS_ShapeTanimoto>  (1535) 
0.242

>  <ROCS_ColorTanimoto>  (1535) 
0.368

$$$$
EN300_7437297
     RDKit          3D

 10 10  0  0  0  0  0  0  0  0999 V2000
   34.7718   14.5036    7.8106 N   0  0  0  0  0  0  0  0  0  0  0  0
   33.9056   13.6074    6.6784 S   0  0  0  0  0  6  0  0  0  0  0  0
   34.7925   12.6116    6.1769 O   0  0  0  0  0  0  0  0  0  0  0  0
   33.3240   14.5171    5.7521 O   0  0  0  0  0  0  0  0  0  0  0  0
   32.6136   12.8543    7.6491 C   0  0  0  0  0  0  0  0  0  0  0  0
   31.8781   11.8023    6.8476 C   0  0  1  0  0  0  0  0  0  0  0  0
   32.5790   10.5395    6.4944 C   0  0  0  0  0  0  0  0  0  0  0  0
   31.6056    9.7358    7.3604 C   0  0  0  0  0  0  0  0  0  0  0  0
   30.9287   10.9418    7.7043 C   0  0  0  0  0  0  0  0  0  0  0  0
   29.8478   11.0429    8.5050 O   0  0  0  0  0  0  0  0  0  0  0  0
  1  2  1  0
  2  3  2  0
  2  4  2  0
  2  5  1  0
  6  5  1  1
  6  7  1  0
  7  8  1  0
  8  9  1  0
  9 10  2  0
  9  6  1  0
A    1
 N1 
A    2
 S1 
A    3
 O1 
A    4
 O2 
A    5
 C1 
A    6
 C2 
A    7
 C3 
A    8
 C4 
A    9
 C5 
A   10
 O3 
M  END
>  <ref_pdb>  (1536) 
Ax0310a

>  <ref_mols>  (1536) 
Ax0446a,Ax1080a,Ax0812a,Ax0719a,Ax1140a,Ax0528a,Ax0310a

>  <original SMILES>  (1536) 
NS(=O)(=O)C[C@H]1CCC1=O

>  <rationale>  (1536) 
info info set:sulfonimide_joint;hbond:G127; 

>  <experiment>  (1536) 
sulfonimide_joint

>  <cluster_label>  (1536) 
3

>  <cluster_rank>  (1536) 
1193

>  <N_interactions>  (1536) 
1

>  <∆∆G>  (1536) 
-1.449447

>  <comRMSD>  (1536) 
0.756318

>  <ROCS_TanimotoCombo>  (1536) 
0.304

>  <ROCS_ShapeTanimoto>  (1536) 
0.147

>  <ROCS_ColorTanimoto>  (1536) 
0.156

$$$$
EN300_644665
     RDKit          3D

 14 14  0  0  0  0  0  0  0  0999 V2000
   33.6857    8.9393    5.8437 C   0  0  0  0  0  0  0  0  0  0  0  0
   32.6255    8.5358    6.7273 O   0  0  0  0  0  0  0  0  0  0  0  0
   31.9992    9.6461    7.0969 C   0  0  0  0  0  0  0  0  0  0  0  0
   32.5595   10.8824    6.3832 C   0  0  0  0  0  0  0  0  0  0  0  0
   31.9268   12.2319    6.7231 C   0  0  0  0  0  0  0  0  0  0  0  0
   32.3986   13.3221    6.1160 F   0  0  0  0  0  0  0  0  0  0  0  0
   30.7657   12.2840    7.7519 C   0  0  0  0  0  0  0  0  0  0  0  0
   30.0208   13.8017    8.1643 S   0  0  0  0  0  6  0  0  0  0  0  0
   28.7456   13.5246    9.2462 N   0  0  0  0  0  0  0  0  0  0  0  0
   31.0149   14.5559    8.8998 O   0  0  0  0  0  0  0  0  0  0  0  0
   29.4152   14.2780    6.9443 O   0  0  0  0  0  0  0  0  0  0  0  0
   30.3666   10.9612    8.3310 C   0  0  0  0  0  0  0  0  0  0  0  0
   30.9797    9.6532    8.0116 C   0  0  0  0  0  0  0  0  0  0  0  0
   30.5160    8.5661    8.6201 F   0  0  0  0  0  0  0  0  0  0  0  0
  1  2  1  0
  2  3  1  0
  3  4  2  0
  4  5  1  0
  5  6  1  0
  5  7  2  0
  7  8  1  0
  8  9  1  0
  8 10  2  0
  8 11  2  0
  7 12  1  0
 12 13  2  0
 13 14  1  0
 13  3  1  0
A    1
 C1 
A    2
 O1 
A    3
 C2 
A    4
 C3 
A    5
 C4 
A    6
 F1 
A    7
 C5 
A    8
 S1 
A    9
 N1 
A   10
 O2 
A   11
 O3 
A   12
 C6 
A   13
 C7 
A   14
 F2 
M  END
>  <ref_pdb>  (1537) 
Ax0310a

>  <ref_mols>  (1537) 
Ax0446a,Ax1080a,Ax0812a,Ax0719a,Ax1140a,Ax0528a,Ax0310a

>  <original SMILES>  (1537) 
COc1cc(F)c(S(N)(=O)=O)cc1F

>  <rationale>  (1537) 
info info set:sulfonimide_whole;hbond:S87+S125; 

>  <experiment>  (1537) 
sulfonimide_whole

>  <cluster_label>  (1537) 
3

>  <cluster_rank>  (1537) 
1194

>  <N_interactions>  (1537) 
2

>  <∆∆G>  (1537) 
-4.259678

>  <comRMSD>  (1537) 
0.586489

>  <ROCS_TanimotoCombo>  (1537) 
0.328

>  <ROCS_ShapeTanimoto>  (1537) 
0.196

>  <ROCS_ColorTanimoto>  (1537) 
0.132

$$$$
EN300_28296610
     RDKit          3D

 25 27  0  0  0  0  0  0  0  0999 V2000
   27.6221   13.2086    6.7291 C   0  0  0  0  0  0  0  0  0  0  0  0
   28.7192   13.0838    7.6860 N   0  0  0  0  0  0  0  0  0  0  0  0
   29.2970   14.3455    8.1097 C   0  0  0  0  0  0  0  0  0  0  0  0
   28.6157   15.5925    7.9513 O   0  0  0  0  0  0  0  0  0  0  0  0
   30.6317   14.2387    8.6940 O   0  0  0  0  0  0  0  0  0  0  0  0
   30.9884   14.9688    9.9041 C   0  0  0  0  0  0  0  0  0  0  0  0
   31.2838   16.4584   10.0398 C   0  0  0  0  0  0  0  0  0  0  0  0
   32.4098   14.4969   10.1888 C   0  0  0  0  0  0  0  0  0  0  0  0
   29.8990   14.7373   10.9823 C   0  0  0  0  0  0  0  0  0  0  0  0
   29.3094   11.8633    7.8326 C   0  0  0  0  0  0  0  0  0  0  0  0
   28.5477   11.0134    8.5864 C   0  0  0  0  0  0  0  0  0  0  0  0
   28.9328    9.7178    8.8679 C   0  0  0  0  0  0  0  0  0  0  0  0
   30.2094    9.1224    8.3429 C   0  0  0  0  0  0  0  0  0  0  0  0
   30.9210   10.0510    7.5759 C   0  0  0  0  0  0  0  0  0  0  0  0
   30.5297   11.3983    7.3229 C   0  0  0  0  0  0  0  0  0  0  0  0
   31.3957   12.2789    6.5116 C   0  0  0  0  0  0  0  0  0  0  0  0
   31.1333   13.4234    6.1899 O   0  0  0  0  0  0  0  0  0  0  0  0
   32.6799   11.6768    6.0215 C   0  0  0  0  0  0  0  0  0  0  0  0
   33.5519   12.5056    5.3161 C   0  0  0  0  0  0  0  0  0  0  0  0
   34.7406   11.9992    4.8127 C   0  0  0  0  0  0  0  0  0  0  0  0
   35.0504   10.6636    5.0067 C   0  0  0  0  0  0  0  0  0  0  0  0
   34.1806    9.8397    5.7172 C   0  0  0  0  0  0  0  0  0  0  0  0
   33.0033   10.3563    6.2379 C   0  0  0  0  0  0  0  0  0  0  0  0
   32.1252    9.5000    7.0099 C   0  0  0  0  0  0  0  0  0  0  0  0
   32.3807    8.3221    7.1812 O   0  0  0  0  0  0  0  0  0  0  0  0
  1  2  1  0
  2  3  1  0
  3  4  2  0
  3  5  1  0
  5  6  1  0
  6  7  1  0
  6  8  1  0
  6  9  1  0
  2 10  1  0
 10 11  2  0
 11 12  1  0
 12 13  2  0
 13 14  1  0
 14 15  2  0
 15 16  1  0
 16 17  2  0
 16 18  1  0
 18 19  2  0
 19 20  1  0
 20 21  2  0
 21 22  1  0
 22 23  2  0
 23 24  1  0
 24 25  2  0
 15 10  1  0
 23 18  1  0
 24 14  1  0
A    1
 C1 
A    2
 N1 
A    3
 C2 
A    4
 O1 
A    5
 O2 
A    6
 C3 
A    7
 C4 
A    8
 C5 
A    9
 C6 
A   10
 C7 
A   11
 C8 
A   12
 C9 
A   13
 C10
A   14
 C11
A   15
 C12
A   16
 C13
A   17
 O3 
A   18
 C14
A   19
 C15
A   20
 C16
A   21
 C17
A   22
 C18
A   23
 C19
A   24
 C20
A   25
 O4 
M  END
>  <ref_pdb>  (1538) 
Ax0310a

>  <ref_mols>  (1538) 
Ax0446a,Ax1080a,Ax0812a,Ax0719a,Ax1140a,Ax0528a,Ax0310a

>  <original SMILES>  (1538) 
CN(C(=O)OC(C)(C)C)c1cccc2c1C(=O)c1ccccc1C2=O

>  <rationale>  (1538) 
info info set:bb_whole;hydroph_interaction:P107; 

>  <experiment>  (1538) 
bb_whole

>  <cluster_label>  (1538) 
3

>  <cluster_rank>  (1538) 
1195

>  <N_interactions>  (1538) 
1

>  <∆∆G>  (1538) 
-8.704324

>  <comRMSD>  (1538) 
0.777517

>  <ROCS_TanimotoCombo>  (1538) 
0.411

>  <ROCS_ShapeTanimoto>  (1538) 
0.276

>  <ROCS_ColorTanimoto>  (1538) 
0.135

$$$$
EN300_213808
     RDKit          3D

 11 11  0  0  0  0  0  0  0  0999 V2000
   29.1504   13.2772    8.5927 C   0  0  0  0  0  0  0  0  0  0  0  0
   30.2095   12.7097    7.7707 N   0  0  0  0  0  0  0  0  0  0  0  0
   30.5892   11.3719    8.0076 C   0  0  0  0  0  0  0  0  0  0  0  0
   30.0768   10.4836    8.9747 O   0  0  0  0  0  0  0  0  0  0  0  0
   31.5810   10.7969    7.2181 C   0  0  0  0  0  0  0  0  0  0  0  0
   32.4958   11.5590    6.3890 C   0  0  0  0  0  0  0  0  0  0  0  0
   33.4432   10.8950    5.6416 C   0  0  0  0  0  0  0  0  0  0  0  0
   33.4865    9.5140    5.7113 C   0  0  0  0  0  0  0  0  0  0  0  0
   32.6527    8.7743    6.4723 N   0  0  0  0  0  0  0  0  0  0  0  0
   31.6906    9.4205    7.2355 C   0  0  0  0  0  0  0  0  0  0  0  0
   30.8643    8.6664    7.9922 N   0  0  0  0  0  0  0  0  0  0  0  0
  1  2  1  0
  2  3  1  0
  3  4  2  0
  3  5  1  0
  5  6  2  0
  6  7  1  0
  7  8  2  0
  8  9  1  0
  9 10  2  0
 10 11  1  0
 10  5  1  0
A    1
 C1 
A    2
 N1 
A    3
 C2 
A    4
 O1 
A    5
 C3 
A    6
 C4 
A    7
 C5 
A    8
 C6 
A    9
 N2 
A   10
 C7 
A   11
 N3 
M  END
>  <ref_pdb>  (1539) 
Ax0310a

>  <ref_mols>  (1539) 
Ax0446a,Ax1080a,Ax0812a,Ax0719a,Ax1140a,Ax0528a,Ax0310a

>  <original SMILES>  (1539) 
CNC(=O)c1cccnc1N

>  <rationale>  (1539) 
info info set:bb_densepocket2;hbond:S105; 

>  <experiment>  (1539) 
bb_densepocket2

>  <cluster_label>  (1539) 
3

>  <cluster_rank>  (1539) 
1196

>  <N_interactions>  (1539) 
1

>  <∆∆G>  (1539) 
-3.036924

>  <comRMSD>  (1539) 
0.552394

>  <ROCS_TanimotoCombo>  (1539) 
0.609

>  <ROCS_ShapeTanimoto>  (1539) 
0.216

>  <ROCS_ColorTanimoto>  (1539) 
0.394

$$$$
EN300_7433955
     RDKit          3D

 13 13  0  0  0  0  0  0  0  0999 V2000
   34.4639   15.0450    8.7788 C   0  0  0  0  0  0  0  0  0  0  0  0
   33.1981   13.8411    8.6925 S   0  0  0  0  0  6  0  0  0  0  0  0
   33.8825   12.6985    9.1229 O   0  0  0  0  0  0  0  0  0  0  0  0
   31.9843   14.3530    9.3070 O   0  0  0  0  0  0  0  0  0  0  0  0
   32.9259   13.6278    7.0358 N   0  0  0  0  0  0  0  0  0  0  0  0
   33.7810   12.9214    6.2014 C   0  0  0  0  0  0  0  0  0  0  0  0
   33.3221   11.5618    5.6445 C   0  0  0  0  0  0  0  0  0  0  0  0
   32.2069   10.9366    6.1062 N   0  0  0  0  0  0  0  0  0  0  0  0
   32.3285    9.6965    6.5228 C   0  0  0  0  0  0  0  0  0  0  0  0
   31.3598    9.3479    7.6448 C   0  0  0  0  0  0  0  0  0  0  0  0
   30.8519   10.6575    7.9349 O   0  0  0  0  0  0  0  0  0  0  0  0
   31.2518   11.5335    6.9361 C   0  0  0  0  0  0  0  0  0  0  0  0
   30.8093   12.6611    6.8163 O   0  0  0  0  0  0  0  0  0  0  0  0
  1  2  1  0
  2  3  2  0
  2  4  2  0
  2  5  1  0
  5  6  1  0
  6  7  1  0
  7  8  1  0
  8  9  1  0
  9 10  1  0
 10 11  1  0
 11 12  1  0
 12 13  2  0
 12  8  1  0
A    1
 C1 
A    2
 S1 
A    3
 O1 
A    4
 O2 
A    5
 N1 
A    6
 C2 
A    7
 C3 
A    8
 N2 
A    9
 C4 
A   10
 C5 
A   11
 O3 
A   12
 C6 
A   13
 O4 
M  END
>  <ref_pdb>  (1540) 
Ax0310a

>  <ref_mols>  (1540) 
Ax0446a,Ax1080a,Ax0812a,Ax0719a,Ax1140a,Ax0528a,Ax0310a

>  <original SMILES>  (1540) 
CS(=O)(=O)NCCN1CCOC1=O

>  <rationale>  (1540) 
info info set:sulfonimide_whole;hbond:S87+G127; 

>  <experiment>  (1540) 
sulfonimide_whole

>  <cluster_label>  (1540) 
3

>  <cluster_rank>  (1540) 
1197

>  <N_interactions>  (1540) 
2

>  <∆∆G>  (1540) 
-2.302727

>  <comRMSD>  (1540) 
0.436016

>  <ROCS_TanimotoCombo>  (1540) 
0.332

>  <ROCS_ShapeTanimoto>  (1540) 
0.187

>  <ROCS_ColorTanimoto>  (1540) 
0.145

$$$$
EN300_744889
     RDKit          3D

 15 16  0  0  0  0  0  0  0  0999 V2000
   34.4625   13.2683    4.5563 C   0  0  0  0  0  0  0  0  0  0  0  0
   34.2734   11.7459    4.7038 C   0  0  0  0  0  0  0  0  0  0  0  0
   35.0758   10.9662    3.8810 C   0  0  0  0  0  0  0  0  0  0  0  0
   34.9982    9.5903    3.9176 C   0  0  0  0  0  0  0  0  0  0  0  0
   34.1172    8.9905    4.7747 C   0  0  0  0  0  0  0  0  0  0  0  0
   33.2998    9.7422    5.6133 C   0  0  0  0  0  0  0  0  0  0  0  0
   32.3613    9.3286    6.5298 O   0  0  0  0  0  0  0  0  0  0  0  0
   31.8729   10.5016    7.0464 C   0  0  0  0  0  0  0  0  0  0  0  0
   30.7851   10.3951    8.1020 C   0  0  0  0  0  0  0  0  0  0  0  0
   30.2958   11.5550    8.7955 O   0  0  0  0  0  0  0  0  0  0  0  0
   30.2905    8.9499    8.2277 C   0  0  0  0  0  0  0  0  0  0  0  0
   28.9505    9.5585    8.6781 C   0  0  0  0  0  0  0  0  0  0  0  0
   30.8397    8.1201    9.2841 C   0  0  0  0  0  0  0  0  0  0  0  0
   32.4509   11.5979    6.5110 C   0  0  0  0  0  0  0  0  0  0  0  0
   33.3726   11.1265    5.5821 C   0  0  0  0  0  0  0  0  0  0  0  0
  1  2  1  0
  2  3  2  0
  3  4  1  0
  4  5  2  0
  5  6  1  0
  6  7  1  0
  7  8  1  0
  8  9  1  0
  9 10  2  0
  9 11  1  0
 11 12  1  0
 11 13  1  0
  8 14  2  0
 14 15  1  0
 15  2  1  0
 15  6  2  0
A    1
 C1 
A    2
 C2 
A    3
 C3 
A    4
 C4 
A    5
 C5 
A    6
 C6 
A    7
 O1 
A    8
 C7 
A    9
 C8 
A   10
 O2 
A   11
 C9 
A   12
 C10
A   13
 C11
A   14
 C12
A   15
 C13
M  END
>  <ref_pdb>  (1541) 
Ax0310a

>  <ref_mols>  (1541) 
Ax0446a,Ax1080a,Ax0812a,Ax0719a,Ax1140a,Ax0528a,Ax0310a

>  <original SMILES>  (1541) 
Cc1cccc2oc(C(=O)C(C)C)cc12

>  <rationale>  (1541) 
info info set:bb_densepocket2;hbond:S125; hydroph_interaction:V124; 

>  <experiment>  (1541) 
bb_densepocket2

>  <cluster_label>  (1541) 
3

>  <cluster_rank>  (1541) 
1198

>  <N_interactions>  (1541) 
2

>  <∆∆G>  (1541) 
-5.546837

>  <comRMSD>  (1541) 
0.69067

>  <ROCS_TanimotoCombo>  (1541) 
0.607

>  <ROCS_ShapeTanimoto>  (1541) 
0.239

>  <ROCS_ColorTanimoto>  (1541) 
0.368

$$$$
EN300_26664898
     RDKit          3D

 19 19  0  0  0  0  0  0  0  0999 V2000
   34.1381    9.5567    4.9761 C   0  0  0  0  0  0  0  0  0  0  0  0
   33.0625    9.9228    5.8806 N   0  0  0  0  0  0  0  0  0  0  0  0
   32.5456    9.0029    6.5828 N   0  0  0  0  0  0  0  0  0  0  0  0
   31.6232    9.6117    7.3032 C   0  0  0  0  0  0  0  0  0  0  0  0
   30.8619    8.8089    8.2231 O   0  0  0  0  0  0  0  0  0  0  0  0
   31.5653   11.0995    6.9914 C   0  0  0  0  0  0  0  0  0  0  0  0
   30.7864   12.1212    7.4730 N   0  0  0  0  0  0  0  0  0  0  0  0
   30.0147   11.7598    8.4834 C   0  0  0  0  0  0  0  0  0  0  0  0
   30.0679   10.6205    8.9122 O   0  0  0  0  0  0  0  0  0  0  0  0
   29.1742   12.7652    8.9695 O   0  0  0  0  0  0  0  0  0  0  0  0
   29.5027   14.0901    9.5440 C   0  0  0  0  0  0  0  0  0  0  0  0
   28.5784   15.1095    8.7905 C   0  0  0  0  0  0  0  0  0  0  0  0
   31.0030   14.4041    9.5096 C   0  0  0  0  0  0  0  0  0  0  0  0
   29.0282   14.2329   11.0205 C   0  0  0  0  0  0  0  0  0  0  0  0
   32.5404   11.1922    6.0573 C   0  0  0  0  0  0  0  0  0  0  0  0
   33.0392   12.4128    5.2940 C   0  0  0  0  0  0  0  0  0  0  0  0
   34.3317   12.6976    5.5752 F   0  0  0  0  0  0  0  0  0  0  0  0
   32.9419   12.2676    3.9533 F   0  0  0  0  0  0  0  0  0  0  0  0
   32.3062   13.5039    5.6292 F   0  0  0  0  0  0  0  0  0  0  0  0
  1  2  1  0
  2  3  1  0
  3  4  2  0
  4  5  1  0
  4  6  1  0
  6  7  1  0
  7  8  1  0
  8  9  2  0
  8 10  1  0
 10 11  1  0
 11 12  1  0
 11 13  1  0
 11 14  1  0
  6 15  2  0
 15 16  1  0
 16 17  1  0
 16 18  1  0
 16 19  1  0
 15  2  1  0
A    1
 C1 
A    2
 N1 
A    3
 N2 
A    4
 C2 
A    5
 O1 
A    6
 C3 
A    7
 N3 
A    8
 C4 
A    9
 O2 
A   10
 O3 
A   11
 C5 
A   12
 C6 
A   13
 C7 
A   14
 C8 
A   15
 C9 
A   16
 C10
A   17
 F1 
A   18
 F2 
A   19
 F3 
M  END
>  <ref_pdb>  (1542) 
Ax0310a

>  <ref_mols>  (1542) 
Ax0446a,Ax1080a,Ax0812a,Ax0719a,Ax1140a,Ax0528a,Ax0310a

>  <original SMILES>  (1542) 
Cn1nc(O)c(NC(=O)OC(C)(C)C)c1C(F)(F)F

>  <rationale>  (1542) 
info info set:bb_densepocket2;hbond:S105; 

>  <experiment>  (1542) 
bb_densepocket2

>  <cluster_label>  (1542) 
3

>  <cluster_rank>  (1542) 
1199

>  <N_interactions>  (1542) 
1

>  <∆∆G>  (1542) 
-4.500275

>  <comRMSD>  (1542) 
0.798295

>  <ROCS_TanimotoCombo>  (1542) 
0.607

>  <ROCS_ShapeTanimoto>  (1542) 
0.246

>  <ROCS_ColorTanimoto>  (1542) 
0.361

$$$$
EN300_33051743
     RDKit          3D

 11 11  0  0  0  0  0  0  0  0999 V2000
   29.0760   12.7355    8.5417 N   0  0  0  0  0  0  0  0  0  0  0  0
   30.3898   13.4671    7.8125 S   0  0  0  0  0  6  0  0  0  0  0  0
   29.9103   13.6855    6.4663 O   0  0  0  0  0  0  0  0  0  0  0  0
   30.8060   14.4974    8.7350 O   0  0  0  0  0  0  0  0  0  0  0  0
   31.6550   12.2505    7.7827 C   0  0  2  0  0  0  0  0  0  0  0  0
   32.7795   12.5775    6.8436 C   0  0  0  0  0  0  0  0  0  0  0  0
   33.0440   11.8982    5.6490 C   0  0  0  0  0  0  0  0  0  0  0  0
   33.2525   10.5231    5.7483 C   0  0  0  0  0  0  0  0  0  0  0  0
   32.2620    9.7257    6.3013 C   0  0  0  0  0  0  0  0  0  0  0  0
   31.9852    9.8406    7.5224 N   0  0  0  0  0  0  0  0  0  0  0  0
   31.1308   10.9517    7.8645 C   0  0  0  0  0  0  0  0  0  0  0  0
  1  2  1  0
  2  3  2  0
  2  4  2  0
  5  2  1  6
  5  6  1  0
  6  7  1  0
  7  8  1  0
  8  9  1  0
  9 10  1  0
 10 11  1  0
 11  5  1  0
A    1
 N1 
A    2
 S1 
A    3
 O1 
A    4
 O2 
A    5
 C1 
A    6
 C2 
A    7
 C3 
A    8
 C4 
A    9
 C5 
A   10
 N2 
A   11
 C6 
M  END
>  <ref_pdb>  (1543) 
Ax0310a

>  <ref_mols>  (1543) 
Ax0446a,Ax1080a,Ax0812a,Ax0719a,Ax1140a,Ax0528a,Ax0310a

>  <original SMILES>  (1543) 
NS(=O)(=O)[C@@H]1CCCCNC1

>  <rationale>  (1543) 
info info set:sulfonimide_whole;hbond:S87+S125; 

>  <experiment>  (1543) 
sulfonimide_whole

>  <cluster_label>  (1543) 
3

>  <cluster_rank>  (1543) 
1200

>  <N_interactions>  (1543) 
2

>  <∆∆G>  (1543) 
-0.850326

>  <comRMSD>  (1543) 
0.845501

>  <ROCS_TanimotoCombo>  (1543) 
0.328

>  <ROCS_ShapeTanimoto>  (1543) 
0.165

>  <ROCS_ColorTanimoto>  (1543) 
0.163

$$$$
EN300_2485234
     RDKit          3D

 10 10  0  0  0  0  0  0  0  0999 V2000
   29.4460    8.1301    8.4817 C   0  0  0  0  0  0  0  0  0  0  0  0
   30.5457    8.8139    9.1694 C   0  0  0  0  0  0  0  0  0  0  0  0
   30.8160   10.1049    8.4107 C   0  0  0  0  0  0  0  0  0  0  0  0
   30.3285   11.2005    8.6480 O   0  0  0  0  0  0  0  0  0  0  0  0
   31.7614   10.1117    7.2521 C   0  0  0  0  0  0  0  0  0  0  0  0
   32.1984   11.4233    6.5150 C   0  0  0  0  0  0  0  0  0  0  0  0
   33.1167   10.6559    5.5068 C   0  0  0  0  0  0  0  0  0  0  0  0
   33.9331   11.2798    4.4027 C   0  0  0  0  0  0  0  0  0  0  0  0
   33.1193    9.3213    5.7112 O   0  0  0  0  0  0  0  0  0  0  0  0
   32.3006    8.9917    6.7707 N   0  0  0  0  0  0  0  0  0  0  0  0
  1  2  1  0
  2  3  1  0
  3  4  2  0
  3  5  1  0
  5  6  1  0
  6  7  2  0
  7  8  1  0
  7  9  1  0
  9 10  1  0
 10  5  2  0
A    1
 C1 
A    2
 C2 
A    3
 C3 
A    4
 O1 
A    5
 C4 
A    6
 C5 
A    7
 C6 
A    8
 C7 
A    9
 O2 
A   10
 N1 
M  END
>  <ref_pdb>  (1544) 
Ax0310a

>  <ref_mols>  (1544) 
Ax0446a,Ax1080a,Ax0812a,Ax0719a,Ax1140a,Ax0528a,Ax0310a

>  <original SMILES>  (1544) 
CCC(=O)c1cc(C)on1

>  <rationale>  (1544) 
info info set:bb_densepocket2;hydroph_interaction:P107+V124+D109; 

>  <experiment>  (1544) 
bb_densepocket2

>  <cluster_label>  (1544) 
3

>  <cluster_rank>  (1544) 
1201

>  <N_interactions>  (1544) 
3

>  <∆∆G>  (1544) 
-1.50324

>  <comRMSD>  (1544) 
0.483399

>  <ROCS_TanimotoCombo>  (1544) 
0.607

>  <ROCS_ShapeTanimoto>  (1544) 
0.184

>  <ROCS_ColorTanimoto>  (1544) 
0.423

$$$$
Z2311273895
     RDKit          3D

 14 15  0  0  0  0  0  0  0  0999 V2000
   28.9104   12.6162    8.1797 C   0  0  0  0  0  0  0  0  0  0  0  0
   29.6122   13.8480    7.7026 C   0  0  0  0  0  0  0  0  0  0  0  0
   28.8294   15.0888    8.1054 C   0  0  0  0  0  0  0  0  0  0  0  0
   31.0001   13.7963    8.2146 N   0  0  0  0  0  0  0  0  0  0  0  0
   31.4171   14.6322    9.2477 N   0  0  0  0  0  0  0  0  0  0  0  0
   32.7184   14.3530    9.4533 C   0  0  0  0  0  0  0  0  0  0  0  0
   33.1980   13.2706    8.5143 C   0  0  0  0  0  0  0  0  0  0  0  0
   31.9704   12.9492    7.7273 C   0  0  0  0  0  0  0  0  0  0  0  0
   31.8849   11.8940    6.6308 C   0  0  2  0  0  0  0  0  0  0  0  0
   30.8181   11.2576    6.7550 O   0  0  0  0  0  0  0  0  0  0  0  0
   31.0919   10.0715    7.5303 C   0  0  0  0  0  0  0  0  0  0  0  0
   32.1796    9.6941    6.8145 C   0  0  0  0  0  0  0  0  0  0  0  0
   32.9744   10.7996    6.5932 C   0  0  1  0  0  0  0  0  0  0  0  0
   33.7062   10.6860    5.4939 N   0  0  0  0  0  0  0  0  0  0  0  0
  1  2  1  0
  2  3  1  0
  2  4  1  0
  4  5  1  0
  5  6  2  0
  6  7  1  0
  7  8  2  0
  9  8  1  1
  9 10  1  0
 10 11  1  0
 11 12  1  0
 12 13  1  0
 13 14  1  6
  8  4  1  0
 13  9  1  0
A    1
 C1 
A    2
 C2 
A    3
 C3 
A    4
 N1 
A    5
 N2 
A    6
 C4 
A    7
 C5 
A    8
 C6 
A    9
 C7 
A   10
 O1 
A   11
 C8 
A   12
 C9 
A   13
 C10
A   14
 N3 
M  END
>  <ref_pdb>  (1545) 
Ax0310a

>  <ref_mols>  (1545) 
Ax0446a,Ax1080a,Ax0812a,Ax0719a,Ax1140a,Ax0528a,Ax0310a

>  <original SMILES>  (1545) 
CC(C)n1nccc1[C@@H]1OCC[C@H]1N

>  <rationale>  (1545) 
info info set:3d;hbond:S87; 

>  <experiment>  (1545) 
3d

>  <cluster_label>  (1545) 
3

>  <cluster_rank>  (1545) 
1202

>  <N_interactions>  (1545) 
1

>  <∆∆G>  (1545) 
-4.266837

>  <comRMSD>  (1545) 
0.767933

>  <ROCS_TanimotoCombo>  (1545) 
0.3

>  <ROCS_ShapeTanimoto>  (1545) 
0.187

>  <ROCS_ColorTanimoto>  (1545) 
0.114

$$$$
EN300_703233
     RDKit          3D

 15 15  0  0  0  0  0  0  0  0999 V2000
   28.0860   13.4425    8.0130 C   0  0  0  0  0  0  0  0  0  0  0  0
   29.3423   13.8027    7.2929 C   0  0  0  0  0  0  0  0  0  0  0  0
   29.9563   12.5938    6.8347 O   0  0  0  0  0  0  0  0  0  0  0  0
   30.9938   12.2204    7.6217 C   0  0  0  0  0  0  0  0  0  0  0  0
   31.2948   12.8356    8.6366 O   0  0  0  0  0  0  0  0  0  0  0  0
   31.7123   10.9915    7.0864 C   0  0  0  0  0  0  0  0  0  0  0  0
   32.6786   10.7392    5.8849 C   0  0  0  0  0  0  0  0  0  0  0  0
   32.6979   12.2181    5.3401 C   0  0  0  0  0  0  0  0  0  0  0  0
   33.1293   12.2527    4.0470 F   0  0  0  0  0  0  0  0  0  0  0  0
   33.5713   12.9809    6.0450 F   0  0  0  0  0  0  0  0  0  0  0  0
   33.1437    9.4714    5.7111 C   0  0  0  0  0  0  0  0  0  0  0  0
   32.5956    8.6515    6.7444 O   0  0  0  0  0  0  0  0  0  0  0  0
   31.8148    9.4709    7.5093 C   0  0  0  0  0  0  0  0  0  0  0  0
   31.1265    8.9633    8.7092 C   0  0  0  0  0  0  0  0  0  0  0  0
   29.5319    8.0721    8.5192 Br  0  0  0  0  0  0  0  0  0  0  0  0
  1  2  1  0
  2  3  1  0
  3  4  1  0
  4  5  2  0
  4  6  1  0
  6  7  1  0
  7  8  1  0
  8  9  1  0
  8 10  1  0
  7 11  2  0
 11 12  1  0
 12 13  1  0
 13 14  1  0
 14 15  1  0
 13  6  2  0
A    1
 C1 
A    2
 C2 
A    3
 O1 
A    4
 C3 
A    5
 O2 
A    6
 C4 
A    7
 C5 
A    8
 C6 
A    9
 F1 
A   10
 F2 
A   11
 C7 
A   12
 O3 
A   13
 C8 
A   14
 C9 
A   15
BR1 
M  END
>  <ref_pdb>  (1546) 
Ax0310a

>  <ref_mols>  (1546) 
Ax0446a,Ax1080a,Ax0812a,Ax0719a,Ax1140a,Ax0528a,Ax0310a

>  <original SMILES>  (1546) 
CCOC(=O)c1c(C(F)F)coc1CBr

>  <rationale>  (1546) 
info info set:bb_densepocket2;hbond:G127; hydroph_interaction:P107; 

>  <experiment>  (1546) 
bb_densepocket2

>  <cluster_label>  (1546) 
3

>  <cluster_rank>  (1546) 
1203

>  <N_interactions>  (1546) 
2

>  <∆∆G>  (1546) 
-0.468402

>  <comRMSD>  (1546) 
0.741778

>  <ROCS_TanimotoCombo>  (1546) 
0.615

>  <ROCS_ShapeTanimoto>  (1546) 
0.234

>  <ROCS_ColorTanimoto>  (1546) 
0.381

$$$$
EN300_377748
     RDKit          3D

 15 16  0  0  0  0  0  0  0  0999 V2000
   35.3264   12.0375    4.7687 C   0  0  0  0  0  0  0  0  0  0  0  0
   34.2433   11.3225    4.2053 O   0  0  0  0  0  0  0  0  0  0  0  0
   33.3659   10.8908    5.2229 C   0  0  0  0  0  0  0  0  0  0  0  0
   32.4310   11.9454    5.7497 C   0  0  0  0  0  0  0  0  0  0  0  0
   31.5335   11.4274    6.8119 C   0  0  0  0  0  0  0  0  0  0  0  0
   30.6401   12.3557    7.3369 N   0  0  0  0  0  0  0  0  0  0  0  0
   29.8700   12.0144    8.3617 C   0  0  0  0  0  0  0  0  0  0  0  0
   29.9789   10.8662    8.7970 O   0  0  0  0  0  0  0  0  0  0  0  0
   28.8977   13.1131    8.8932 C   0  0  0  0  0  0  0  0  0  0  0  0
   29.5009   14.0220    9.7154 C   0  0  0  0  0  0  0  0  0  0  0  0
   28.8139   14.4198    8.3145 C   0  0  0  0  0  0  0  0  0  0  0  0
   31.6664    9.9179    7.2346 C   0  0  0  0  0  0  0  0  0  0  0  0
   32.5799    9.0978    6.6516 N   0  0  0  0  0  0  0  0  0  0  0  0
   33.3938    9.5792    5.6836 C   0  0  0  0  0  0  0  0  0  0  0  0
   34.3402    8.7276    5.0913 N   0  0  0  0  0  0  0  0  0  0  0  0
  1  2  1  0
  2  3  1  0
  3  4  2  0
  4  5  1  0
  5  6  1  0
  6  7  1  0
  7  8  2  0
  7  9  1  0
  9 10  1  0
 10 11  1  0
  5 12  2  0
 12 13  1  0
 13 14  2  0
 14 15  1  0
 14  3  1  0
 11  9  1  0
A    1
 C1 
A    2
 O1 
A    3
 C2 
A    4
 C3 
A    5
 C4 
A    6
 N1 
A    7
 C5 
A    8
 O2 
A    9
 C6 
A   10
 C7 
A   11
 C8 
A   12
 C9 
A   13
 N2 
A   14
 C10
A   15
 N3 
M  END
>  <ref_pdb>  (1547) 
Ax0310a

>  <ref_mols>  (1547) 
Ax0446a,Ax1080a,Ax0812a,Ax0719a,Ax1140a,Ax0528a,Ax0310a

>  <original SMILES>  (1547) 
COc1cc(NC(=O)C2CC2)cnc1N

>  <rationale>  (1547) 
info info set:bb_densepocket2;hbond:S105; hydroph_interaction:P107; 

>  <experiment>  (1547) 
bb_densepocket2

>  <cluster_label>  (1547) 
3

>  <cluster_rank>  (1547) 
1204

>  <N_interactions>  (1547) 
2

>  <∆∆G>  (1547) 
-2.70952

>  <comRMSD>  (1547) 
0.974583

>  <ROCS_TanimotoCombo>  (1547) 
0.611

>  <ROCS_ShapeTanimoto>  (1547) 
0.225

>  <ROCS_ColorTanimoto>  (1547) 
0.386

$$$$
EN300_212468
     RDKit          3D

 16 16  0  0  0  0  0  0  0  0999 V2000
   35.1438   11.3113    5.3976 N   0  0  0  0  0  0  0  0  0  0  0  0
   33.7038   12.1782    5.4786 S   0  0  0  0  0  6  0  0  0  0  0  0
   33.2188   12.1011    4.1172 O   0  0  0  0  0  0  0  0  0  0  0  0
   34.0363   13.4490    6.0790 O   0  0  0  0  0  0  0  0  0  0  0  0
   32.6430   11.2375    6.5341 C   0  0  0  0  0  0  0  0  0  0  0  0
   32.6581    9.7775    6.2800 C   0  0  0  0  0  0  0  0  0  0  0  0
   33.4241    9.2578    5.3258 F   0  0  0  0  0  0  0  0  0  0  0  0
   31.7933    8.8752    7.1160 C   0  0  0  0  0  0  0  0  0  0  0  0
   30.9818    9.4094    8.0840 C   0  0  0  0  0  0  0  0  0  0  0  0
   30.9932   10.7674    8.2805 C   0  0  0  0  0  0  0  0  0  0  0  0
   31.7888   11.6726    7.5656 C   0  0  0  0  0  0  0  0  0  0  0  0
   31.6084   12.9455    7.9887 O   0  0  0  0  0  0  0  0  0  0  0  0
   32.7353   13.6727    8.4303 C   0  0  0  0  0  0  0  0  0  0  0  0
   33.3686   14.0447    7.3186 F   0  0  0  0  0  0  0  0  0  0  0  0
   33.6595   13.0642    9.1417 F   0  0  0  0  0  0  0  0  0  0  0  0
   32.2731   14.6698    9.2189 F   0  0  0  0  0  0  0  0  0  0  0  0
  1  2  1  0
  2  3  2  0
  2  4  2  0
  2  5  1  0
  5  6  2  0
  6  7  1  0
  6  8  1  0
  8  9  2  0
  9 10  1  0
 10 11  2  0
 11 12  1  0
 12 13  1  0
 13 14  1  0
 13 15  1  0
 13 16  1  0
 11  5  1  0
A    1
 N1 
A    2
 S1 
A    3
 O1 
A    4
 O2 
A    5
 C1 
A    6
 C2 
A    7
 F1 
A    8
 C3 
A    9
 C4 
A   10
 C5 
A   11
 C6 
A   12
 O3 
A   13
 C7 
A   14
 F2 
A   15
 F3 
A   16
 F4 
M  END
>  <ref_pdb>  (1548) 
Ax0310a

>  <ref_mols>  (1548) 
Ax0446a,Ax1080a,Ax0812a,Ax0719a,Ax1140a,Ax0528a,Ax0310a

>  <original SMILES>  (1548) 
NS(=O)(=O)c1c(F)cccc1OC(F)(F)F

>  <rationale>  (1548) 
info info set:sulfonimide_whole;hbond:G127; 

>  <experiment>  (1548) 
sulfonimide_whole

>  <cluster_label>  (1548) 
3

>  <cluster_rank>  (1548) 
1205

>  <N_interactions>  (1548) 
2

>  <∆∆G>  (1548) 
-1.129533

>  <comRMSD>  (1548) 
0.964578

>  <ROCS_TanimotoCombo>  (1548) 
0.298

>  <ROCS_ShapeTanimoto>  (1548) 
0.17

>  <ROCS_ColorTanimoto>  (1548) 
0.129

$$$$
Z1815673619
     RDKit          3D

 25 27  0  0  0  0  0  0  0  0999 V2000
   36.2760    8.1190    3.5598 C   0  0  0  0  0  0  0  0  0  0  0  0
   35.3798    9.1891    4.0120 C   0  0  2  0  0  0  0  0  0  0  0  0
   34.5112    8.6679    5.0584 N   0  0  0  0  0  0  0  0  0  0  0  0
   33.5839    9.4154    5.7669 C   0  0  0  0  0  0  0  0  0  0  0  0
   33.6284   10.8708    5.6771 C   0  0  0  0  0  0  0  0  0  0  0  0
   32.6446   11.5848    6.4596 C   0  0  0  0  0  0  0  0  0  0  0  0
   31.6899   10.7961    7.2707 C   0  0  0  0  0  0  0  0  0  0  0  0
   30.6409   11.4238    8.1154 C   0  0  0  0  0  0  0  0  0  0  0  0
   30.1243   10.6562    8.8865 O   0  0  0  0  0  0  0  0  0  0  0  0
   30.3433   12.7652    7.9324 N   0  0  0  0  0  0  0  0  0  0  0  0
   30.0498   13.0876    6.5425 C   0  0  0  0  0  0  0  0  0  0  0  0
   28.8579   13.6561    6.3141 C   0  0  0  0  0  0  0  0  0  0  0  0
   28.2948   14.7188    7.6192 S   0  0  0  0  0  6  0  0  0  0  0  0
   28.8931   16.0195    7.5347 O   0  0  0  0  0  0  0  0  0  0  0  0
   26.9006   14.6228    7.5470 O   0  0  0  0  0  0  0  0  0  0  0  0
   28.8215   13.9864    9.1295 C   0  0  0  0  0  0  0  0  0  0  0  0
   30.1220   13.7739    8.9795 C   0  0  0  0  0  0  0  0  0  0  0  0
   31.7662    9.4380    7.2501 C   0  0  0  0  0  0  0  0  0  0  0  0
   32.6764    8.7701    6.5281 N   0  0  0  0  0  0  0  0  0  0  0  0
   34.5585    9.6797    2.8453 C   0  0  0  0  0  0  0  0  0  0  0  0
   34.5841   11.0392    2.4931 C   0  0  0  0  0  0  0  0  0  0  0  0
   33.7780   11.5903    1.3205 C   0  0  0  0  0  0  0  0  0  0  0  0
   32.9428   10.6032    0.5505 C   0  0  0  0  0  0  0  0  0  0  0  0
   32.9279    9.1299    0.9484 C   0  0  0  0  0  0  0  0  0  0  0  0
   33.7901    8.7477    2.1395 C   0  0  0  0  0  0  0  0  0  0  0  0
  2  1  1  6
  2  3  1  0
  3  4  1  0
  4  5  2  0
  5  6  1  0
  6  7  2  0
  7  8  1  0
  8  9  2  0
  8 10  1  0
 10 11  1  0
 11 12  1  0
 12 13  1  0
 13 14  2  0
 13 15  2  0
 13 16  1  0
 16 17  1  0
  7 18  1  0
 18 19  2  0
  2 20  1  0
 20 21  2  0
 21 22  1  0
 22 23  2  0
 23 24  1  0
 24 25  2  0
 19  4  1  0
 25 20  1  0
 17 10  1  0
A    1
 C1 
A    2
 C2 
A    3
 N1 
A    4
 C3 
A    5
 C4 
A    6
 C5 
A    7
 C6 
A    8
 C7 
A    9
 O1 
A   10
 N2 
A   11
 C8 
A   12
 C9 
A   13
 S1 
A   14
 O2 
A   15
 O3 
A   16
 C10
A   17
 C11
A   18
 C12
A   19
 N3 
A   20
 C13
A   21
 C14
A   22
 C15
A   23
 C16
A   24
 C17
A   25
 C18
M  END
>  <ref_pdb>  (1549) 
Ax0310a

>  <ref_mols>  (1549) 
Ax0446a,Ax1080a,Ax0812a,Ax0719a,Ax1140a,Ax0528a,Ax0310a

>  <original SMILES>  (1549) 
C[C@H](Nc1ccc(C(=O)N2CCS(=O)(=O)CC2)cn1)c1ccccc1

>  <rationale>  (1549) 
info info set:screening_pocket;hbond:S105; 

>  <experiment>  (1549) 
screening_pocket

>  <cluster_label>  (1549) 
3

>  <cluster_rank>  (1549) 
1206

>  <N_interactions>  (1549) 
1

>  <∆∆G>  (1549) 
-5.37013

>  <comRMSD>  (1549) 
0.443582

>  <ROCS_TanimotoCombo>  (1549) 
0.628

>  <ROCS_ShapeTanimoto>  (1549) 
0.244

>  <ROCS_ColorTanimoto>  (1549) 
0.384

$$$$
EN300_33048177
     RDKit          3D

 11 11  0  0  0  0  0  0  0  0999 V2000
   34.5774    9.3131    4.1882 C   0  0  0  0  0  0  0  0  0  0  0  0
   34.0064    8.9002    5.4453 N   0  0  0  0  0  0  0  0  0  0  0  0
   33.0607    9.6600    6.0321 C   0  0  0  0  0  0  0  0  0  0  0  0
   32.8477   11.0904    5.7110 C   0  0  0  0  0  0  0  0  0  0  0  0
   31.7292   11.5397    6.5688 C   0  0  0  0  0  0  0  0  0  0  0  0
   31.3368   10.4692    7.3112 N   0  0  0  0  0  0  0  0  0  0  0  0
   30.3111   10.5505    8.2083 C   0  0  0  0  0  0  0  0  0  0  0  0
   29.4379    9.3488    8.4336 C   0  0  0  0  0  0  0  0  0  0  0  0
   30.3024    8.2525    8.2619 C   0  0  0  0  0  0  0  0  0  0  0  0
   29.0765    8.9560    9.7958 C   0  0  0  0  0  0  0  0  0  0  0  0
   32.1212    9.3326    7.0082 N   0  0  0  0  0  0  0  0  0  0  0  0
  1  2  1  0
  2  3  1  0
  3  4  1  0
  4  5  2  0
  5  6  1  0
  6  7  1  0
  7  8  1  0
  8  9  1  0
  8 10  1  0
  6 11  1  0
 11  3  2  0
A    1
 C1 
A    2
 N1 
A    3
 C2 
A    4
 C3 
A    5
 C4 
A    6
 N2 
A    7
 C5 
A    8
 C6 
A    9
 C7 
A   10
 C8 
A   11
 N3 
M  END
>  <ref_pdb>  (1550) 
Ax0310a

>  <ref_mols>  (1550) 
Ax0446a,Ax1080a,Ax0812a,Ax0719a,Ax1140a,Ax0528a,Ax0310a

>  <original SMILES>  (1550) 
CNc1ccn(CC(C)C)n1

>  <rationale>  (1550) 
info info set:bb_densepocket2;hbond:S105; hydroph_interaction:P107+V124; 

>  <experiment>  (1550) 
bb_densepocket2

>  <cluster_label>  (1550) 
3

>  <cluster_rank>  (1550) 
1207

>  <N_interactions>  (1550) 
3

>  <∆∆G>  (1550) 
-4.091224

>  <comRMSD>  (1550) 
0.790952

>  <ROCS_TanimotoCombo>  (1550) 
0.608

>  <ROCS_ShapeTanimoto>  (1550) 
0.19

>  <ROCS_ColorTanimoto>  (1550) 
0.418

$$$$
Z1881598569
     RDKit          3D

 15 16  0  0  0  0  0  0  0  0999 V2000
   31.5607   14.2102    8.4882 O   0  0  0  0  0  0  0  0  0  0  0  0
   31.9903   13.4683    7.6017 C   0  0  0  0  0  0  0  0  0  0  0  0
   33.4590   13.4604    7.1701 C   0  0  0  0  0  0  0  0  0  0  0  0
   33.4846   12.3038    6.1847 C   0  0  0  0  0  0  0  0  0  0  0  0
   32.5983   11.2589    6.7380 C   0  0  0  0  0  0  0  0  0  0  0  0
   32.9194    9.7976    6.5704 C   0  0  0  0  0  0  0  0  0  0  0  0
   32.0303    8.7367    7.1870 C   0  0  0  0  0  0  0  0  0  0  0  0
   30.8102    9.0535    7.9643 C   0  0  0  0  0  0  0  0  0  0  0  0
   30.4393   10.4955    8.1441 C   0  0  0  0  0  0  0  0  0  0  0  0
   31.3026   11.5368    7.5477 C   0  0  0  0  0  0  0  0  0  0  0  0
   34.2568   13.5962    8.3177 C   0  0  0  0  0  0  0  0  0  0  0  0
   35.6815   14.0471    8.0325 C   0  0  0  0  0  0  0  0  0  0  0  0
   36.1459   13.6610    6.7222 N   0  0  0  0  0  0  0  0  0  0  0  0
   35.2466   14.1335    5.6715 C   0  0  0  0  0  0  0  0  0  0  0  0
   34.0485   14.5480    6.2297 C   0  0  0  0  0  0  0  0  0  0  0  0
  1  2  1  0
  2  3  1  0
  3  4  1  0
  4  5  1  0
  5  6  2  0
  6  7  1  0
  7  8  2  0
  8  9  1  0
  9 10  2  0
  3 11  1  0
 11 12  1  0
 12 13  1  0
 13 14  1  0
 14 15  1  0
 15  3  1  0
 10  5  1  0
A    1
 O1 
A    2
 C1 
A    3
 C2 
A    4
 C3 
A    5
 C4 
A    6
 C5 
A    7
 C6 
A    8
 C7 
A    9
 C8 
A   10
 C9 
A   11
 C10
A   12
 C11
A   13
 N1 
A   14
 C12
A   15
 C13
M  END
>  <ref_pdb>  (1551) 
Ax0310a

>  <ref_mols>  (1551) 
Ax0446a,Ax1080a,Ax0812a,Ax0719a,Ax1140a,Ax0528a,Ax0310a

>  <original SMILES>  (1551) 
OCC1(Cc2ccccc2)CCNCC1

>  <rationale>  (1551) 
info info set:3d;hbond:S87+G127; hydroph_interaction:V84; 

>  <experiment>  (1551) 
3d

>  <cluster_label>  (1551) 
3

>  <cluster_rank>  (1551) 
1208

>  <N_interactions>  (1551) 
3

>  <∆∆G>  (1551) 
-0.58016

>  <comRMSD>  (1551) 
0.914808

>  <ROCS_TanimotoCombo>  (1551) 
0.292

>  <ROCS_ShapeTanimoto>  (1551) 
0.18

>  <ROCS_ColorTanimoto>  (1551) 
0.111

$$$$
EN300_86436
     RDKit          3D

 15 16  0  0  0  0  0  0  0  0999 V2000
   28.3224   13.6463    8.9002 C   0  0  0  0  0  0  0  0  0  0  0  0
   29.7558   13.5800    8.5333 C   0  0  0  0  0  0  0  0  0  0  0  0
   29.9577   12.5662    7.5444 O   0  0  0  0  0  0  0  0  0  0  0  0
   30.4158   11.3617    7.9911 C   0  0  0  0  0  0  0  0  0  0  0  0
   30.0316   10.7248    8.9122 O   0  0  0  0  0  0  0  0  0  0  0  0
   31.5301   10.8221    7.1196 C   0  0  0  0  0  0  0  0  0  0  0  0
   32.4030   11.6423    6.2457 C   0  0  0  0  0  0  0  0  0  0  0  0
   33.4498   10.9252    5.4287 C   0  0  0  0  0  0  0  0  0  0  0  0
   33.4974    9.5311    5.5723 C   0  0  0  0  0  0  0  0  0  0  0  0
   32.6504    8.8481    6.4221 N   0  0  0  0  0  0  0  0  0  0  0  0
   31.7132    9.4612    7.1612 C   0  0  0  0  0  0  0  0  0  0  0  0
   30.8981    8.6615    7.9839 N   0  0  0  0  0  0  0  0  0  0  0  0
   34.5745    8.9569    4.6731 C   0  0  0  0  0  0  0  0  0  0  0  0
   35.1148   10.2845    4.0985 C   0  0  0  0  0  0  0  0  0  0  0  0
   34.3937   11.3800    4.5408 C   0  0  0  0  0  0  0  0  0  0  0  0
  1  2  1  0
  2  3  1  0
  3  4  1  0
  4  5  2  0
  4  6  1  0
  6  7  2  0
  7  8  1  0
  8  9  2  0
  9 10  1  0
 10 11  2  0
 11 12  1  0
  9 13  1  0
 13 14  1  0
 14 15  1  0
 11  6  1  0
 15  8  1  0
A    1
 C1 
A    2
 C2 
A    3
 O1 
A    4
 C3 
A    5
 O2 
A    6
 C4 
A    7
 C5 
A    8
 C6 
A    9
 C7 
A   10
 N1 
A   11
 C8 
A   12
 N2 
A   13
 C9 
A   14
 C10
A   15
 C11
M  END
>  <ref_pdb>  (1552) 
Ax0310a

>  <ref_mols>  (1552) 
Ax0446a,Ax1080a,Ax0812a,Ax0719a,Ax1140a,Ax0528a,Ax0310a

>  <original SMILES>  (1552) 
CCOC(=O)c1cc2c(nc1N)CCC2

>  <rationale>  (1552) 
info info set:bb_densepocket2;hbond:S105; hydroph_interaction:P107; 

>  <experiment>  (1552) 
bb_densepocket2

>  <cluster_label>  (1552) 
3

>  <cluster_rank>  (1552) 
1209

>  <N_interactions>  (1552) 
2

>  <∆∆G>  (1552) 
-3.220512

>  <comRMSD>  (1552) 
0.547071

>  <ROCS_TanimotoCombo>  (1552) 
0.608

>  <ROCS_ShapeTanimoto>  (1552) 
0.27

>  <ROCS_ColorTanimoto>  (1552) 
0.338

$$$$
EN300_366585
     RDKit          3D

 11 11  0  0  0  0  0  0  0  0999 V2000
   34.4794   14.5066    7.5077 C   0  0  0  0  0  0  0  0  0  0  0  0
   33.0883   13.7441    8.3197 S   0  0  0  0  0  6  0  0  0  0  0  0
   33.6078   12.5543    8.8316 O   0  0  0  0  0  0  0  0  0  0  0  0
   32.3404   14.6462    9.1732 O   0  0  0  0  0  0  0  0  0  0  0  0
   32.1484   13.3191    7.0076 N   0  0  0  0  0  0  0  0  0  0  0  0
   32.5975   12.2302    6.1393 C   0  0  0  0  0  0  0  0  0  0  0  0
   32.1375   10.9385    6.7452 C   0  0  0  0  0  0  0  0  0  0  0  0
   32.6255    9.6033    6.4459 C   0  0  0  0  0  0  0  0  0  0  0  0
   32.0090    8.6158    7.1803 N   0  0  0  0  0  0  0  0  0  0  0  0
   31.1409    9.3706    7.9217 N   0  0  0  0  0  0  0  0  0  0  0  0
   31.1787   10.7981    7.6937 C   0  0  0  0  0  0  0  0  0  0  0  0
  1  2  1  0
  2  3  2  0
  2  4  2  0
  2  5  1  0
  5  6  1  0
  6  7  1  0
  7  8  1  0
  8  9  2  0
  9 10  1  0
 10 11  1  0
 11  7  2  0
A    1
 C1 
A    2
 S1 
A    3
 O1 
A    4
 O2 
A    5
 N1 
A    6
 C2 
A    7
 C3 
A    8
 C4 
A    9
 N2 
A   10
 N3 
A   11
 C5 
M  END
>  <ref_pdb>  (1553) 
Ax0310a

>  <ref_mols>  (1553) 
Ax0446a,Ax1080a,Ax0812a,Ax0719a,Ax1140a,Ax0528a,Ax0310a

>  <original SMILES>  (1553) 
CS(=O)(=O)NCc1cn[nH]c1

>  <rationale>  (1553) 
info info set:sulfonimide_whole;hbond:S87+G127; 

>  <experiment>  (1553) 
sulfonimide_whole

>  <cluster_label>  (1553) 
3

>  <cluster_rank>  (1553) 
1210

>  <N_interactions>  (1553) 
2

>  <∆∆G>  (1553) 
-4.272485

>  <comRMSD>  (1553) 
0.469044

>  <ROCS_TanimotoCombo>  (1553) 
0.327

>  <ROCS_ShapeTanimoto>  (1553) 
0.162

>  <ROCS_ColorTanimoto>  (1553) 
0.165

$$$$
EN300_1718173
     RDKit          3D

 14 15  0  0  0  0  0  0  0  0999 V2000
   28.4737   13.2974    9.0517 N   0  0  0  0  0  0  0  0  0  0  0  0
   29.6060   14.2083    8.2259 S   0  0  0  0  0  6  0  0  0  0  0  0
   28.8710   15.3620    7.7498 O   0  0  0  0  0  0  0  0  0  0  0  0
   30.7565   14.3679    9.0940 O   0  0  0  0  0  0  0  0  0  0  0  0
   30.0701   13.1730    6.8762 C   0  0  0  0  0  0  0  0  0  0  0  0
   31.2435   12.2607    7.1315 C   0  0  2  0  0  0  0  0  0  0  0  0
   32.4483   12.1757    6.1925 C   0  0  0  0  0  0  0  0  0  0  0  0
   32.9885   10.9016    5.9228 C   0  0  0  0  0  0  0  0  0  0  0  0
   32.3891    9.7658    6.4712 C   0  0  0  0  0  0  0  0  0  0  0  0
   31.4197    9.9445    7.4589 C   0  0  2  0  0  0  0  0  0  0  0  0
   30.5824    8.9210    7.8915 C   0  0  0  0  0  0  0  0  0  0  0  0
   30.8388    8.1217    8.8313 C   0  0  0  0  0  0  0  0  0  0  0  0
   30.2254    9.0499    9.4334 C   0  0  0  0  0  0  0  0  0  0  0  0
   30.5923   11.0100    7.0922 O   0  0  0  0  0  0  0  0  0  0  0  0
  1  2  1  0
  2  3  2  0
  2  4  2  0
  2  5  1  0
  6  5  1  6
  6  7  1  0
  7  8  1  0
  8  9  1  0
  9 10  1  0
 10 11  1  6
 11 12  1  0
 12 13  1  0
 10 14  1  0
 14  6  1  0
 13 11  1  0
A    1
 N1 
A    2
 S1 
A    3
 O1 
A    4
 O2 
A    5
 C1 
A    6
 C2 
A    7
 C3 
A    8
 C4 
A    9
 C5 
A   10
 C6 
A   11
 C7 
A   12
 C8 
A   13
 C9 
A   14
 O3 
M  END
>  <ref_pdb>  (1554) 
Ax0310a

>  <ref_mols>  (1554) 
Ax0446a,Ax1080a,Ax0812a,Ax0719a,Ax1140a,Ax0528a,Ax0310a

>  <original SMILES>  (1554) 
NS(=O)(=O)C[C@@H]1CCC[C@H](C2CC2)O1

>  <rationale>  (1554) 
info info set:sulfonimide_whole;hbond:S87+S125; hydroph_interaction:P107+V124; 

>  <experiment>  (1554) 
sulfonimide_whole

>  <cluster_label>  (1554) 
3

>  <cluster_rank>  (1554) 
1211

>  <N_interactions>  (1554) 
4

>  <∆∆G>  (1554) 
-0.11182

>  <comRMSD>  (1554) 
0.859666

>  <ROCS_TanimotoCombo>  (1554) 
0.327

>  <ROCS_ShapeTanimoto>  (1554) 
0.19

>  <ROCS_ColorTanimoto>  (1554) 
0.137

$$$$
Z1898573978
     RDKit          3D

 11 12  0  0  0  0  0  0  0  0999 V2000
   30.2440    8.9049    8.6434 C   0  0  0  0  0  0  0  0  0  0  0  0
   31.1777    9.6893    7.7650 C   0  0  0  0  0  0  0  0  0  0  0  0
   32.1709    8.9708    7.1586 N   0  0  0  0  0  0  0  0  0  0  0  0
   32.9097    9.9097    6.4332 O   0  0  0  0  0  0  0  0  0  0  0  0
   32.3026   11.1829    6.6443 C   0  0  0  0  0  0  0  0  0  0  0  0
   32.8438   12.3386    6.0464 C   0  0  0  0  0  0  0  0  0  0  0  0
   33.4547   12.2828    4.8967 C   0  0  0  0  0  0  0  0  0  0  0  0
   34.4606   12.3681    5.7026 C   0  0  0  0  0  0  0  0  0  0  0  0
   31.2039   11.0683    7.4651 C   0  0  0  0  0  0  0  0  0  0  0  0
   30.3394   12.0702    7.8980 C   0  0  0  0  0  0  0  0  0  0  0  0
   30.3789   13.1711    7.0014 O   0  0  0  0  0  0  0  0  0  0  0  0
  1  2  1  0
  2  3  2  0
  3  4  1  0
  4  5  1  0
  5  6  1  0
  6  7  1  0
  7  8  1  0
  5  9  2  0
  9 10  1  0
 10 11  1  0
  9  2  1  0
  8  6  1  0
A    1
 C1 
A    2
 C2 
A    3
 N1 
A    4
 O1 
A    5
 C3 
A    6
 C4 
A    7
 C5 
A    8
 C6 
A    9
 C7 
A   10
 C8 
A   11
 O2 
M  END
>  <ref_pdb>  (1555) 
Ax0310a

>  <ref_mols>  (1555) 
Ax0446a,Ax1080a,Ax0812a,Ax0719a,Ax1140a,Ax0528a,Ax0310a

>  <original SMILES>  (1555) 
Cc1noc(C2CC2)c1CO

>  <rationale>  (1555) 
info info set:3d;hydroph_interaction:V124; 

>  <experiment>  (1555) 
3d

>  <cluster_label>  (1555) 
3

>  <cluster_rank>  (1555) 
1212

>  <N_interactions>  (1555) 
1

>  <∆∆G>  (1555) 
-5.250068

>  <comRMSD>  (1555) 
0.44932

>  <ROCS_TanimotoCombo>  (1555) 
0.289

>  <ROCS_ShapeTanimoto>  (1555) 
0.186

>  <ROCS_ColorTanimoto>  (1555) 
0.103

$$$$
Z32013792
     RDKit          3D

 15 15  0  0  0  0  0  0  0  0999 V2000
   30.8886   13.8272    9.3709 C   0  0  0  0  0  0  0  0  0  0  0  0
   29.7124   13.3102    8.8485 N   0  0  0  0  0  0  0  0  0  0  0  0
   28.5193   14.0490    9.2104 C   0  0  0  0  0  0  0  0  0  0  0  0
   29.6295   12.4666    7.7602 C   0  0  0  0  0  0  0  0  0  0  0  0
   28.6875   12.4902    6.9754 O   0  0  0  0  0  0  0  0  0  0  0  0
   30.7354   11.4765    7.4268 C   0  0  0  0  0  0  0  0  0  0  0  0
   30.7618    9.9737    7.6826 C   0  0  0  0  0  0  0  0  0  0  0  0
   31.8580    9.2626    7.2413 C   0  0  0  0  0  0  0  0  0  0  0  0
   32.9379    9.8418    6.6013 C   0  0  0  0  0  0  0  0  0  0  0  0
   32.9310   11.2232    6.4010 C   0  0  0  0  0  0  0  0  0  0  0  0
   34.3001   12.0456    5.6302 S   0  0  0  0  0  6  0  0  0  0  0  0
   34.8178   13.2482    6.8924 C   0  0  0  0  0  0  0  0  0  0  0  0
   35.3360   11.0603    5.3808 O   0  0  0  0  0  0  0  0  0  0  0  0
   33.7702   12.8541    4.5779 O   0  0  0  0  0  0  0  0  0  0  0  0
   31.8502   12.0250    6.7978 C   0  0  0  0  0  0  0  0  0  0  0  0
  1  2  1  0
  2  3  1  0
  2  4  1  0
  4  5  2  0
  4  6  1  0
  6  7  2  0
  7  8  1  0
  8  9  2  0
  9 10  1  0
 10 11  1  0
 11 12  1  0
 11 13  2  0
 11 14  2  0
 10 15  2  0
 15  6  1  0
A    1
 C1 
A    2
 N1 
A    3
 C2 
A    4
 C3 
A    5
 O1 
A    6
 C4 
A    7
 C5 
A    8
 C6 
A    9
 C7 
A   10
 C8 
A   11
 S1 
A   12
 C9 
A   13
 O2 
A   14
 O3 
A   15
 C10
M  END
>  <ref_pdb>  (1556) 
Ax0310a

>  <ref_mols>  (1556) 
Ax0446a,Ax1080a,Ax0812a,Ax0719a,Ax1140a,Ax0528a,Ax0310a

>  <original SMILES>  (1556) 
CN(C)C(=O)c1cccc(S(C)(=O)=O)c1

>  <rationale>  (1556) 
info info set:3d;

>  <experiment>  (1556) 
3d

>  <cluster_label>  (1556) 
3

>  <cluster_rank>  (1556) 
1213

>  <N_interactions>  (1556) 
0

>  <∆∆G>  (1556) 
-8.100026

>  <comRMSD>  (1556) 
0.980157

>  <ROCS_TanimotoCombo>  (1556) 
0.292

>  <ROCS_ShapeTanimoto>  (1556) 
0.191

>  <ROCS_ColorTanimoto>  (1556) 
0.101

$$$$
EN300_1785482
     RDKit          3D

 15 15  0  0  0  0  0  0  0  0999 V2000
   29.0586    9.3235    8.9449 C   0  0  0  0  0  0  0  0  0  0  0  0
   29.9152    8.5300    9.1285 C   0  0  0  0  0  0  0  0  0  0  0  0
   30.9831    8.7897    8.3037 O   0  0  0  0  0  0  0  0  0  0  0  0
   30.9986   10.1009    8.1028 C   0  0  0  0  0  0  0  0  0  0  0  0
   30.4148   10.9599    8.7061 O   0  0  0  0  0  0  0  0  0  0  0  0
   31.8550   10.3361    7.0210 C   0  0  0  0  0  0  0  0  0  0  0  0
   32.6298    9.3911    6.4877 N   0  0  0  0  0  0  0  0  0  0  0  0
   33.2843   10.0567    5.4985 N   0  0  0  0  0  0  0  0  0  0  0  0
   34.2406    9.3291    4.7044 C   0  0  0  0  0  0  0  0  0  0  0  0
   32.9243   11.3665    5.4128 C   0  0  0  0  0  0  0  0  0  0  0  0
   31.9831   11.5235    6.4250 C   0  0  0  0  0  0  0  0  0  0  0  0
   31.3928   12.7903    6.6220 C   0  0  0  0  0  0  0  0  0  0  0  0
   29.8476   12.7578    6.6430 C   0  0  0  0  0  0  0  0  0  0  0  0
   29.1963   13.9905    7.1272 C   0  0  0  0  0  0  0  0  0  0  0  0
   28.6683   14.9684    7.4796 N   0  0  0  0  0  0  0  0  0  0  0  0
  1  2  1  0
  2  3  1  0
  3  4  1  0
  4  5  2  0
  4  6  1  0
  6  7  2  0
  7  8  1  0
  8  9  1  0
  8 10  1  0
 10 11  2  0
 11 12  1  0
 12 13  1  0
 13 14  1  0
 14 15  3  0
 11  6  1  0
A    1
 C1 
A    2
 C2 
A    3
 O1 
A    4
 C3 
A    5
 O2 
A    6
 C4 
A    7
 N1 
A    8
 N2 
A    9
 C5 
A   10
 C6 
A   11
 C7 
A   12
 C8 
A   13
 C9 
A   14
 C10
A   15
 N3 
M  END
>  <ref_pdb>  (1557) 
Ax0310a

>  <ref_mols>  (1557) 
Ax0446a,Ax1080a,Ax0812a,Ax0719a,Ax1140a,Ax0528a,Ax0310a

>  <original SMILES>  (1557) 
CCOC(=O)c1nn(C)cc1CCC#N

>  <rationale>  (1557) 
info info set:bb_densepocket2;hydroph_interaction:P107+V124; 

>  <experiment>  (1557) 
bb_densepocket2

>  <cluster_label>  (1557) 
3

>  <cluster_rank>  (1557) 
1214

>  <N_interactions>  (1557) 
3

>  <∆∆G>  (1557) 
-4.839737

>  <comRMSD>  (1557) 
0.741372

>  <ROCS_TanimotoCombo>  (1557) 
0.607

>  <ROCS_ShapeTanimoto>  (1557) 
0.216

>  <ROCS_ColorTanimoto>  (1557) 
0.391

$$$$
EN300_272030
     RDKit          3D

 15 16  0  0  0  0  0  0  0  0999 V2000
   33.1072   12.4239    4.1765 N   0  0  0  0  0  0  0  0  0  0  0  0
   33.8750   12.0495    5.6234 S   0  0  0  0  0  6  0  0  0  0  0  0
   34.9544   11.1539    5.2470 O   0  0  0  0  0  0  0  0  0  0  0  0
   34.1263   13.3178    6.2583 O   0  0  0  0  0  0  0  0  0  0  0  0
   32.6763   11.1105    6.6048 C   0  0  0  0  0  0  0  0  0  0  0  0
   32.7785    9.6547    6.3984 C   0  0  0  0  0  0  0  0  0  0  0  0
   31.9509    8.7749    7.0708 C   0  0  0  0  0  0  0  0  0  0  0  0
   30.9891    9.2133    7.9442 C   0  0  0  0  0  0  0  0  0  0  0  0
   30.8712   10.5679    8.1512 C   0  0  0  0  0  0  0  0  0  0  0  0
   31.6855   11.4969    7.5191 C   0  0  0  0  0  0  0  0  0  0  0  0
   31.2990   12.7446    7.9940 N   0  0  0  0  0  0  0  0  0  0  0  0
   30.1143   13.3435    7.7658 C   0  0  0  0  0  0  0  0  0  0  0  0
   30.1230   14.5208    8.4738 C   0  0  0  0  0  0  0  0  0  0  0  0
   31.3129   14.6787    9.1331 N   0  0  0  0  0  0  0  0  0  0  0  0
   31.9985   13.6045    8.8182 C   0  0  0  0  0  0  0  0  0  0  0  0
  1  2  1  0
  2  3  2  0
  2  4  2  0
  2  5  1  0
  5  6  2  0
  6  7  1  0
  7  8  2  0
  8  9  1  0
  9 10  2  0
 10 11  1  0
 11 12  1  0
 12 13  2  0
 13 14  1  0
 14 15  2  0
 10  5  1  0
 15 11  1  0
A    1
 N1 
A    2
 S1 
A    3
 O1 
A    4
 O2 
A    5
 C1 
A    6
 C2 
A    7
 C3 
A    8
 C4 
A    9
 C5 
A   10
 C6 
A   11
 N2 
A   12
 C7 
A   13
 C8 
A   14
 N3 
A   15
 C9 
M  END
>  <ref_pdb>  (1558) 
Ax0310a

>  <ref_mols>  (1558) 
Ax0446a,Ax1080a,Ax0812a,Ax0719a,Ax1140a,Ax0528a,Ax0310a

>  <original SMILES>  (1558) 
NS(=O)(=O)c1ccccc1-n1ccnc1

>  <rationale>  (1558) 
info info set:sulfonimide_whole;hbond:S87; 

>  <experiment>  (1558) 
sulfonimide_whole

>  <cluster_label>  (1558) 
3

>  <cluster_rank>  (1558) 
1215

>  <N_interactions>  (1558) 
1

>  <∆∆G>  (1558) 
-4.831792

>  <comRMSD>  (1558) 
0.806979

>  <ROCS_TanimotoCombo>  (1558) 
0.327

>  <ROCS_ShapeTanimoto>  (1558) 
0.201

>  <ROCS_ColorTanimoto>  (1558) 
0.126

$$$$
Z1669565892
     RDKit          3D

 18 19  0  0  0  0  0  0  0  0999 V2000
   32.7450   12.8882    6.2659 C   0  0  0  0  0  0  0  0  0  0  0  0
   32.7397   11.3547    6.3444 C   0  0  0  0  0  0  0  0  0  0  0  0
   33.7188   10.6849    5.6561 C   0  0  0  0  0  0  0  0  0  0  0  0
   33.7332    9.3056    5.7134 C   0  0  0  0  0  0  0  0  0  0  0  0
   32.8479    8.5785    6.4100 N   0  0  0  0  0  0  0  0  0  0  0  0
   31.8976    9.2399    7.0764 C   0  0  0  0  0  0  0  0  0  0  0  0
   30.9964    8.4873    7.7802 O   0  0  0  0  0  0  0  0  0  0  0  0
   31.8368   10.5818    7.0431 C   0  0  0  0  0  0  0  0  0  0  0  0
   30.6905   11.0055    7.8387 C   0  0  0  0  0  0  0  0  0  0  0  0
   30.4618   10.6709    8.9564 O   0  0  0  0  0  0  0  0  0  0  0  0
   30.0183   11.8164    6.8966 O   0  0  0  0  0  0  0  0  0  0  0  0
   28.9795   12.1467    7.7866 C   0  0  0  0  0  0  0  0  0  0  0  0
   29.0124   13.5844    8.1385 C   0  0  0  0  0  0  0  0  0  0  0  0
   28.3565   14.0793    6.8896 C   0  0  0  0  0  0  0  0  0  0  0  0
   28.3028   15.3487    6.9867 N   0  0  0  0  0  0  0  0  0  0  0  0
   28.8784   15.5956    8.2021 N   0  0  0  0  0  0  0  0  0  0  0  0
   28.9517   16.9043    8.5324 C   0  0  0  0  0  0  0  0  0  0  0  0
   29.3247   14.5574    8.9576 C   0  0  0  0  0  0  0  0  0  0  0  0
  1  2  1  0
  2  3  2  0
  3  4  1  0
  4  5  2  0
  5  6  1  0
  6  7  1  0
  6  8  2  0
  8  9  1  0
  9 10  2  0
  9 11  1  0
 11 12  1  0
 12 13  1  0
 13 14  1  0
 14 15  2  0
 15 16  1  0
 16 17  1  0
 16 18  1  0
  8  2  1  0
 18 13  2  0
A    1
 C1 
A    2
 C2 
A    3
 C3 
A    4
 C4 
A    5
 N1 
A    6
 C5 
A    7
 O1 
A    8
 C6 
A    9
 C7 
A   10
 O2 
A   11
 O3 
A   12
 C8 
A   13
 C9 
A   14
 C10
A   15
 N2 
A   16
 N3 
A   17
 C11
A   18
 C12
M  END
>  <ref_pdb>  (1559) 
Ax0310a

>  <ref_mols>  (1559) 
Ax0446a,Ax1080a,Ax0812a,Ax0719a,Ax1140a,Ax0528a,Ax0310a

>  <original SMILES>  (1559) 
Cc1ccnc(O)c1C(=O)OCc1cnn(C)c1

>  <rationale>  (1559) 
info info set:screening_pocket;pistack:H21; 

>  <experiment>  (1559) 
screening_pocket

>  <cluster_label>  (1559) 
3

>  <cluster_rank>  (1559) 
1216

>  <N_interactions>  (1559) 
1

>  <∆∆G>  (1559) 
-0.997748

>  <comRMSD>  (1559) 
0.643202

>  <ROCS_TanimotoCombo>  (1559) 
0.639

>  <ROCS_ShapeTanimoto>  (1559) 
0.25

>  <ROCS_ColorTanimoto>  (1559) 
0.389

$$$$
Z1392664871
     RDKit          3D

 18 19  0  0  0  0  0  0  0  0999 V2000
   30.0758    8.6955    8.4602 C   0  0  0  0  0  0  0  0  0  0  0  0
   31.3146    8.3223    7.8193 N   0  0  0  0  0  0  0  0  0  0  0  0
   32.0961    9.1920    7.0146 C   0  0  0  0  0  0  0  0  0  0  0  0
   33.0134    8.6615    6.2145 N   0  0  0  0  0  0  0  0  0  0  0  0
   33.7610    9.4500    5.4473 C   0  0  0  0  0  0  0  0  0  0  0  0
   33.6364   10.9386    5.4272 C   0  0  0  0  0  0  0  0  0  0  0  0
   32.6861   11.4456    6.2626 C   0  0  0  0  0  0  0  0  0  0  0  0
   31.9469   10.5547    7.0295 C   0  0  0  0  0  0  0  0  0  0  0  0
   31.0377   11.0319    7.8298 C   0  0  0  0  0  0  0  0  0  0  0  0
   30.6586   10.4275    8.8076 O   0  0  0  0  0  0  0  0  0  0  0  0
   30.5904   12.2085    7.4812 N   0  0  0  0  0  0  0  0  0  0  0  0
   29.9466   12.5721    8.6032 C   0  0  0  0  0  0  0  0  0  0  0  0
   29.0858   13.6315    8.2981 C   0  0  0  0  0  0  0  0  0  0  0  0
   27.8926   13.3753    7.4910 C   0  0  0  0  0  0  0  0  0  0  0  0
   27.2238   14.8363    7.3913 S   0  0  0  0  0  0  0  0  0  0  0  0
   28.3885   15.7530    8.3101 C   0  0  0  0  0  0  0  0  0  0  0  0
   29.3870   14.9725    8.7880 C   0  0  0  0  0  0  0  0  0  0  0  0
   30.5404   15.3478    9.6228 C   0  0  0  0  0  0  0  0  0  0  0  0
  1  2  1  0
  2  3  1  0
  3  4  2  0
  4  5  1  0
  5  6  2  0
  6  7  1  0
  7  8  2  0
  8  9  1  0
  9 10  2  0
  9 11  1  0
 11 12  1  0
 12 13  1  0
 13 14  2  0
 14 15  1  0
 15 16  1  0
 16 17  2  0
 17 18  1  0
  8  3  1  0
 17 13  1  0
A    1
 C1 
A    2
 N1 
A    3
 C2 
A    4
 N2 
A    5
 C3 
A    6
 C4 
A    7
 C5 
A    8
 C6 
A    9
 C7 
A   10
 O1 
A   11
 N3 
A   12
 C8 
A   13
 C9 
A   14
 C10
A   15
 S1 
A   16
 C11
A   17
 C12
A   18
 C13
M  END
>  <ref_pdb>  (1560) 
Ax0310a

>  <ref_mols>  (1560) 
Ax0446a,Ax1080a,Ax0812a,Ax0719a,Ax1140a,Ax0528a,Ax0310a

>  <original SMILES>  (1560) 
CNc1ncccc1C(=O)NCc1cscc1C

>  <rationale>  (1560) 
info info set:screening_pocket;hydroph_interaction:Y90; 

>  <experiment>  (1560) 
screening_pocket

>  <cluster_label>  (1560) 
3

>  <cluster_rank>  (1560) 
1217

>  <N_interactions>  (1560) 
1

>  <∆∆G>  (1560) 
-3.049292

>  <comRMSD>  (1560) 
0.891812

>  <ROCS_TanimotoCombo>  (1560) 
0.634

>  <ROCS_ShapeTanimoto>  (1560) 
0.242

>  <ROCS_ColorTanimoto>  (1560) 
0.392

$$$$
Z1262523765
     RDKit          3D

 13 13  0  0  0  0  0  0  0  0999 V2000
   28.7454   13.1624    8.8619 C   0  0  0  0  0  0  0  0  0  0  0  0
   30.2412   13.4633    7.9831 P   0  0  0  0  0  5  0  0  0  0  0  0
   29.3569   14.0202    6.5101 C   0  0  0  0  0  0  0  0  0  0  0  0
   30.9887   14.5166    8.7731 O   0  0  0  0  0  0  0  0  0  0  0  0
   31.1649   12.0164    7.5081 C   0  0  0  0  0  0  0  0  0  0  0  0
   30.6884   10.6217    7.9713 C   0  0  0  0  0  0  0  0  0  0  0  0
   31.6135    9.5432    7.4146 C   0  0  0  0  0  0  0  0  0  0  0  0
   32.8357    9.8072    6.5414 C   0  0  0  0  0  0  0  0  0  0  0  0
   33.1085   11.1422    6.2499 C   0  0  0  0  0  0  0  0  0  0  0  0
   34.3777   11.3197    5.3762 C   0  0  0  0  0  0  0  0  0  0  0  0
   34.9007   12.3782    5.0788 O   0  0  0  0  0  0  0  0  0  0  0  0
   34.9190   10.0671    4.9208 O   0  0  0  0  0  0  0  0  0  0  0  0
   32.3119   12.1971    6.7057 C   0  0  0  0  0  0  0  0  0  0  0  0
  1  2  1  0
  2  3  1  0
  2  4  2  0
  2  5  1  0
  5  6  2  0
  6  7  1  0
  7  8  2  0
  8  9  1  0
  9 10  1  0
 10 11  2  0
 10 12  1  0
  9 13  2  0
 13  5  1  0
A    1
 C1 
A    2
 P1 
A    3
 C2 
A    4
 O1 
A    5
 C3 
A    6
 C4 
A    7
 C5 
A    8
 C6 
A    9
 C7 
A   10
 C8 
A   11
 O2 
A   12
 O3 
A   13
 C9 
M  END
>  <ref_pdb>  (1561) 
Ax0310a

>  <ref_mols>  (1561) 
Ax0446a,Ax1080a,Ax0812a,Ax0719a,Ax1140a,Ax0528a,Ax0310a

>  <original SMILES>  (1561) 
CP(C)(=O)c1cccc(C(=O)O)c1

>  <rationale>  (1561) 
info info set:3d;hbond:S87; 

>  <experiment>  (1561) 
3d

>  <cluster_label>  (1561) 
3

>  <cluster_rank>  (1561) 
1218

>  <N_interactions>  (1561) 
1

>  <∆∆G>  (1561) 
-6.34253

>  <comRMSD>  (1561) 
0.467121

>  <ROCS_TanimotoCombo>  (1561) 
0.281

>  <ROCS_ShapeTanimoto>  (1561) 
0.18

>  <ROCS_ColorTanimoto>  (1561) 
0.102

$$$$
EN300_744910
     RDKit          3D

 16 17  0  0  0  0  0  0  0  0999 V2000
   35.8319    8.7226    2.8816 C   0  0  0  0  0  0  0  0  0  0  0  0
   34.9830    9.5777    3.7989 C   0  0  0  0  0  0  0  0  0  0  0  0
   35.0132   11.0838    3.7674 C   0  0  0  0  0  0  0  0  0  0  0  0
   34.1363   11.8587    4.7128 C   0  0  0  0  0  0  0  0  0  0  0  0
   33.9925   13.5470    4.8645 Cl  0  0  0  0  0  0  0  0  0  0  0  0
   33.3395   10.8730    5.5730 C   0  0  0  0  0  0  0  0  0  0  0  0
   32.4236   11.5381    6.5596 C   0  0  0  0  0  0  0  0  0  0  0  0
   31.8489   10.3144    7.1792 C   0  0  0  0  0  0  0  0  0  0  0  0
   30.8385   10.6124    8.2730 C   0  0  0  0  0  0  0  0  0  0  0  0
   30.4775   11.7493    8.5261 O   0  0  0  0  0  0  0  0  0  0  0  0
   30.2923    9.4665    9.0494 C   0  0  0  0  0  0  0  0  0  0  0  0
   29.9251    8.3047    8.2606 C   0  0  0  0  0  0  0  0  0  0  0  0
   28.8965    9.0474    8.9837 C   0  0  0  0  0  0  0  0  0  0  0  0
   32.3893    9.1378    6.5968 O   0  0  0  0  0  0  0  0  0  0  0  0
   33.3158    9.5460    5.5988 C   0  0  0  0  0  0  0  0  0  0  0  0
   34.1562    8.8724    4.6897 C   0  0  0  0  0  0  0  0  0  0  0  0
  1  2  1  0
  2  3  2  0
  3  4  1  0
  4  5  1  0
  4  6  2  0
  6  7  1  0
  7  8  2  0
  8  9  1  0
  9 10  2  0
  9 11  1  0
 11 12  1  0
 11 13  1  0
  8 14  1  0
 14 15  1  0
 15 16  2  0
 16  2  1  0
 15  6  1  0
A    1
 C1 
A    2
 C2 
A    3
 C3 
A    4
 C4 
A    5
CL1 
A    6
 C5 
A    7
 C6 
A    8
 C7 
A    9
 C8 
A   10
 O1 
A   11
 C9 
A   12
 C10
A   13
 C11
A   14
 O2 
A   15
 C12
A   16
 C13
M  END
>  <ref_pdb>  (1562) 
Ax0310a

>  <ref_mols>  (1562) 
Ax0446a,Ax1080a,Ax0812a,Ax0719a,Ax1140a,Ax0528a,Ax0310a

>  <original SMILES>  (1562) 
Cc1cc(Cl)c2cc(C(=O)C(C)C)oc2c1

>  <rationale>  (1562) 
info info set:bb_densepocket2;hbond:G127; hydroph_interaction:V124; 

>  <experiment>  (1562) 
bb_densepocket2

>  <cluster_label>  (1562) 
3

>  <cluster_rank>  (1562) 
1219

>  <N_interactions>  (1562) 
2

>  <∆∆G>  (1562) 
-4.812759

>  <comRMSD>  (1562) 
0.774184

>  <ROCS_TanimotoCombo>  (1562) 
0.607

>  <ROCS_ShapeTanimoto>  (1562) 
0.239

>  <ROCS_ColorTanimoto>  (1562) 
0.368

$$$$
EN300_6495032
     RDKit          3D

 11 11  0  0  0  0  0  0  0  0999 V2000
   34.9975   14.8600    8.8595 N   0  0  0  0  0  0  0  0  0  0  0  0
   33.6174   13.9521    8.6707 S   0  0  0  0  0  6  0  0  0  0  0  0
   33.9852   12.7214    9.2219 O   0  0  0  0  0  0  0  0  0  0  0  0
   32.4535   14.6749    9.1589 O   0  0  0  0  0  0  0  0  0  0  0  0
   33.4186   13.5525    7.0034 C   0  0  0  0  0  0  0  0  0  0  0  0
   32.1795   12.8968    6.4331 C   0  0  0  0  0  0  0  0  0  0  0  0
   31.6615   12.2657    7.3221 O   0  0  0  0  0  0  0  0  0  0  0  0
   31.4196   10.9105    6.9366 C   0  0  0  0  0  0  0  0  0  0  0  0
   32.5209   10.0402    6.5582 C   0  0  0  0  0  0  0  0  0  0  0  0
   31.8643    9.1711    7.4356 N   0  0  0  0  0  0  0  0  0  0  0  0
   30.8981   10.1020    7.8829 C   0  0  0  0  0  0  0  0  0  0  0  0
  1  2  1  0
  2  3  2  0
  2  4  2  0
  2  5  1  0
  5  6  1  0
  6  7  1  0
  7  8  1  0
  8  9  1  0
  9 10  1  0
 10 11  1  0
 11  8  1  0
A    1
 N1 
A    2
 S1 
A    3
 O1 
A    4
 O2 
A    5
 C1 
A    6
 C2 
A    7
 O3 
A    8
 C3 
A    9
 C4 
A   10
 N2 
A   11
 C5 
M  END
>  <ref_pdb>  (1563) 
Ax0310a

>  <ref_mols>  (1563) 
Ax0446a,Ax1080a,Ax0812a,Ax0719a,Ax1140a,Ax0528a,Ax0310a

>  <original SMILES>  (1563) 
NS(=O)(=O)CCOC1CNC1

>  <rationale>  (1563) 
info info set:sulfonimide_whole;hbond:S87+G127+E85; 

>  <experiment>  (1563) 
sulfonimide_whole

>  <cluster_label>  (1563) 
3

>  <cluster_rank>  (1563) 
1220

>  <N_interactions>  (1563) 
3

>  <∆∆G>  (1563) 
-0.510835

>  <comRMSD>  (1563) 
0.707504

>  <ROCS_TanimotoCombo>  (1563) 
0.331

>  <ROCS_ShapeTanimoto>  (1563) 
0.146

>  <ROCS_ColorTanimoto>  (1563) 
0.185

$$$$
Z197607080
     RDKit          3D

 24 26  0  0  0  0  0  0  0  0999 V2000
   28.1213   14.4958    6.4541 C   0  0  0  0  0  0  0  0  0  0  0  0
   27.8981   15.3428    7.5758 O   0  0  0  0  0  0  0  0  0  0  0  0
   28.9425   15.2467    8.3632 C   0  0  0  0  0  0  0  0  0  0  0  0
   29.5721   16.3761    9.0104 C   0  0  0  0  0  0  0  0  0  0  0  0
   30.8365   16.2552    9.9351 C   0  0  0  0  0  0  0  0  0  0  0  0
   31.2426   14.8086   10.0078 C   0  0  0  0  0  0  0  0  0  0  0  0
   30.5456   13.8312    9.3331 C   0  0  0  0  0  0  0  0  0  0  0  0
   29.4556   14.0560    8.5644 C   0  0  0  0  0  0  0  0  0  0  0  0
   28.9725   12.7723    8.0050 C   0  0  0  0  0  0  0  0  0  0  0  0
   30.0412   12.2658    7.4533 N   0  0  0  0  0  0  0  0  0  0  0  0
   30.5700   11.0879    8.0330 C   0  0  0  0  0  0  0  0  0  0  0  0
   30.2513   10.4977    9.0220 O   0  0  0  0  0  0  0  0  0  0  0  0
   31.6397   10.5380    7.2198 C   0  0  0  0  0  0  0  0  0  0  0  0
   32.4987   11.4743    6.4046 C   0  0  0  0  0  0  0  0  0  0  0  0
   33.4637   10.8261    5.6632 C   0  0  0  0  0  0  0  0  0  0  0  0
   34.3799   11.7091    4.8114 C   0  0  0  0  0  0  0  0  0  0  0  0
   35.4133   10.9821    4.0087 C   0  0  0  0  0  0  0  0  0  0  0  0
   36.3142   11.6658    3.1982 C   0  0  0  0  0  0  0  0  0  0  0  0
   35.4627    9.6076    4.0862 C   0  0  0  0  0  0  0  0  0  0  0  0
   34.5973    8.8816    4.8906 C   0  0  0  0  0  0  0  0  0  0  0  0
   33.5886    9.4323    5.6983 C   0  0  0  0  0  0  0  0  0  0  0  0
   32.7814    8.6515    6.4734 N   0  0  0  0  0  0  0  0  0  0  0  0
   31.8205    9.2200    7.2254 C   0  0  0  0  0  0  0  0  0  0  0  0
   30.9249    8.3841    8.0923 C   0  0  0  0  0  0  0  0  0  0  0  0
  1  2  1  0
  2  3  1  0
  3  4  2  0
  4  5  1  0
  5  6  2  0
  6  7  1  0
  7  8  2  0
  8  9  1  0
  9 10  1  0
 10 11  1  0
 11 12  2  0
 11 13  1  0
 13 14  2  0
 14 15  1  0
 15 16  2  0
 16 17  1  0
 17 18  1  0
 17 19  2  0
 19 20  1  0
 20 21  2  0
 21 22  1  0
 22 23  2  0
 23 24  1  0
  8  3  1  0
 23 13  1  0
 21 15  1  0
A    1
 C1 
A    2
 O1 
A    3
 C2 
A    4
 C3 
A    5
 C4 
A    6
 C5 
A    7
 C6 
A    8
 C7 
A    9
 C8 
A   10
 N1 
A   11
 C9 
A   12
 O2 
A   13
 C10
A   14
 C11
A   15
 C12
A   16
 C13
A   17
 C14
A   18
 C15
A   19
 C16
A   20
 C17
A   21
 C18
A   22
 N2 
A   23
 C19
A   24
 C20
M  END
>  <ref_pdb>  (1564) 
Ax0310a

>  <ref_mols>  (1564) 
Ax0446a,Ax1080a,Ax0812a,Ax0719a,Ax1140a,Ax0528a,Ax0310a

>  <original SMILES>  (1564) 
COc1ccccc1CNC(=O)c1cc2cc(C)ccc2nc1C

>  <rationale>  (1564) 
info info set:screening_pocket;hydroph_interaction:Y90+T126+V84; 

>  <experiment>  (1564) 
screening_pocket

>  <cluster_label>  (1564) 
3

>  <cluster_rank>  (1564) 
1221

>  <N_interactions>  (1564) 
3

>  <∆∆G>  (1564) 
-2.911107

>  <comRMSD>  (1564) 
0.792812

>  <ROCS_TanimotoCombo>  (1564) 
0.628

>  <ROCS_ShapeTanimoto>  (1564) 
0.279

>  <ROCS_ColorTanimoto>  (1564) 
0.349

$$$$
EN300_6472531
     RDKit          3D

 15 15  0  0  0  0  0  0  0  0999 V2000
   29.7047   14.5333   10.9255 C   0  0  0  0  0  0  0  0  0  0  0  0
   30.3372   14.2938    9.2716 S   0  0  0  0  0  6  0  0  0  0  0  0
   31.7746   14.4456    9.2725 O   0  0  0  0  0  0  0  0  0  0  0  0
   29.4689   15.1465    8.5058 O   0  0  0  0  0  0  0  0  0  0  0  0
   29.9484   12.7422    8.7369 N   0  0  0  0  0  0  0  0  0  0  0  0
   30.8315   11.8498    8.0297 C   0  0  0  0  0  0  0  0  0  0  0  0
   30.5910   10.3459    8.1789 C   0  0  0  0  0  0  0  0  0  0  0  0
   31.3909    9.4267    7.5272 C   0  0  0  0  0  0  0  0  0  0  0  0
   32.5185    9.9530    6.6641 C   0  0  0  0  0  0  0  0  0  0  0  0
   33.3187    9.0118    6.0096 N   0  0  0  0  0  0  0  0  0  0  0  0
   32.7297   11.3397    6.5513 C   0  0  0  0  0  0  0  0  0  0  0  0
   33.8330   11.8341    5.7281 N   0  0  0  0  0  4  0  0  0  0  0  0
   34.5897   10.9757    5.2431 O   0  0  0  0  0  0  0  0  0  0  0  0
   34.1171   13.0360    5.8195 O   0  0  0  0  0  1  0  0  0  0  0  0
   31.8961   12.2709    7.2211 C   0  0  0  0  0  0  0  0  0  0  0  0
  1  2  1  0
  2  3  2  0
  2  4  2  0
  2  5  1  0
  5  6  1  0
  6  7  2  0
  7  8  1  0
  8  9  2  0
  9 10  1  0
  9 11  1  0
 11 12  1  0
 12 13  2  0
 12 14  1  0
 11 15  2  0
 15  6  1  0
M  CHG  2  12   1  14  -1
A    1
 C1 
A    2
 S1 
A    3
 O1 
A    4
 O2 
A    5
 N1 
A    6
 C2 
A    7
 C3 
A    8
 C4 
A    9
 C5 
A   10
 N2 
A   11
 C6 
A   12
 N3 
A   13
 O3 
A   14
 O4 
A   15
 C7 
M  END
>  <ref_pdb>  (1565) 
Ax0310a

>  <ref_mols>  (1565) 
Ax0446a,Ax1080a,Ax0812a,Ax0719a,Ax1140a,Ax0528a,Ax0310a

>  <original SMILES>  (1565) 
CS(=O)(=O)Nc1ccc(N)c([N+](=O)[O-])c1

>  <rationale>  (1565) 
info info set:sulfonimide_whole;hbond:S87+S105; 

>  <experiment>  (1565) 
sulfonimide_whole

>  <cluster_label>  (1565) 
3

>  <cluster_rank>  (1565) 
1222

>  <N_interactions>  (1565) 
2

>  <∆∆G>  (1565) 
-4.74802

>  <comRMSD>  (1565) 
0.601009

>  <ROCS_TanimotoCombo>  (1565) 
0.328

>  <ROCS_ShapeTanimoto>  (1565) 
0.211

>  <ROCS_ColorTanimoto>  (1565) 
0.117

$$$$
Z1416193393
     RDKit          3D

 12 13  0  0  0  0  0  0  0  0999 V2000
   30.2247   11.4601    8.2020 C   0  0  0  0  0  0  0  0  0  0  0  0
   31.3225   10.7190    7.4639 C   0  0  0  0  0  0  0  0  0  0  0  0
   31.3537    9.3856    7.4152 N   0  0  0  0  0  0  0  0  0  0  0  0
   32.4505    9.0368    6.6754 N   0  0  0  0  0  0  0  0  0  0  0  0
   33.0500   10.2141    6.3013 C   0  0  0  0  0  0  0  0  0  0  0  0
   32.4797   11.4671    6.7170 C   0  0  0  0  0  0  0  0  0  0  0  0
   32.6276   12.8494    6.6584 C   0  0  0  0  0  0  0  0  0  0  0  0
   32.8599   13.3586    8.0909 C   0  0  0  0  0  0  0  0  0  0  0  0
   34.2856   13.9276    8.3747 C   0  0  0  0  0  0  0  0  0  0  0  0
   34.9371   14.4230    7.3283 N   0  0  0  0  0  0  0  0  0  0  0  0
   34.9443   13.6018    6.1424 C   0  0  0  0  0  0  0  0  0  0  0  0
   33.5291   13.2566    5.6556 C   0  0  0  0  0  0  0  0  0  0  0  0
  1  2  1  0
  2  3  1  0
  3  4  1  0
  4  5  2  0
  5  6  1  0
  6  7  1  0
  7  8  1  0
  8  9  1  0
  9 10  1  0
 10 11  1  0
 11 12  1  0
  6  2  2  0
 12  7  1  0
A    1
 C1 
A    2
 C2 
A    3
 N1 
A    4
 N2 
A    5
 C3 
A    6
 C4 
A    7
 C5 
A    8
 C6 
A    9
 C7 
A   10
 N3 
A   11
 C8 
A   12
 C9 
M  END
>  <ref_pdb>  (1566) 
Ax0310a

>  <ref_mols>  (1566) 
Ax0446a,Ax1080a,Ax0812a,Ax0719a,Ax1140a,Ax0528a,Ax0310a

>  <original SMILES>  (1566) 
Cc1[nH]ncc1C1CCNCC1

>  <rationale>  (1566) 
info info set:3d;

>  <experiment>  (1566) 
3d

>  <cluster_label>  (1566) 
3

>  <cluster_rank>  (1566) 
1223

>  <N_interactions>  (1566) 
0

>  <∆∆G>  (1566) 
-3.451476

>  <comRMSD>  (1566) 
0.450376

>  <ROCS_TanimotoCombo>  (1566) 
0.29

>  <ROCS_ShapeTanimoto>  (1566) 
0.178

>  <ROCS_ColorTanimoto>  (1566) 
0.111

$$$$
Z354372950
     RDKit          3D

 20 22  0  0  0  0  0  0  0  0999 V2000
   28.7147   16.1240    8.4415 F   0  0  0  0  0  0  0  0  0  0  0  0
   29.0530   14.8434    8.4074 C   0  0  0  0  0  0  0  0  0  0  0  0
   28.0335   13.8447    7.9331 C   0  0  0  0  0  0  0  0  0  0  0  0
   28.4605   12.3579    7.9035 C   0  0  0  0  0  0  0  0  0  0  0  0
   29.9016   12.1416    8.3661 C   0  0  0  0  0  0  0  0  0  0  0  0
   30.4619   10.8908    8.4209 O   0  0  0  0  0  0  0  0  0  0  0  0
   29.7097    9.9327    9.0410 C   0  0  0  0  0  0  0  0  0  0  0  0
   29.6361    8.6752    8.3022 C   0  0  0  0  0  0  0  0  0  0  0  0
   30.9794    8.4937    7.8565 N   0  0  0  0  0  0  0  0  0  0  0  0
   31.7464    9.2652    7.0732 C   0  0  0  0  0  0  0  0  0  0  0  0
   32.8390    8.8059    6.4499 N   0  0  0  0  0  0  0  0  0  0  0  0
   33.2795    9.8860    5.7858 C   0  0  0  0  0  0  0  0  0  0  0  0
   34.4566   10.0614    4.8895 C   0  0  0  0  0  0  0  0  0  0  0  0
   34.7009   11.4455    4.2675 C   0  0  0  0  0  0  0  0  0  0  0  0
   33.7671   12.4367    4.6121 C   0  0  0  0  0  0  0  0  0  0  0  0
   32.6702   12.2327    5.4607 C   0  0  0  0  0  0  0  0  0  0  0  0
   32.4622   10.9648    6.0169 C   0  0  0  0  0  0  0  0  0  0  0  0
   31.4618   10.5756    6.8494 O   0  0  0  0  0  0  0  0  0  0  0  0
   30.7363   13.2012    8.7743 C   0  0  0  0  0  0  0  0  0  0  0  0
   30.3167   14.5032    8.8035 C   0  0  0  0  0  0  0  0  0  0  0  0
  1  2  1  0
  2  3  2  0
  3  4  1  0
  4  5  2  0
  5  6  1  0
  6  7  1  0
  7  8  1  0
  8  9  1  0
  9 10  1  0
 10 11  2  0
 11 12  1  0
 12 13  2  0
 13 14  1  0
 14 15  2  0
 15 16  1  0
 16 17  2  0
 17 18  1  0
  5 19  1  0
 19 20  2  0
 20  2  1  0
 18 10  1  0
 17 12  1  0
A    1
 F1 
A    2
 C1 
A    3
 C2 
A    4
 C3 
A    5
 C4 
A    6
 O1 
A    7
 C5 
A    8
 C6 
A    9
 N1 
A   10
 C7 
A   11
 N2 
A   12
 C8 
A   13
 C9 
A   14
 C10
A   15
 C11
A   16
 C12
A   17
 C13
A   18
 O2 
A   19
 C14
A   20
 C15
M  END
>  <ref_pdb>  (1567) 
Ax0310a

>  <ref_mols>  (1567) 
Ax0446a,Ax1080a,Ax0812a,Ax0719a,Ax1140a,Ax0528a,Ax0310a

>  <original SMILES>  (1567) 
Fc1ccc(OCCNc2nc3ccccc3o2)cc1

>  <rationale>  (1567) 
info info set:screening_pocket;hbond:S105; hydroph_interaction:P107; 

>  <experiment>  (1567) 
screening_pocket

>  <cluster_label>  (1567) 
3

>  <cluster_rank>  (1567) 
1224

>  <N_interactions>  (1567) 
2

>  <∆∆G>  (1567) 
-1.731595

>  <comRMSD>  (1567) 
0.627668

>  <ROCS_TanimotoCombo>  (1567) 
0.629

>  <ROCS_ShapeTanimoto>  (1567) 
0.271

>  <ROCS_ColorTanimoto>  (1567) 
0.357

$$$$
Z4500867606
     RDKit          3D

 12 13  0  0  0  0  0  0  0  0999 V2000
   31.6915   16.3525   10.4062 C   0  0  0  0  0  0  0  0  0  0  0  0
   31.3926   15.4080    9.3918 O   0  0  0  0  0  0  0  0  0  0  0  0
   32.4074   14.5083    9.1746 C   0  0  0  0  0  0  0  0  0  0  0  0
   32.2218   13.4153    8.3958 C   0  0  0  0  0  0  0  0  0  0  0  0
   31.1922   12.6485    8.5842 N   0  0  0  0  0  0  0  0  0  0  0  0
   31.4736   11.6860    7.7673 C   0  0  0  0  0  0  0  0  0  0  0  0
   32.5794   11.9234    7.0589 C   0  0  0  0  0  0  0  0  0  0  0  0
   33.0640   13.1009    7.5088 O   0  0  0  0  0  0  0  0  0  0  0  0
   33.0406   11.0522    6.1069 C   0  0  0  0  0  0  0  0  0  0  0  0
   32.4952    9.6474    6.3401 C   0  0  0  0  0  0  0  0  0  0  0  0
   31.2733    9.4758    7.2165 N   0  0  0  0  0  0  0  0  0  0  0  0
   30.6156   10.6738    7.8289 C   0  0  0  0  0  0  0  0  0  0  0  0
  1  2  1  0
  2  3  1  0
  3  4  1  0
  4  5  2  0
  5  6  1  0
  6  7  2  0
  7  8  1  0
  7  9  1  0
  9 10  1  0
 10 11  1  0
 11 12  1  0
  8  4  1  0
 12  6  1  0
A    1
 C1 
A    2
 O1 
A    3
 C2 
A    4
 C3 
A    5
 N1 
A    6
 C4 
A    7
 C5 
A    8
 O2 
A    9
 C6 
A   10
 C7 
A   11
 N2 
A   12
 C8 
M  END
>  <ref_pdb>  (1568) 
Ax0310a

>  <ref_mols>  (1568) 
Ax0446a,Ax1080a,Ax0812a,Ax0719a,Ax1140a,Ax0528a,Ax0310a

>  <original SMILES>  (1568) 
COCc1nc2c(o1)CCNC2

>  <rationale>  (1568) 
info info set:3d;hbond:S87+G127; 

>  <experiment>  (1568) 
3d

>  <cluster_label>  (1568) 
3

>  <cluster_rank>  (1568) 
1225

>  <N_interactions>  (1568) 
2

>  <∆∆G>  (1568) 
-0.066437

>  <comRMSD>  (1568) 
0.873536

>  <ROCS_TanimotoCombo>  (1568) 
0.293

>  <ROCS_ShapeTanimoto>  (1568) 
0.174

>  <ROCS_ColorTanimoto>  (1568) 
0.119

$$$$
Z253951148
     RDKit          3D

 15 16  0  0  0  0  0  0  0  0999 V2000
   28.6735   11.7684    7.4507 O   0  0  0  0  0  0  0  0  0  0  0  0
   29.7000   12.2888    7.8387 C   0  0  0  0  0  0  0  0  0  0  0  0
   29.7593   13.7693    8.2106 C   0  0  0  0  0  0  0  0  0  0  0  0
   28.7203   14.3683    7.2539 C   0  0  0  0  0  0  0  0  0  0  0  0
   28.1295   15.1495    8.3669 C   0  0  0  0  0  0  0  0  0  0  0  0
   28.7519   14.3191    9.3304 C   0  0  0  0  0  0  0  0  0  0  0  0
   30.8835   11.5909    7.9264 N   0  0  0  0  0  0  0  0  0  0  0  0
   30.8552   10.1462    8.0630 C   0  0  0  0  0  0  0  0  0  0  0  0
   31.8331    9.5729    7.2640 C   0  0  0  0  0  0  0  0  0  0  0  0
   32.8799   10.1786    6.6332 N   0  0  0  0  0  0  0  0  0  0  0  0
   33.2590    9.7367    5.4015 C   0  0  0  0  0  0  0  0  0  0  0  0
   34.7127    9.6480    4.9920 C   0  0  0  0  0  0  0  0  0  0  0  0
   35.3665   10.8998    5.2339 O   0  0  0  0  0  0  0  0  0  0  0  0
   32.7552   11.6277    6.4904 C   0  0  0  0  0  0  0  0  0  0  0  0
   32.1280   12.2272    7.5445 C   0  0  0  0  0  0  0  0  0  0  0  0
  1  2  2  0
  2  3  1  0
  3  4  1  0
  4  5  1  0
  5  6  1  0
  2  7  1  0
  7  8  1  0
  8  9  1  0
  9 10  1  0
 10 11  1  0
 11 12  1  0
 12 13  1  0
 10 14  1  0
 14 15  1  0
  6  3  1  0
 15  7  1  0
A    1
 O1 
A    2
 C1 
A    3
 C2 
A    4
 C3 
A    5
 C4 
A    6
 C5 
A    7
 N1 
A    8
 C6 
A    9
 C7 
A   10
 N2 
A   11
 C8 
A   12
 C9 
A   13
 O2 
A   14
 C10
A   15
 C11
M  END
>  <ref_pdb>  (1569) 
Ax0310a

>  <ref_mols>  (1569) 
Ax0446a,Ax1080a,Ax0812a,Ax0719a,Ax1140a,Ax0528a,Ax0310a

>  <original SMILES>  (1569) 
O=C(C1CCC1)N1CCN(CCO)CC1

>  <rationale>  (1569) 
info info set:3d;hydroph_interaction:Y89+Y90; 

>  <experiment>  (1569) 
3d

>  <cluster_label>  (1569) 
3

>  <cluster_rank>  (1569) 
1226

>  <N_interactions>  (1569) 
2

>  <∆∆G>  (1569) 
-2.431294

>  <comRMSD>  (1569) 
0.62316

>  <ROCS_TanimotoCombo>  (1569) 
0.288

>  <ROCS_ShapeTanimoto>  (1569) 
0.196

>  <ROCS_ColorTanimoto>  (1569) 
0.092

$$$$
Z1508964879
     RDKit          3D

 10 10  0  0  0  0  0  0  0  0999 V2000
   30.6240   13.4453    7.8697 O   0  0  0  0  0  0  0  0  0  0  0  0
   31.8243   13.3649    7.6830 C   0  0  0  0  0  0  0  0  0  0  0  0
   32.8002   13.5686    8.5921 O   0  0  0  0  0  0  0  0  0  0  0  0
   32.3907   13.0287    6.3134 C   0  0  0  0  0  0  0  0  0  0  0  0
   32.0733   11.7174    5.9033 O   0  0  0  0  0  0  0  0  0  0  0  0
   32.3176   10.8422    6.9834 C   0  0  1  0  0  0  0  0  0  0  0  0
   31.0798   10.6105    7.7433 C   0  0  0  0  0  0  0  0  0  0  0  0
   30.8034    9.2861    8.0357 C   0  0  0  0  0  0  0  0  0  0  0  0
   31.8447    8.5383    7.3777 O   0  0  0  0  0  0  0  0  0  0  0  0
   32.5523    9.4343    6.4806 C   0  0  0  0  0  0  0  0  0  0  0  0
  1  2  2  0
  2  3  1  0
  2  4  1  0
  4  5  1  0
  6  5  1  6
  6  7  1  0
  7  8  1  0
  8  9  1  0
  9 10  1  0
 10  6  1  0
A    1
 O1 
A    2
 C1 
A    3
 O2 
A    4
 C2 
A    5
 O3 
A    6
 C3 
A    7
 C4 
A    8
 C5 
A    9
 O4 
A   10
 C6 
M  END
>  <ref_pdb>  (1570) 
Ax0310a

>  <ref_mols>  (1570) 
Ax0446a,Ax1080a,Ax0812a,Ax0719a,Ax1140a,Ax0528a,Ax0310a

>  <original SMILES>  (1570) 
O=C(O)CO[C@H]1CCOC1

>  <rationale>  (1570) 
info info set:3d;hbond:S87+G127; 

>  <experiment>  (1570) 
3d

>  <cluster_label>  (1570) 
3

>  <cluster_rank>  (1570) 
1227

>  <N_interactions>  (1570) 
2

>  <∆∆G>  (1570) 
-0.181665

>  <comRMSD>  (1570) 
0.903484

>  <ROCS_TanimotoCombo>  (1570) 
0.292

>  <ROCS_ShapeTanimoto>  (1570) 
0.156

>  <ROCS_ColorTanimoto>  (1570) 
0.136

$$$$
EN300_211042
     RDKit          3D

 13 13  0  0  0  0  0  0  0  0999 V2000
   28.8706   13.6722    8.9414 C   0  0  0  0  0  0  0  0  0  0  0  0
   29.4643   12.9885    7.6920 C   0  0  0  0  0  0  0  0  0  0  0  0
   30.8644   12.6745    7.9151 O   0  0  0  0  0  0  0  0  0  0  0  0
   31.2863   11.4208    7.6236 C   0  0  0  0  0  0  0  0  0  0  0  0
   30.5034   10.1793    7.9695 C   0  0  0  0  0  0  0  0  0  0  0  0
   31.1736    8.9188    7.5181 C   0  0  0  0  0  0  0  0  0  0  0  0
   32.3611    8.8415    6.8478 N   0  0  0  0  0  0  0  0  0  0  0  0
   33.0175    9.9662    6.5847 C   0  0  0  0  0  0  0  0  0  0  0  0
   32.4959   11.2941    6.9915 C   0  0  0  0  0  0  0  0  0  0  0  0
   33.3521   12.7434    6.7409 S   0  0  0  0  0  6  0  0  0  0  0  0
   32.1082   13.6227    6.1337 N   0  0  0  0  0  0  0  0  0  0  0  0
   33.6543   13.1626    8.1022 O   0  0  0  0  0  0  0  0  0  0  0  0
   34.3192   12.6362    5.6862 O   0  0  0  0  0  0  0  0  0  0  0  0
  1  2  1  0
  2  3  1  0
  3  4  1  0
  4  5  2  0
  5  6  1  0
  6  7  2  0
  7  8  1  0
  8  9  2  0
  9 10  1  0
 10 11  1  0
 10 12  2  0
 10 13  2  0
  9  4  1  0
A    1
 C1 
A    2
 C2 
A    3
 O1 
A    4
 C3 
A    5
 C4 
A    6
 C5 
A    7
 N1 
A    8
 C6 
A    9
 C7 
A   10
 S1 
A   11
 N2 
A   12
 O2 
A   13
 O3 
M  END
>  <ref_pdb>  (1571) 
Ax0310a

>  <ref_mols>  (1571) 
Ax0446a,Ax1080a,Ax0812a,Ax0719a,Ax1140a,Ax0528a,Ax0310a

>  <original SMILES>  (1571) 
CCOc1ccncc1S(N)(=O)=O

>  <rationale>  (1571) 
info info set:sulfonimide_whole;hbond:G127; 

>  <experiment>  (1571) 
sulfonimide_whole

>  <cluster_label>  (1571) 
3

>  <cluster_rank>  (1571) 
1228

>  <N_interactions>  (1571) 
1

>  <∆∆G>  (1571) 
-3.500332

>  <comRMSD>  (1571) 
0.904023

>  <ROCS_TanimotoCombo>  (1571) 
0.332

>  <ROCS_ShapeTanimoto>  (1571) 
0.184

>  <ROCS_ColorTanimoto>  (1571) 
0.147

$$$$
Z1478451611
     RDKit          3D

 18 20  0  0  0  0  0  0  0  0999 V2000
   34.3500    8.6930    5.0471 N   0  0  0  0  0  0  0  0  0  0  0  0
   33.3580    9.4214    5.7301 C   0  0  0  0  0  0  0  0  0  0  0  0
   32.6236    8.7848    6.6600 N   0  0  0  0  0  0  0  0  0  0  0  0
   31.6838    9.4879    7.2967 C   0  0  0  0  0  0  0  0  0  0  0  0
   30.9413    8.8212    8.2692 N   0  0  0  0  0  0  0  0  0  0  0  0
   29.5813    9.2775    8.4969 C   0  0  0  0  0  0  0  0  0  0  0  0
   29.6129   10.8271    8.4946 C   0  0  0  0  0  0  0  0  0  0  0  0
   28.2617   11.5579    8.3360 C   0  0  0  0  0  0  0  0  0  0  0  0
   28.7020   12.9834    8.4213 C   0  0  0  0  0  0  0  0  0  0  0  0
   30.2427   13.0166    8.6051 C   0  0  0  0  0  0  0  0  0  0  0  0
   30.7480   11.7367    8.6363 O   0  0  0  0  0  0  0  0  0  0  0  0
   31.4425   10.7751    7.0508 N   0  0  0  0  0  0  0  0  0  0  0  0
   32.1684   11.3994    6.1346 C   0  0  0  0  0  0  0  0  0  0  0  0
   31.8925   12.8935    5.8400 C   0  0  0  0  0  0  0  0  0  0  0  0
   32.6460   13.5568    4.8782 C   0  0  0  0  0  0  0  0  0  0  0  0
   33.6436   12.8732    4.1905 C   0  0  0  0  0  0  0  0  0  0  0  0
   33.8769   11.5580    4.4583 C   0  0  0  0  0  0  0  0  0  0  0  0
   33.1669   10.7393    5.4320 C   0  0  0  0  0  0  0  0  0  0  0  0
  1  2  1  0
  2  3  2  0
  3  4  1  0
  4  5  1  0
  5  6  1  0
  6  7  1  0
  7  8  2  0
  8  9  1  0
  9 10  2  0
 10 11  1  0
  4 12  2  0
 12 13  1  0
 13 14  2  0
 14 15  1  0
 15 16  2  0
 16 17  1  0
 17 18  2  0
 18  2  1  0
 11  7  1  0
 18 13  1  0
A    1
 N1 
A    2
 C1 
A    3
 N2 
A    4
 C2 
A    5
 N3 
A    6
 C3 
A    7
 C4 
A    8
 C5 
A    9
 C6 
A   10
 C7 
A   11
 O1 
A   12
 N4 
A   13
 C8 
A   14
 C9 
A   15
 C10
A   16
 C11
A   17
 C12
A   18
 C13
M  END
>  <ref_pdb>  (1572) 
Ax0310a

>  <ref_mols>  (1572) 
Ax0446a,Ax1080a,Ax0812a,Ax0719a,Ax1140a,Ax0528a,Ax0310a

>  <original SMILES>  (1572) 
Nc1nc(NCc2ccco2)nc2ccccc12

>  <rationale>  (1572) 
info info set:screening_pocket;hbond:S105; 

>  <experiment>  (1572) 
screening_pocket

>  <cluster_label>  (1572) 
3

>  <cluster_rank>  (1572) 
1229

>  <N_interactions>  (1572) 
2

>  <∆∆G>  (1572) 
-3.23657

>  <comRMSD>  (1572) 
0.664929

>  <ROCS_TanimotoCombo>  (1572) 
0.624

>  <ROCS_ShapeTanimoto>  (1572) 
0.253

>  <ROCS_ColorTanimoto>  (1572) 
0.371

$$$$
EN300_257205
     RDKit          3D

 18 20  0  0  0  0  0  0  0  0999 V2000
   32.7390    8.6596    6.3100 C   0  0  0  0  0  0  0  0  0  0  0  0
   32.3706    9.8523    6.7417 N   0  0  0  0  0  0  0  0  0  0  0  0
   31.1936   10.1396    7.4603 C   0  0  0  0  0  0  0  0  0  0  0  0
   30.2819    9.1300    7.8203 C   0  0  0  0  0  0  0  0  0  0  0  0
   29.1720    9.6904    8.4156 C   0  0  0  0  0  0  0  0  0  0  0  0
   29.0467   11.1453    8.6233 C   0  0  0  0  0  0  0  0  0  0  0  0
   30.1907   12.1016    8.2319 C   0  0  0  0  0  0  0  0  0  0  0  0
   31.2381   11.4737    7.6400 C   0  0  0  0  0  0  0  0  0  0  0  0
   32.4943   11.8970    7.1266 C   0  0  0  0  0  0  0  0  0  0  0  0
   33.1473   13.0847    7.1467 C   0  0  0  0  0  0  0  0  0  0  0  0
   34.4907   13.0299    6.4793 C   0  0  0  0  0  0  0  0  0  0  0  0
   35.5978   14.3252    6.5443 S   0  0  0  0  0  6  0  0  0  0  0  0
   34.7811   15.0642    7.7797 N   0  0  0  0  0  0  0  0  0  0  0  0
   36.7620   13.7385    7.1932 O   0  0  0  0  0  0  0  0  0  0  0  0
   35.6238   15.0561    5.3251 O   0  0  0  0  0  0  0  0  0  0  0  0
   35.0103   11.9660    5.8076 C   0  0  0  0  0  0  0  0  0  0  0  0
   34.2964   10.8139    5.8226 C   0  0  0  0  0  0  0  0  0  0  0  0
   33.1232   10.8435    6.5124 C   0  0  0  0  0  0  0  0  0  0  0  0
  1  2  1  0
  2  3  1  0
  3  4  2  0
  4  5  1  0
  5  6  2  0
  6  7  1  0
  7  8  2  0
  8  9  1  0
  9 10  2  0
 10 11  1  0
 11 12  1  0
 12 13  1  0
 12 14  2  0
 12 15  2  0
 11 16  2  0
 16 17  1  0
 17 18  2  0
 18  2  1  0
  8  3  1  0
 18  9  1  0
A    1
 C1 
A    2
 N1 
A    3
 C2 
A    4
 C3 
A    5
 C4 
A    6
 C5 
A    7
 C6 
A    8
 C7 
A    9
 C8 
A   10
 C9 
A   11
 C10
A   12
 S1 
A   13
 N2 
A   14
 O1 
A   15
 O2 
A   16
 C11
A   17
 C12
A   18
 C13
M  END
>  <ref_pdb>  (1573) 
Ax0310a

>  <ref_mols>  (1573) 
Ax0446a,Ax1080a,Ax0812a,Ax0719a,Ax1140a,Ax0528a,Ax0310a

>  <original SMILES>  (1573) 
Cn1c2ccccc2c2cc(S(N)(=O)=O)ccc21

>  <rationale>  (1573) 
info info set:sulfonimide_whole;

>  <experiment>  (1573) 
sulfonimide_whole

>  <cluster_label>  (1573) 
3

>  <cluster_rank>  (1573) 
1230

>  <N_interactions>  (1573) 
0

>  <∆∆G>  (1573) 
-1.59602

>  <comRMSD>  (1573) 
0.945363

>  <ROCS_TanimotoCombo>  (1573) 
0.333

>  <ROCS_ShapeTanimoto>  (1573) 
0.198

>  <ROCS_ColorTanimoto>  (1573) 
0.135

$$$$
EN300_195109
     RDKit          3D

 16 16  0  0  0  0  0  0  0  0999 V2000
   33.0203   13.5776    4.3067 C   0  0  0  0  0  0  0  0  0  0  0  0
   34.1790   12.8941    4.9706 C   0  0  0  0  0  0  0  0  0  0  0  0
   34.1254   11.5632    5.3285 C   0  0  0  0  0  0  0  0  0  0  0  0
   35.0210   10.6720    4.8421 O   0  0  0  0  0  0  0  0  0  0  0  0
   33.1388   11.1469    6.2071 C   0  0  0  0  0  0  0  0  0  0  0  0
   32.8999    9.7959    6.3303 C   0  0  0  0  0  0  0  0  0  0  0  0
   31.9432    9.3754    7.2136 C   0  0  0  0  0  0  0  0  0  0  0  0
   31.1856   10.3425    8.0075 C   0  0  0  0  0  0  0  0  0  0  0  0
   30.1560    9.4298    8.9778 Cl  0  0  0  0  0  0  0  0  0  0  0  0
   31.4131   11.7621    7.8678 C   0  0  0  0  0  0  0  0  0  0  0  0
   30.6987   13.2033    8.6171 S   0  0  0  0  0  6  0  0  0  0  0  0
   31.5467   14.2210    8.2191 O   0  0  0  0  0  0  0  0  0  0  0  0
   30.7815   13.5103   10.0830 O   0  0  0  0  0  0  0  0  0  0  0  0
   29.1394   13.4675    8.0549 N   0  0  0  0  0  0  0  0  0  0  0  0
   28.5424   14.7933    8.1985 C   0  0  0  0  0  0  0  0  0  0  0  0
   32.4173   12.1098    6.9445 C   0  0  0  0  0  0  0  0  0  0  0  0
  1  2  1  0
  2  3  1  0
  3  4  2  0
  3  5  1  0
  5  6  2  0
  6  7  1  0
  7  8  2  0
  8  9  1  0
  8 10  1  0
 10 11  1  0
 11 12  2  0
 11 13  2  0
 11 14  1  0
 14 15  1  0
 10 16  2  0
 16  5  1  0
A    1
 C1 
A    2
 C2 
A    3
 C3 
A    4
 O1 
A    5
 C4 
A    6
 C5 
A    7
 C6 
A    8
 C7 
A    9
CL1 
A   10
 C8 
A   11
 S1 
A   12
 O2 
A   13
 O3 
A   14
 N1 
A   15
 C9 
A   16
 C10
M  END
>  <ref_pdb>  (1574) 
Ax0310a

>  <ref_mols>  (1574) 
Ax0446a,Ax1080a,Ax0812a,Ax0719a,Ax1140a,Ax0528a,Ax0310a

>  <original SMILES>  (1574) 
CCC(=O)c1ccc(Cl)c(S(=O)(=O)NC)c1

>  <rationale>  (1574) 
info info set:sulfonimide_whole;hbond:S87+S125; 

>  <experiment>  (1574) 
sulfonimide_whole

>  <cluster_label>  (1574) 
3

>  <cluster_rank>  (1574) 
1231

>  <N_interactions>  (1574) 
2

>  <∆∆G>  (1574) 
-4.052474

>  <comRMSD>  (1574) 
0.638844

>  <ROCS_TanimotoCombo>  (1574) 
0.33

>  <ROCS_ShapeTanimoto>  (1574) 
0.198

>  <ROCS_ColorTanimoto>  (1574) 
0.132

$$$$
EN300_39847799
     RDKit          3D

 11 12  0  0  0  0  0  0  0  0999 V2000
   35.9292   12.7548    4.9233 N   0  0  0  0  0  2  0  0  0  0  0  0
   34.9181   12.2811    4.6922 N   0  0  0  0  0  4  0  0  0  0  0  0
   33.8070   11.7580    4.4774 N   0  0  0  0  0  0  0  0  0  0  0  0
   33.5678   10.5225    5.2230 C   0  0  0  0  0  0  0  0  0  0  0  0
   32.2995   10.6179    6.1001 C   0  0  2  0  0  0  0  0  0  0  0  0
   32.6858   11.5991    7.0630 C   0  0  0  0  0  0  0  0  0  0  0  0
   31.3999   11.4711    7.7498 C   0  0  2  0  0  0  0  0  0  0  0  0
   30.8497   12.5545    8.5096 N   0  0  0  0  0  0  0  0  0  0  0  0
   31.0842    9.9659    7.9200 C   0  0  0  0  0  0  0  0  0  0  0  0
   31.9246    9.4217    6.8652 O   0  0  0  0  0  0  0  0  0  0  0  0
   31.1682   11.7825    6.2638 C   0  0  0  0  0  0  0  0  0  0  0  0
  1  2  2  0
  2  3  2  0
  3  4  1  0
  5  4  1  6
  5  6  1  0
  6  7  1  0
  7  8  1  1
  7  9  1  0
  9 10  1  0
  7 11  1  0
 10  5  1  0
 11  5  1  0
M  CHG  2   1  -1   2   1
A    1
 N1 
A    2
 N2 
A    3
 N3 
A    4
 C1 
A    5
 C2 
A    6
 C3 
A    7
 C4 
A    8
 N4 
A    9
 C5 
A   10
 O1 
A   11
 C6 
M  END
>  <ref_pdb>  (1575) 
Ax0310a

>  <ref_mols>  (1575) 
Ax0446a,Ax1080a,Ax0812a,Ax0719a,Ax1140a,Ax0528a,Ax0310a

>  <original SMILES>  (1575) 
[N-]=[N+]=NC[C@]12C[C@](N)(CO1)C2

>  <rationale>  (1575) 
info info set:bb_densepocket;hbond:S125+G127; hydroph_interaction:P107; 

>  <experiment>  (1575) 
bb_densepocket

>  <cluster_label>  (1575) 
3

>  <cluster_rank>  (1575) 
1232

>  <N_interactions>  (1575) 
3

>  <∆∆G>  (1575) 
-1.666586

>  <comRMSD>  (1575) 
0.991512

>  <ROCS_TanimotoCombo>  (1575) 
0.703

>  <ROCS_ShapeTanimoto>  (1575) 
0.21

>  <ROCS_ColorTanimoto>  (1575) 
0.493

$$$$
Z432140670
     RDKit          3D

 18 19  0  0  0  0  0  0  0  0999 V2000
   28.6730   13.0700    7.9804 C   0  0  0  0  0  0  0  0  0  0  0  0
   29.9643   13.6709    7.5880 C   0  0  0  0  0  0  0  0  0  0  0  0
   31.1369   12.7889    7.8159 N   0  0  0  0  0  0  0  0  0  0  0  0
   31.1183   11.4799    7.1624 C   0  0  0  0  0  0  0  0  0  0  0  0
   30.3830   10.7301    8.0095 C   0  0  0  0  0  0  0  0  0  0  0  0
   30.6212    9.2602    8.0886 C   0  0  0  0  0  0  0  0  0  0  0  0
   31.7575    8.7919    7.4842 C   0  0  0  0  0  0  0  0  0  0  0  0
   32.5373    9.5528    6.5929 C   0  0  0  0  0  0  0  0  0  0  0  0
   32.4657   10.9368    6.7195 C   0  0  0  0  0  0  0  0  0  0  0  0
   32.6037   13.4813    8.2525 S   0  0  0  0  0  6  0  0  0  0  0  0
   33.5292   12.5969    8.8572 O   0  0  0  0  0  0  0  0  0  0  0  0
   32.2204   14.6409    9.0210 O   0  0  0  0  0  0  0  0  0  0  0  0
   33.4573   13.8932    6.8037 C   0  0  0  0  0  0  0  0  0  0  0  0
   34.8157   14.2078    6.6996 C   0  0  0  0  0  0  0  0  0  0  0  0
   35.1647   14.5119    5.4395 N   0  0  0  0  0  0  0  0  0  0  0  0
   34.0120   14.3875    4.7449 N   0  0  0  0  0  0  0  0  0  0  0  0
   34.0013   14.6698    3.3329 C   0  0  0  0  0  0  0  0  0  0  0  0
   32.9657   14.0008    5.5140 C   0  0  0  0  0  0  0  0  0  0  0  0
  1  2  1  0
  2  3  1  0
  3  4  1  0
  4  5  1  0
  5  6  1  0
  6  7  1  0
  7  8  1  0
  8  9  1  0
  3 10  1  0
 10 11  2  0
 10 12  2  0
 10 13  1  0
 13 14  1  0
 14 15  2  0
 15 16  1  0
 16 17  1  0
 16 18  1  0
  9  4  1  0
 18 13  2  0
A    1
 C1 
A    2
 C2 
A    3
 N1 
A    4
 C3 
A    5
 C4 
A    6
 C5 
A    7
 C6 
A    8
 C7 
A    9
 C8 
A   10
 S1 
A   11
 O1 
A   12
 O2 
A   13
 C9 
A   14
 C10
A   15
 N2 
A   16
 N3 
A   17
 C11
A   18
 C12
M  END
>  <ref_pdb>  (1576) 
Ax0310a

>  <ref_mols>  (1576) 
Ax0446a,Ax1080a,Ax0812a,Ax0719a,Ax1140a,Ax0528a,Ax0310a

>  <original SMILES>  (1576) 
CCN(C1CCCCC1)S(=O)(=O)c1cnn(C)c1

>  <rationale>  (1576) 
info info set:3d;hbond:S87+G127; 

>  <experiment>  (1576) 
3d

>  <cluster_label>  (1576) 
3

>  <cluster_rank>  (1576) 
1233

>  <N_interactions>  (1576) 
2

>  <∆∆G>  (1576) 
-1.631946

>  <comRMSD>  (1576) 
0.732688

>  <ROCS_TanimotoCombo>  (1576) 
0.303

>  <ROCS_ShapeTanimoto>  (1576) 
0.188

>  <ROCS_ColorTanimoto>  (1576) 
0.115

$$$$
EN300_2933700
     RDKit          3D

 13 13  0  0  0  0  0  0  0  0999 V2000
   27.1246   12.5937    7.6577 C   0  0  0  0  0  0  0  0  0  0  0  0
   28.3475   12.4555    8.5595 C   0  0  0  0  0  0  0  0  0  0  0  0
   29.6022   12.5471    7.8118 O   0  0  0  0  0  0  0  0  0  0  0  0
   30.1853   11.2202    8.1057 C   0  0  0  0  0  0  0  0  0  0  0  0
   29.7700   10.4654    8.9502 O   0  0  0  0  0  0  0  0  0  0  0  0
   31.3386   10.7368    7.2463 C   0  0  0  0  0  0  0  0  0  0  0  0
   32.0514   11.8124    6.4646 C   0  0  0  0  0  0  0  0  0  0  0  0
   33.1569   11.2796    5.6152 C   0  0  0  0  0  0  0  0  0  0  0  0
   33.4095    9.7352    5.6549 C   0  0  0  0  0  0  0  0  0  0  0  0
   34.6334    9.0112    4.7009 Cl  0  0  0  0  0  0  0  0  0  0  0  0
   32.6805    8.9057    6.4300 N   0  0  0  0  0  0  0  0  0  0  0  0
   31.6758    9.3978    7.2003 C   0  0  0  0  0  0  0  0  0  0  0  0
   30.9545    8.4749    7.9683 N   0  0  0  0  0  0  0  0  0  0  0  0
  1  2  1  0
  2  3  1  0
  3  4  1  0
  4  5  2  0
  4  6  1  0
  6  7  2  0
  7  8  1  0
  8  9  2  0
  9 10  1  0
  9 11  1  0
 11 12  2  0
 12 13  1  0
 12  6  1  0
A    1
 C1 
A    2
 C2 
A    3
 O1 
A    4
 C3 
A    5
 O2 
A    6
 C4 
A    7
 C5 
A    8
 C6 
A    9
 C7 
A   10
CL1 
A   11
 N1 
A   12
 C8 
A   13
 N2 
M  END
>  <ref_pdb>  (1577) 
Ax0310a

>  <ref_mols>  (1577) 
Ax0446a,Ax1080a,Ax0812a,Ax0719a,Ax1140a,Ax0528a,Ax0310a

>  <original SMILES>  (1577) 
CCOC(=O)c1ccc(Cl)nc1N

>  <rationale>  (1577) 
info info set:bb_densepocket2;hbond:S105; hydroph_interaction:P107; 

>  <experiment>  (1577) 
bb_densepocket2

>  <cluster_label>  (1577) 
3

>  <cluster_rank>  (1577) 
1234

>  <N_interactions>  (1577) 
2

>  <∆∆G>  (1577) 
-3.351467

>  <comRMSD>  (1577) 
0.649638

>  <ROCS_TanimotoCombo>  (1577) 
0.606

>  <ROCS_ShapeTanimoto>  (1577) 
0.233

>  <ROCS_ColorTanimoto>  (1577) 
0.373

$$$$
EN300_6449512
     RDKit          3D

 15 15  0  0  0  0  0  0  0  0999 V2000
   35.9302   11.7615    3.7479 C   0  0  0  0  0  0  0  0  0  0  0  0
   34.8370   10.8959    3.9357 O   0  0  0  0  0  0  0  0  0  0  0  0
   35.0324    9.9891    4.8826 C   0  0  0  0  0  0  0  0  0  0  0  0
   33.9538    9.0774    5.4188 C   0  0  0  0  0  0  0  0  0  0  0  0
   32.8955    9.7995    6.1044 N   0  0  0  0  0  0  0  0  0  0  0  0
   32.3675    9.1605    6.8584 N   0  0  0  0  0  0  0  0  0  0  0  0
   31.4023    9.8253    7.5028 C   0  0  0  0  0  0  0  0  0  0  0  0
   30.4900    9.2601    8.5917 C   0  0  0  0  0  0  0  0  0  0  0  0
   31.2962   11.2964    7.0091 C   0  0  0  0  0  0  0  0  0  0  0  0
   30.3564   12.6759    7.3415 S   0  0  0  0  0  6  0  0  0  0  0  0
   29.1794   12.4354    8.4820 N   0  0  0  0  0  0  0  0  0  0  0  0
   31.2896   13.6193    7.9178 O   0  0  0  0  0  0  0  0  0  0  0  0
   29.6317   12.9281    6.1213 O   0  0  0  0  0  0  0  0  0  0  0  0
   32.4417   11.0609    6.0144 C   0  0  0  0  0  0  0  0  0  0  0  0
   32.9394   12.1551    5.0904 C   0  0  0  0  0  0  0  0  0  0  0  0
  1  2  1  0
  2  3  1  0
  3  4  1  0
  4  5  1  0
  5  6  1  0
  6  7  2  0
  7  8  1  0
  7  9  1  0
  9 10  1  0
 10 11  1  0
 10 12  2  0
 10 13  2  0
  9 14  2  0
 14 15  1  0
 14  5  1  0
A    1
 C1 
A    2
 O1 
A    3
 C2 
A    4
 C3 
A    5
 N1 
A    6
 N2 
A    7
 C4 
A    8
 C5 
A    9
 C6 
A   10
 S1 
A   11
 N3 
A   12
 O2 
A   13
 O3 
A   14
 C7 
A   15
 C8 
M  END
>  <ref_pdb>  (1578) 
Ax0310a

>  <ref_mols>  (1578) 
Ax0446a,Ax1080a,Ax0812a,Ax0719a,Ax1140a,Ax0528a,Ax0310a

>  <original SMILES>  (1578) 
COCCn1nc(C)c(S(N)(=O)=O)c1C

>  <rationale>  (1578) 
info info set:sulfonimide_whole;hbond:S87+S125; hydroph_interaction:P107; 

>  <experiment>  (1578) 
sulfonimide_whole

>  <cluster_label>  (1578) 
3

>  <cluster_rank>  (1578) 
1235

>  <N_interactions>  (1578) 
3

>  <∆∆G>  (1578) 
-6.830238

>  <comRMSD>  (1578) 
0.881792

>  <ROCS_TanimotoCombo>  (1578) 
0.328

>  <ROCS_ShapeTanimoto>  (1578) 
0.184

>  <ROCS_ColorTanimoto>  (1578) 
0.143

$$$$
Z2025201597
     RDKit          3D

 11 11  0  0  0  0  0  0  0  0999 V2000
   31.8844   15.0212    9.6989 C   0  0  0  0  0  0  0  0  0  0  0  0
   31.3786   14.2462    8.6318 O   0  0  0  0  0  0  0  0  0  0  0  0
   32.1769   13.2871    8.0574 C   0  0  0  0  0  0  0  0  0  0  0  0
   31.6038   12.2979    7.2682 C   0  0  0  0  0  0  0  0  0  0  0  0
   30.9036   12.7649    6.1646 C   0  0  0  0  0  0  0  0  0  0  0  0
   29.6226   13.1819    6.2019 N   0  0  0  0  0  0  0  0  0  0  0  0
   30.5326   11.5261    8.0815 C   0  0  0  0  0  0  0  0  0  0  0  0
   30.6847   10.1454    8.2658 C   0  0  0  0  0  0  0  0  0  0  0  0
   31.7581    9.4297    7.6003 N   0  0  0  0  0  0  0  0  0  0  0  0
   32.2943   10.1073    6.4636 C   0  0  0  0  0  0  0  0  0  0  0  0
   32.7281   11.4162    6.7217 C   0  0  0  0  0  0  0  0  0  0  0  0
  1  2  1  0
  2  3  1  0
  3  4  1  0
  4  5  1  0
  5  6  3  0
  4  7  1  0
  7  8  1  0
  8  9  1  0
  9 10  1  0
 10 11  1  0
 11  4  1  0
A    1
 C1 
A    2
 O1 
A    3
 C2 
A    4
 C3 
A    5
 C4 
A    6
 N1 
A    7
 C5 
A    8
 C6 
A    9
 N2 
A   10
 C7 
A   11
 C8 
M  END
>  <ref_pdb>  (1579) 
Ax0310a

>  <ref_mols>  (1579) 
Ax0446a,Ax1080a,Ax0812a,Ax0719a,Ax1140a,Ax0528a,Ax0310a

>  <original SMILES>  (1579) 
COCC1(C#N)CCNCC1

>  <rationale>  (1579) 
info info set:3d;hbond:S87+S105; 

>  <experiment>  (1579) 
3d

>  <cluster_label>  (1579) 
3

>  <cluster_rank>  (1579) 
1236

>  <N_interactions>  (1579) 
2

>  <∆∆G>  (1579) 
-0.950434

>  <comRMSD>  (1579) 
0.67503

>  <ROCS_TanimotoCombo>  (1579) 
0.285

>  <ROCS_ShapeTanimoto>  (1579) 
0.156

>  <ROCS_ColorTanimoto>  (1579) 
0.129

$$$$
EN300_7410935
     RDKit          3D

 20 21  0  0  0  0  0  0  0  0999 V2000
   41.4248   11.1704   12.5862 C   0  0  0  0  0  0  0  0  0  0  0  0
   41.5145   12.3974   11.8939 N   0  0  0  0  0  0  0  0  0  0  0  0
   40.3109   13.3594   12.4963 S   0  0  0  0  0  6  0  0  0  0  0  0
   40.3825   14.5499   11.6981 O   0  0  0  0  0  0  0  0  0  0  0  0
   40.5049   13.3056   13.9267 O   0  0  0  0  0  0  0  0  0  0  0  0
   38.7948   12.5273   12.1445 C   0  0  0  0  0  0  0  0  0  0  0  0
   38.4131   11.3129   12.9814 C   0  0  0  0  0  0  0  0  0  0  0  0
   37.1620   10.6952   12.5913 C   0  0  0  0  0  0  0  0  0  0  0  0
   36.3399   11.2233   11.4752 C   0  0  0  0  0  0  0  0  0  0  0  0
   36.7340   12.3439   10.7545 C   0  0  0  0  0  0  0  0  0  0  0  0
   35.7780   12.9001    9.5592 B   0  0  0  0  0  0  0  0  0  0  0  0
   36.1886   13.5562    8.3162 O   0  0  0  0  0  0  0  0  0  0  0  0
   35.0070   13.5901    7.4306 C   0  0  0  0  0  0  0  0  0  0  0  0
   35.1863   12.7907    6.1286 C   0  0  0  0  0  0  0  0  0  0  0  0
   34.8546   14.9764    7.0262 C   0  0  0  0  0  0  0  0  0  0  0  0
   33.7879   13.1036    8.2569 C   0  0  0  0  0  0  0  0  0  0  0  0
   32.8276   12.2007    7.4719 C   0  0  0  0  0  0  0  0  0  0  0  0
   33.0263   14.0539    8.8197 C   0  0  0  0  0  0  0  0  0  0  0  0
   34.3511   12.4994    9.3840 O   0  0  0  0  0  0  0  0  0  0  0  0
   37.8902   13.0401   10.9870 C   0  0  0  0  0  0  0  0  0  0  0  0
  1  2  1  0
  2  3  1  0
  3  4  2  0
  3  5  2  0
  3  6  1  0
  6  7  2  0
  7  8  1  0
  8  9  2  0
  9 10  1  0
 10 11  1  0
 11 12  1  0
 12 13  1  0
 13 14  1  0
 13 15  1  0
 13 16  1  0
 16 17  1  0
 16 18  1  0
 16 19  1  0
 10 20  2  0
 20  6  1  0
 19 11  1  0
A    1
 C1 
A    2
 N1 
A    3
 S1 
A    4
 O1 
A    5
 O2 
A    6
 C2 
A    7
 C3 
A    8
 C4 
A    9
 C5 
A   10
 C6 
A   11
 B1 
A   12
 O3 
A   13
 C7 
A   14
 C8 
A   15
 C9 
A   16
 C10
A   17
 C11
A   18
 C12
A   19
 O4 
A   20
 C13
M  END
>  <ref_pdb>  (1580) 
Ax0310a

>  <ref_mols>  (1580) 
Ax0446a,Ax1080a,Ax0812a,Ax0719a,Ax1140a,Ax0528a,Ax0310a

>  <original SMILES>  (1580) 
CNS(=O)(=O)c1cccc(B2OC(C)(C)C(C)(C)O2)c1

>  <rationale>  (1580) 
info info set:sulfonimide_joint;hbond:G127+E85; hydroph_interaction:E85+L100; 

>  <experiment>  (1580) 
sulfonimide_joint

>  <cluster_label>  (1580) 
3

>  <cluster_rank>  (1580) 
1237

>  <N_interactions>  (1580) 
4

>  <∆∆G>  (1580) 
-1.131564

>  <comRMSD>  (1580) 
0.944264

>  <ROCS_TanimotoCombo>  (1580) 
0.303

>  <ROCS_ShapeTanimoto>  (1580) 
0.205

>  <ROCS_ColorTanimoto>  (1580) 
0.098

$$$$
Z1517966058
     RDKit          3D

 21 22  0  0  0  0  0  0  0  0999 V2000
   28.6163   15.6785    7.2434 N   0  0  0  0  0  0  0  0  0  0  0  0
   29.0924   14.8465    7.8399 C   0  0  0  0  0  0  0  0  0  0  0  0
   29.5941   13.7370    8.6326 C   0  0  0  0  0  0  0  0  0  0  0  0
   30.1252   12.7227    7.6657 N   0  0  0  0  0  0  0  0  0  0  0  0
   30.5887   11.4380    7.9549 C   0  0  0  0  0  0  0  0  0  0  0  0
   30.2241   10.7322    8.8558 O   0  0  0  0  0  0  0  0  0  0  0  0
   31.5947   10.8632    7.0653 C   0  0  0  0  0  0  0  0  0  0  0  0
   32.3038   11.6028    6.1408 C   0  0  0  0  0  0  0  0  0  0  0  0
   33.2345   10.9708    5.3250 C   0  0  0  0  0  0  0  0  0  0  0  0
   33.4472    9.6016    5.4445 C   0  0  0  0  0  0  0  0  0  0  0  0
   34.4846    8.9774    4.4911 C   0  0  0  0  0  0  0  0  0  0  0  0
   33.9802    8.2715    3.4492 F   0  0  0  0  0  0  0  0  0  0  0  0
   35.3615    8.1341    5.0839 F   0  0  0  0  0  0  0  0  0  0  0  0
   35.2545    9.8985    3.8731 F   0  0  0  0  0  0  0  0  0  0  0  0
   32.7575    8.8719    6.3660 N   0  0  0  0  0  0  0  0  0  0  0  0
   31.8509    9.5059    7.1497 C   0  0  0  0  0  0  0  0  0  0  0  0
   30.7228   14.2370    9.5571 C   0  0  0  0  0  0  0  0  0  0  0  0
   30.3930   15.1559   10.6876 C   0  0  0  0  0  0  0  0  0  0  0  0
   28.9871   14.6336   11.6859 S   0  0  0  0  0  0  0  0  0  0  0  0
   27.7746   14.0090   10.4856 C   0  0  0  0  0  0  0  0  0  0  0  0
   28.2624   13.3325    9.2272 C   0  0  0  0  0  0  0  0  0  0  0  0
  1  2  3  0
  2  3  1  0
  3  4  1  0
  4  5  1  0
  5  6  2  0
  5  7  1  0
  7  8  2  0
  8  9  1  0
  9 10  2  0
 10 11  1  0
 11 12  1  0
 11 13  1  0
 11 14  1  0
 10 15  1  0
 15 16  2  0
  3 17  1  0
 17 18  1  0
 18 19  1  0
 19 20  1  0
 20 21  1  0
 21  3  1  0
 16  7  1  0
A    1
 N1 
A    2
 C1 
A    3
 C2 
A    4
 N2 
A    5
 C3 
A    6
 O1 
A    7
 C4 
A    8
 C5 
A    9
 C6 
A   10
 C7 
A   11
 C8 
A   12
 F1 
A   13
 F2 
A   14
 F3 
A   15
 N3 
A   16
 C9 
A   17
 C10
A   18
 C11
A   19
 S1 
A   20
 C12
A   21
 C13
M  END
>  <ref_pdb>  (1581) 
Ax0310a

>  <ref_mols>  (1581) 
Ax0446a,Ax1080a,Ax0812a,Ax0719a,Ax1140a,Ax0528a,Ax0310a

>  <original SMILES>  (1581) 
N#CC1(NC(=O)c2ccc(C(F)(F)F)nc2)CCSCC1

>  <rationale>  (1581) 
info info set:screening_pocket;hydroph_interaction:P107; 

>  <experiment>  (1581) 
screening_pocket

>  <cluster_label>  (1581) 
3

>  <cluster_rank>  (1581) 
1238

>  <N_interactions>  (1581) 
1

>  <∆∆G>  (1581) 
-0.126898

>  <comRMSD>  (1581) 
0.724255

>  <ROCS_TanimotoCombo>  (1581) 
0.627

>  <ROCS_ShapeTanimoto>  (1581) 
0.229

>  <ROCS_ColorTanimoto>  (1581) 
0.398

$$$$
Z416372424
     RDKit          3D

 14 15  0  0  0  0  0  0  0  0999 V2000
   34.4239    9.5452    3.6082 C   0  0  0  0  0  0  0  0  0  0  0  0
   34.3232   10.5928    4.6063 N   0  0  0  0  0  0  0  0  0  0  0  0
   33.1670   10.7688    5.4313 C   0  0  0  0  0  0  0  0  0  0  0  0
   33.4368   11.8404    6.2414 C   0  0  0  0  0  0  0  0  0  0  0  0
   32.4095   12.4820    7.4349 S   0  0  0  0  0  6  0  0  0  0  0  0
   33.2500   12.8288    8.5643 O   0  0  0  0  0  0  0  0  0  0  0  0
   31.5403   13.3959    6.7569 O   0  0  0  0  0  0  0  0  0  0  0  0
   31.5426   11.1335    7.8746 N   0  0  0  0  0  0  0  0  0  0  0  0
   30.1003   11.1610    8.0066 C   0  0  0  0  0  0  0  0  0  0  0  0
   30.0052    9.7023    8.2930 C   0  0  0  0  0  0  0  0  0  0  0  0
   31.1542    9.0720    7.9304 C   0  0  0  0  0  0  0  0  0  0  0  0
   31.8680    9.9842    7.1992 C   0  0  0  0  0  0  0  0  0  0  0  0
   34.7159   12.2996    5.9095 C   0  0  0  0  0  0  0  0  0  0  0  0
   35.2704   11.5162    4.8919 N   0  0  0  0  0  0  0  0  0  0  0  0
  1  2  1  0
  2  3  1  0
  3  4  2  0
  4  5  1  0
  5  6  2  0
  5  7  2  0
  5  8  1  0
  8  9  1  0
  9 10  1  0
 10 11  1  0
 11 12  1  0
  4 13  1  0
 13 14  2  0
 14  2  1  0
 12  8  1  0
A    1
 C1 
A    2
 N1 
A    3
 C2 
A    4
 C3 
A    5
 S1 
A    6
 O1 
A    7
 O2 
A    8
 N2 
A    9
 C4 
A   10
 C5 
A   11
 C6 
A   12
 C7 
A   13
 C8 
A   14
 N3 
M  END
>  <ref_pdb>  (1582) 
Ax0310a

>  <ref_mols>  (1582) 
Ax0446a,Ax1080a,Ax0812a,Ax0719a,Ax1140a,Ax0528a,Ax0310a

>  <original SMILES>  (1582) 
Cn1cc(S(=O)(=O)N2CCCC2)cn1

>  <rationale>  (1582) 
info info set:3d;hbond:G127; 

>  <experiment>  (1582) 
3d

>  <cluster_label>  (1582) 
3

>  <cluster_rank>  (1582) 
1239

>  <N_interactions>  (1582) 
1

>  <∆∆G>  (1582) 
-2.026227

>  <comRMSD>  (1582) 
0.841218

>  <ROCS_TanimotoCombo>  (1582) 
0.291

>  <ROCS_ShapeTanimoto>  (1582) 
0.175

>  <ROCS_ColorTanimoto>  (1582) 
0.116

$$$$
EN300_703228
     RDKit          3D

 15 16  0  0  0  0  0  0  0  0999 V2000
   28.0387   13.4269    7.8786 C   0  0  0  0  0  0  0  0  0  0  0  0
   29.3119   13.7568    7.1686 C   0  0  0  0  0  0  0  0  0  0  0  0
   29.9561   12.5543    6.7273 O   0  0  0  0  0  0  0  0  0  0  0  0
   30.9384   12.1502    7.5603 C   0  0  0  0  0  0  0  0  0  0  0  0
   31.1893   12.7359    8.5976 O   0  0  0  0  0  0  0  0  0  0  0  0
   31.6819   10.9228    7.0633 C   0  0  0  0  0  0  0  0  0  0  0  0
   32.6038   10.8559    5.8317 C   0  0  0  0  0  0  0  0  0  0  0  0
   32.4970   12.3608    5.3130 C   0  0  0  0  0  0  0  0  0  0  0  0
   33.5173   13.0070    4.6550 C   0  0  0  0  0  0  0  0  0  0  0  0
   33.8798   12.5442    6.0805 C   0  0  0  0  0  0  0  0  0  0  0  0
   33.1367    9.6335    5.6426 C   0  0  0  0  0  0  0  0  0  0  0  0
   32.5975    8.8139    6.7410 O   0  0  0  0  0  0  0  0  0  0  0  0
   31.7690    9.6160    7.5279 C   0  0  0  0  0  0  0  0  0  0  0  0
   31.2016    8.9355    8.6755 C   0  0  0  0  0  0  0  0  0  0  0  0
   29.5701    8.1307    8.4871 Br  0  0  0  0  0  0  0  0  0  0  0  0
  1  2  1  0
  2  3  1  0
  3  4  1  0
  4  5  2  0
  4  6  1  0
  6  7  1  0
  7  8  1  0
  8  9  1  0
  9 10  1  0
  7 11  2  0
 11 12  1  0
 12 13  1  0
 13 14  1  0
 14 15  1  0
 13  6  2  0
 10  8  1  0
A    1
 C1 
A    2
 C2 
A    3
 O1 
A    4
 C3 
A    5
 O2 
A    6
 C4 
A    7
 C5 
A    8
 C6 
A    9
 C7 
A   10
 C8 
A   11
 C9 
A   12
 O3 
A   13
 C10
A   14
 C11
A   15
BR1 
M  END
>  <ref_pdb>  (1583) 
Ax0310a

>  <ref_mols>  (1583) 
Ax0446a,Ax1080a,Ax0812a,Ax0719a,Ax1140a,Ax0528a,Ax0310a

>  <original SMILES>  (1583) 
CCOC(=O)c1c(C2CC2)coc1CBr

>  <rationale>  (1583) 
info info set:bb_densepocket2;hbond:G127; hydroph_interaction:P107; 

>  <experiment>  (1583) 
bb_densepocket2

>  <cluster_label>  (1583) 
3

>  <cluster_rank>  (1583) 
1240

>  <N_interactions>  (1583) 
2

>  <∆∆G>  (1583) 
-0.975502

>  <comRMSD>  (1583) 
0.810369

>  <ROCS_TanimotoCombo>  (1583) 
0.611

>  <ROCS_ShapeTanimoto>  (1583) 
0.23

>  <ROCS_ColorTanimoto>  (1583) 
0.381

$$$$
EN300_1989420
     RDKit          3D

 18 19  0  0  0  0  0  0  0  0999 V2000
   32.5169   14.1749    9.0032 C   0  0  0  0  0  0  0  0  0  0  0  0
   33.2482   13.0899    8.2275 C   0  0  0  0  0  0  0  0  0  0  0  0
   32.2895   12.0775    7.6272 C   0  0  0  0  0  0  0  0  0  0  0  0
   33.9370   12.5258    9.2708 O   0  0  0  0  0  0  0  0  0  0  0  0
   35.3290   13.0312    9.2930 B   0  0  0  0  0  0  0  0  0  0  0  0
   36.4278   12.5111   10.3246 C   0  0  0  0  0  0  0  0  0  0  0  0
   36.5150   11.4359   11.3286 C   0  0  0  0  0  0  0  0  0  0  0  0
   37.6635   11.3377   12.0782 C   0  0  0  0  0  0  0  0  0  0  0  0
   38.6943   12.2721   11.8293 C   0  0  0  0  0  0  0  0  0  0  0  0
   40.2413   12.4836   12.5313 S   0  0  0  0  0  6  0  0  0  0  0  0
   41.2453   11.2856   11.9417 N   0  0  0  0  0  0  0  0  0  0  0  0
   40.8213   13.7253   12.0977 O   0  0  0  0  0  0  0  0  0  0  0  0
   40.1718   12.4239   14.0436 O   0  0  0  0  0  0  0  0  0  0  0  0
   38.0480   13.2812   10.5312 S   0  0  0  0  0  0  0  0  0  0  0  0
   35.6027   13.3194    7.8856 O   0  0  0  0  0  0  0  0  0  0  0  0
   34.3791   13.3649    7.1916 C   0  0  0  0  0  0  0  0  0  0  0  0
   34.3958   14.5076    6.4306 C   0  0  0  0  0  0  0  0  0  0  0  0
   34.3650   12.2646    6.1015 C   0  0  0  0  0  0  0  0  0  0  0  0
  1  2  1  0
  2  3  1  0
  2  4  1  0
  4  5  1  0
  5  6  1  0
  6  7  2  0
  7  8  1  0
  8  9  2  0
  9 10  1  0
 10 11  1  0
 10 12  2  0
 10 13  2  0
  9 14  1  0
  5 15  1  0
 15 16  1  0
 16 17  1  0
 16 18  1  0
 16  2  1  0
 14  6  1  0
A    1
 C1 
A    2
 C2 
A    3
 C3 
A    4
 O1 
A    5
 B1 
A    6
 C4 
A    7
 C5 
A    8
 C6 
A    9
 C7 
A   10
 S1 
A   11
 N1 
A   12
 O2 
A   13
 O3 
A   14
 S2 
A   15
 O4 
A   16
 C8 
A   17
 C9 
A   18
 C10
M  END
>  <ref_pdb>  (1584) 
Ax0310a

>  <ref_mols>  (1584) 
Ax0446a,Ax1080a,Ax0812a,Ax0719a,Ax1140a,Ax0528a,Ax0310a

>  <original SMILES>  (1584) 
CC1(C)OB(c2ccc(S(N)(=O)=O)s2)OC1(C)C

>  <rationale>  (1584) 
info info set:sulfonimide_joint;hbond:G127; hydroph_interaction:V84; 

>  <experiment>  (1584) 
sulfonimide_joint

>  <cluster_label>  (1584) 
3

>  <cluster_rank>  (1584) 
1241

>  <N_interactions>  (1584) 
2

>  <∆∆G>  (1584) 
-1.462682

>  <comRMSD>  (1584) 
0.73306

>  <ROCS_TanimotoCombo>  (1584) 
0.31

>  <ROCS_ShapeTanimoto>  (1584) 
0.203

>  <ROCS_ColorTanimoto>  (1584) 
0.106

$$$$
Z1144979658
     RDKit          3D

 17 18  0  0  0  0  0  0  0  0999 V2000
   30.0507   10.4525    8.9728 O   0  0  0  0  0  0  0  0  0  0  0  0
   30.3901   11.3608    8.2513 C   0  0  0  0  0  0  0  0  0  0  0  0
   31.4322   10.8710    7.3601 C   0  0  0  0  0  0  0  0  0  0  0  0
   32.2717   11.7911    6.5218 C   0  0  0  0  0  0  0  0  0  0  0  0
   33.2890   11.0879    5.6656 C   0  0  0  0  0  0  0  0  0  0  0  0
   33.3730    9.6976    5.7165 C   0  0  0  0  0  0  0  0  0  0  0  0
   32.5921    8.9267    6.4946 N   0  0  0  0  0  0  0  0  0  0  0  0
   31.6709    9.5153    7.2730 C   0  0  0  0  0  0  0  0  0  0  0  0
   30.9751    8.6046    7.9886 O   0  0  0  0  0  0  0  0  0  0  0  0
   29.8779   12.7001    8.2512 N   0  0  0  0  0  0  0  0  0  0  0  0
   28.8770   13.3843    9.0703 C   0  0  0  0  0  0  0  0  0  0  0  0
   28.4392   14.6001    8.2758 C   0  0  0  0  0  0  0  0  0  0  0  0
   27.2409   15.0559    8.6495 F   0  0  0  0  0  0  0  0  0  0  0  0
   29.3244   15.5803    8.5434 F   0  0  0  0  0  0  0  0  0  0  0  0
   29.6298   13.3227    7.0323 C   0  0  0  0  0  0  0  0  0  0  0  0
   28.5755   12.8939    6.2289 C   0  0  0  0  0  0  0  0  0  0  0  0
   29.9883   12.6965    5.7931 C   0  0  0  0  0  0  0  0  0  0  0  0
  1  2  2  0
  2  3  1  0
  3  4  2  0
  4  5  1  0
  5  6  2  0
  6  7  1  0
  7  8  2  0
  8  9  1  0
  2 10  1  0
 10 11  1  0
 11 12  1  0
 12 13  1  0
 12 14  1  0
 10 15  1  0
 15 16  1  0
 16 17  1  0
  8  3  1  0
 17 15  1  0
A    1
 O1 
A    2
 C1 
A    3
 C2 
A    4
 C3 
A    5
 C4 
A    6
 C5 
A    7
 N1 
A    8
 C6 
A    9
 O2 
A   10
 N2 
A   11
 C7 
A   12
 C8 
A   13
 F1 
A   14
 F2 
A   15
 C9 
A   16
 C10
A   17
 C11
M  END
>  <ref_pdb>  (1585) 
Ax0310a

>  <ref_mols>  (1585) 
Ax0446a,Ax1080a,Ax0812a,Ax0719a,Ax1140a,Ax0528a,Ax0310a

>  <original SMILES>  (1585) 
O=C(c1cccnc1O)N(CC(F)F)C1CC1

>  <rationale>  (1585) 
info info set:screening_pocket;hydroph_interaction:P107; 

>  <experiment>  (1585) 
screening_pocket

>  <cluster_label>  (1585) 
3

>  <cluster_rank>  (1585) 
1242

>  <N_interactions>  (1585) 
1

>  <∆∆G>  (1585) 
-0.400793

>  <comRMSD>  (1585) 
0.877178

>  <ROCS_TanimotoCombo>  (1585) 
0.634

>  <ROCS_ShapeTanimoto>  (1585) 
0.246

>  <ROCS_ColorTanimoto>  (1585) 
0.389

$$$$
EN300_269872
     RDKit          3D

 14 14  0  0  0  0  0  0  0  0999 V2000
   32.2610    8.1395    7.1953 N   0  0  0  0  0  0  0  0  0  0  0  0
   31.8949    9.4221    7.1517 C   0  0  0  0  0  0  0  0  0  0  0  0
   30.7825    9.8770    8.0755 C   0  0  0  0  0  0  0  0  0  0  0  0
   30.3514   11.3264    8.0228 C   0  0  0  0  0  0  0  0  0  0  0  0
   31.1254   12.1693    7.0033 C   0  0  0  0  0  0  0  0  0  0  0  0
   30.6900   13.4455    6.9867 O   0  0  0  0  0  0  0  0  0  0  0  0
   29.2607   13.6028    6.9983 C   0  0  0  0  0  0  0  0  0  0  0  0
   28.9124   14.6680    8.0604 C   0  0  0  0  0  0  0  0  0  0  0  0
   30.1454   14.7535    9.3544 S   0  0  0  0  0  6  0  0  0  0  0  0
   29.2486   14.3565   10.6945 N   0  0  0  0  0  0  0  0  0  0  0  0
   30.5484   16.0997    9.6308 O   0  0  0  0  0  0  0  0  0  0  0  0
   31.1604   13.7488    9.1527 O   0  0  0  0  0  0  0  0  0  0  0  0
   32.1416   11.6321    6.2133 C   0  0  0  0  0  0  0  0  0  0  0  0
   32.5098   10.3005    6.2879 C   0  0  0  0  0  0  0  0  0  0  0  0
  1  2  1  0
  2  3  2  0
  3  4  1  0
  4  5  2  0
  5  6  1  0
  6  7  1  0
  7  8  1  0
  8  9  1  0
  9 10  1  0
  9 11  2  0
  9 12  2  0
  5 13  1  0
 13 14  2  0
 14  2  1  0
A    1
 N1 
A    2
 C1 
A    3
 C2 
A    4
 C3 
A    5
 C4 
A    6
 O1 
A    7
 C5 
A    8
 C6 
A    9
 S1 
A   10
 N2 
A   11
 O2 
A   12
 O3 
A   13
 C7 
A   14
 C8 
M  END
>  <ref_pdb>  (1586) 
Ax0310a

>  <ref_mols>  (1586) 
Ax0446a,Ax1080a,Ax0812a,Ax0719a,Ax1140a,Ax0528a,Ax0310a

>  <original SMILES>  (1586) 
Nc1ccc(OCCS(N)(=O)=O)cc1

>  <rationale>  (1586) 
info info set:sulfonimide_whole;hbond:S87+S105+S125; hydroph_interaction:P107; 

>  <experiment>  (1586) 
sulfonimide_whole

>  <cluster_label>  (1586) 
3

>  <cluster_rank>  (1586) 
1243

>  <N_interactions>  (1586) 
4

>  <∆∆G>  (1586) 
-5.143825

>  <comRMSD>  (1586) 
0.600733

>  <ROCS_TanimotoCombo>  (1586) 
0.332

>  <ROCS_ShapeTanimoto>  (1586) 
0.184

>  <ROCS_ColorTanimoto>  (1586) 
0.148

$$$$
EN300_199277
     RDKit          3D

 17 17  0  0  0  0  0  0  0  0999 V2000
   29.4334   11.8926    8.3409 C   0  0  0  0  0  0  0  0  0  0  0  0
   30.7447   12.2531    8.1454 N   0  0  0  0  0  0  0  0  0  0  0  0
   31.5113   11.2721    7.5214 C   0  0  0  0  0  0  0  0  0  0  0  0
   31.4389    9.7643    7.6196 C   0  0  0  0  0  0  0  0  0  0  0  0
   30.3219    8.8707    8.5876 Cl  0  0  0  0  0  0  0  0  0  0  0  0
   32.4962    9.0308    6.7569 C   0  0  0  0  0  0  0  0  0  0  0  0
   33.4401    9.7439    5.9639 C   0  0  0  0  0  0  0  0  0  0  0  0
   34.4843    9.1506    5.1481 N   0  0  0  0  0  4  0  0  0  0  0  0
   35.0663    8.2274    5.6897 O   0  0  0  0  0  0  0  0  0  0  0  0
   35.1220    9.9805    4.4874 O   0  0  0  0  0  1  0  0  0  0  0  0
   33.4057   11.0944    5.9481 C   0  0  0  0  0  0  0  0  0  0  0  0
   32.4125   11.7979    6.7480 C   0  0  0  0  0  0  0  0  0  0  0  0
   32.2612   13.4387    6.7919 S   0  0  0  0  0  6  0  0  0  0  0  0
   33.3663   14.0157    6.0574 O   0  0  0  0  0  0  0  0  0  0  0  0
   31.8741   13.8598    8.1337 O   0  0  0  0  0  0  0  0  0  0  0  0
   30.8730   13.4778    5.7860 N   0  0  0  0  0  0  0  0  0  0  0  0
   29.5236   13.6383    6.3572 C   0  0  0  0  0  0  0  0  0  0  0  0
  1  2  1  0
  2  3  1  0
  3  4  2  0
  4  5  1  0
  4  6  1  0
  6  7  2  0
  7  8  1  0
  8  9  2  0
  8 10  1  0
  7 11  1  0
 11 12  2  0
 12 13  1  0
 13 14  2  0
 13 15  2  0
 13 16  1  0
 16 17  1  0
 12  3  1  0
M  CHG  2   8   1  10  -1
A    1
 C1 
A    2
 N1 
A    3
 C2 
A    4
 C3 
A    5
CL1 
A    6
 C4 
A    7
 C5 
A    8
 N2 
A    9
 O1 
A   10
 O2 
A   11
 C6 
A   12
 C7 
A   13
 S1 
A   14
 O3 
A   15
 O4 
A   16
 N3 
A   17
 C8 
M  END
>  <ref_pdb>  (1587) 
Ax0310a

>  <ref_mols>  (1587) 
Ax0446a,Ax1080a,Ax0812a,Ax0719a,Ax1140a,Ax0528a,Ax0310a

>  <original SMILES>  (1587) 
CNc1c(Cl)cc([N+](=O)[O-])cc1S(=O)(=O)NC

>  <rationale>  (1587) 
info info set:sulfonimide_whole;hbond:S87+G127; 

>  <experiment>  (1587) 
sulfonimide_whole

>  <cluster_label>  (1587) 
3

>  <cluster_rank>  (1587) 
1244

>  <N_interactions>  (1587) 
2

>  <∆∆G>  (1587) 
-0.670747

>  <comRMSD>  (1587) 
0.803203

>  <ROCS_TanimotoCombo>  (1587) 
0.335

>  <ROCS_ShapeTanimoto>  (1587) 
0.213

>  <ROCS_ColorTanimoto>  (1587) 
0.122

$$$$
EN300_1700547
     RDKit          3D

 12 12  0  0  0  0  0  0  0  0999 V2000
   28.7016   13.0312    8.0165 C   0  0  0  0  0  0  0  0  0  0  0  0
   30.0300   12.6609    7.6192 O   0  0  0  0  0  0  0  0  0  0  0  0
   30.4306   11.4118    7.9893 C   0  0  0  0  0  0  0  0  0  0  0  0
   30.0211   10.7380    8.8791 O   0  0  0  0  0  0  0  0  0  0  0  0
   31.4929   10.8744    7.1451 C   0  0  0  0  0  0  0  0  0  0  0  0
   32.3282   11.7584    6.2313 C   0  0  0  0  0  0  0  0  0  0  0  0
   33.4271   11.1241    5.3622 C   0  0  0  0  0  0  0  0  0  0  0  0
   33.5730    9.5979    5.5160 C   0  0  0  0  0  0  0  0  0  0  0  0
   34.6113    8.8684    4.7066 C   0  0  0  0  0  0  0  0  0  0  0  0
   32.7414    8.8435    6.4104 N   0  0  0  0  0  0  0  0  0  0  0  0
   31.8034    9.4073    7.1479 C   0  0  0  0  0  0  0  0  0  0  0  0
   31.1365    8.4965    7.9204 O   0  0  0  0  0  0  0  0  0  0  0  0
  1  2  1  0
  2  3  1  0
  3  4  2  0
  3  5  1  0
  5  6  2  0
  6  7  1  0
  7  8  2  0
  8  9  1  0
  8 10  1  0
 10 11  2  0
 11 12  1  0
 11  5  1  0
A    1
 C1 
A    2
 O1 
A    3
 C2 
A    4
 O2 
A    5
 C3 
A    6
 C4 
A    7
 C5 
A    8
 C6 
A    9
 C7 
A   10
 N1 
A   11
 C8 
A   12
 O3 
M  END
>  <ref_pdb>  (1588) 
Ax0310a

>  <ref_mols>  (1588) 
Ax0446a,Ax1080a,Ax0812a,Ax0719a,Ax1140a,Ax0528a,Ax0310a

>  <original SMILES>  (1588) 
COC(=O)c1ccc(C)nc1O

>  <rationale>  (1588) 
info info set:bb_densepocket2;hydroph_interaction:P107; 

>  <experiment>  (1588) 
bb_densepocket2

>  <cluster_label>  (1588) 
3

>  <cluster_rank>  (1588) 
1245

>  <N_interactions>  (1588) 
1

>  <∆∆G>  (1588) 
-3.939748

>  <comRMSD>  (1588) 
0.571652

>  <ROCS_TanimotoCombo>  (1588) 
0.608

>  <ROCS_ShapeTanimoto>  (1588) 
0.234

>  <ROCS_ColorTanimoto>  (1588) 
0.374

$$$$
EN300_28304421
     RDKit          3D

 29 32  0  0  0  0  0  0  0  0999 V2000
   28.8449   13.7477    5.5338 C   0  0  0  0  0  0  0  0  0  0  0  0
   29.1030   13.5195    6.8412 N   0  0  0  0  0  0  0  0  0  0  0  0
   28.7058   14.4181    7.8201 C   0  0  0  0  0  0  0  0  0  0  0  0
   28.5272   15.6214    7.7035 O   0  0  0  0  0  0  0  0  0  0  0  0
   28.5784   13.7257    8.9414 O   0  0  0  0  0  0  0  0  0  0  0  0
   29.1777   14.3470   10.0169 C   0  0  0  0  0  0  0  0  0  0  0  0
   30.7029   14.3454    9.8814 C   0  0  0  0  0  0  0  0  0  0  0  0
   31.3344   13.6615    8.7002 C   0  0  0  0  0  0  0  0  0  0  0  0
   32.8472   13.5882    8.4831 C   0  0  0  0  0  0  0  0  0  0  0  0
   33.6148   14.3030    9.6239 C   0  0  0  0  0  0  0  0  0  0  0  0
   32.8203   14.8939   10.6550 C   0  0  0  0  0  0  0  0  0  0  0  0
   31.4680   14.9190   10.7759 C   0  0  0  0  0  0  0  0  0  0  0  0
   29.4543   12.2954    7.2882 C   0  0  0  0  0  0  0  0  0  0  0  0
   28.5848   11.5989    8.1480 C   0  0  0  0  0  0  0  0  0  0  0  0
   28.9446   10.3354    8.6088 C   0  0  0  0  0  0  0  0  0  0  0  0
   30.1193    9.7803    8.1976 C   0  0  0  0  0  0  0  0  0  0  0  0
   30.4756    8.0938    8.8294 Br  0  0  0  0  0  0  0  0  0  0  0  0
   30.9676   10.4169    7.3661 C   0  0  0  0  0  0  0  0  0  0  0  0
   30.6554   11.6974    6.9282 C   0  0  0  0  0  0  0  0  0  0  0  0
   31.6040   12.3970    6.0725 C   0  0  0  0  0  0  0  0  0  0  0  0
   31.3942   13.4913    5.5984 O   0  0  0  0  0  0  0  0  0  0  0  0
   32.8881   11.6565    5.7085 C   0  0  0  0  0  0  0  0  0  0  0  0
   33.8592   12.4811    4.8649 C   0  0  0  0  0  0  0  0  0  0  0  0
   35.0176   11.8352    4.4767 C   0  0  0  0  0  0  0  0  0  0  0  0
   35.2211   10.5054    4.8515 C   0  0  0  0  0  0  0  0  0  0  0  0
   34.3021    9.7889    5.6369 C   0  0  0  0  0  0  0  0  0  0  0  0
   33.1387   10.3845    6.0798 C   0  0  0  0  0  0  0  0  0  0  0  0
   32.1767    9.7033    6.9227 C   0  0  0  0  0  0  0  0  0  0  0  0
   32.3812    8.5331    7.2070 O   0  0  0  0  0  0  0  0  0  0  0  0
  1  2  1  0
  2  3  1  0
  3  4  2  0
  3  5  1  0
  5  6  1  0
  6  7  1  0
  7  8  2  0
  8  9  1  0
  9 10  2  0
 10 11  1  0
 11 12  2  0
  2 13  1  0
 13 14  2  0
 14 15  1  0
 15 16  2  0
 16 17  1  0
 16 18  1  0
 18 19  2  0
 19 20  1  0
 20 21  2  0
 20 22  1  0
 22 23  2  0
 23 24  1  0
 24 25  2  0
 25 26  1  0
 26 27  2  0
 27 28  1  0
 28 29  2  0
 12  7  1  0
 19 13  1  0
 27 22  1  0
 28 18  1  0
A    1
 C1 
A    2
 N1 
A    3
 C2 
A    4
 O1 
A    5
 O2 
A    6
 C3 
A    7
 C4 
A    8
 C5 
A    9
 C6 
A   10
 C7 
A   11
 C8 
A   12
 C9 
A   13
 C10
A   14
 C11
A   15
 C12
A   16
 C13
A   17
BR1 
A   18
 C14
A   19
 C15
A   20
 C16
A   21
 O3 
A   22
 C17
A   23
 C18
A   24
 C19
A   25
 C20
A   26
 C21
A   27
 C22
A   28
 C23
A   29
 O4 
M  END
>  <ref_pdb>  (1589) 
Ax0310a

>  <ref_mols>  (1589) 
Ax0446a,Ax1080a,Ax0812a,Ax0719a,Ax1140a,Ax0528a,Ax0310a

>  <original SMILES>  (1589) 
CN(C(=O)OCc1ccccc1)c1ccc(Br)c2c1C(=O)c1ccccc1C2=O

>  <rationale>  (1589) 
info info set:bb_whole;hbond:S87; hydroph_interaction:T126+V84; 

>  <experiment>  (1589) 
bb_whole

>  <cluster_label>  (1589) 
3

>  <cluster_rank>  (1589) 
1246

>  <N_interactions>  (1589) 
3

>  <∆∆G>  (1589) 
-5.30356

>  <comRMSD>  (1589) 
0.921375

>  <ROCS_TanimotoCombo>  (1589) 
0.412

>  <ROCS_ShapeTanimoto>  (1589) 
0.281

>  <ROCS_ColorTanimoto>  (1589) 
0.131

$$$$
EN300_6996768
     RDKit          3D

 10 11  0  0  0  0  0  0  0  0999 V2000
   35.9874   11.5426    1.4710 N   0  0  0  0  0  0  0  0  0  0  0  0
   36.4955   10.3833    2.1930 C   0  0  0  0  0  0  0  0  0  0  0  0
   35.5709    9.9816    3.3487 C   0  0  2  0  0  0  0  0  0  0  0  0
   35.7461    8.5644    3.7815 C   0  0  0  0  0  0  0  0  0  0  0  0
   35.0600    8.4838    5.0482 O   0  0  0  0  0  0  0  0  0  0  0  0
   34.2822    9.7201    4.9106 C   0  0  2  0  0  0  0  0  0  0  0  0
   33.1242    9.8629    5.9868 C   0  0  0  0  0  0  0  0  0  0  0  0
   32.7713    8.7877    6.4589 O   0  0  0  0  0  0  0  0  0  0  0  0
   34.0254    9.9946    3.3363 C   0  0  0  0  0  0  0  0  0  0  0  0
   35.3146   10.8910    4.6203 C   0  0  0  0  0  0  0  0  0  0  0  0
  1  2  1  0
  3  2  1  6
  3  4  1  0
  4  5  1  0
  5  6  1  0
  6  7  1  1
  7  8  1  0
  6  9  1  0
  6 10  1  0
  9  3  1  0
 10  3  1  0
A    1
 N1 
A    2
 C1 
A    3
 C2 
A    4
 C3 
A    5
 O1 
A    6
 C4 
A    7
 C5 
A    8
 O2 
A    9
 C6 
A   10
 C7 
M  END
>  <ref_pdb>  (1590) 
Ax0310a

>  <ref_mols>  (1590) 
Ax0446a,Ax1080a,Ax0812a,Ax0719a,Ax1140a,Ax0528a,Ax0310a

>  <original SMILES>  (1590) 
NC[C@]12CO[C@](CO)(C1)C2

>  <rationale>  (1590) 
info info set:bb_densepocket;hbond:S105; 

>  <experiment>  (1590) 
bb_densepocket

>  <cluster_label>  (1590) 
3

>  <cluster_rank>  (1590) 
1247

>  <N_interactions>  (1590) 
1

>  <∆∆G>  (1590) 
-0.241381

>  <comRMSD>  (1590) 
0.965836

>  <ROCS_TanimotoCombo>  (1590) 
0.702

>  <ROCS_ShapeTanimoto>  (1590) 
0.2

>  <ROCS_ColorTanimoto>  (1590) 
0.502

$$$$
EN300_157890
     RDKit          3D

 15 15  0  0  0  0  0  0  0  0999 V2000
   33.8748    8.8773    5.7348 C   0  0  0  0  0  0  0  0  0  0  0  0
   32.8215    8.5278    6.6555 O   0  0  0  0  0  0  0  0  0  0  0  0
   32.3012    9.6922    7.0344 C   0  0  0  0  0  0  0  0  0  0  0  0
   33.0393   10.9075    6.5889 C   0  0  0  0  0  0  0  0  0  0  0  0
   32.5192   12.2198    6.9937 C   0  0  0  0  0  0  0  0  0  0  0  0
   33.6294   13.4210    6.3902 S   0  0  0  0  0  6  0  0  0  0  0  0
   34.3320   13.9335    7.8331 N   0  0  0  0  0  0  0  0  0  0  0  0
   34.6907   12.7280    5.7234 O   0  0  0  0  0  0  0  0  0  0  0  0
   32.9401   14.4112    5.6719 O   0  0  0  0  0  0  0  0  0  0  0  0
   31.2013   12.4394    7.8344 C   0  0  0  0  0  0  0  0  0  0  0  0
   30.8012   13.7135    8.1248 O   0  0  0  0  0  0  0  0  0  0  0  0
   30.8757   14.1996    9.4628 C   0  0  0  0  0  0  0  0  0  0  0  0
   30.5465   11.2844    8.2340 C   0  0  0  0  0  0  0  0  0  0  0  0
   31.0554    9.8846    7.8903 C   0  0  0  0  0  0  0  0  0  0  0  0
   30.1377    8.3923    8.5583 Br  0  0  0  0  0  0  0  0  0  0  0  0
  1  2  1  0
  2  3  1  0
  3  4  2  0
  4  5  1  0
  5  6  1  0
  6  7  1  0
  6  8  2  0
  6  9  2  0
  5 10  2  0
 10 11  1  0
 11 12  1  0
 10 13  1  0
 13 14  2  0
 14 15  1  0
 14  3  1  0
A    1
 C1 
A    2
 O1 
A    3
 C2 
A    4
 C3 
A    5
 C4 
A    6
 S1 
A    7
 N1 
A    8
 O2 
A    9
 O3 
A   10
 C5 
A   11
 O4 
A   12
 C6 
A   13
 C7 
A   14
 C8 
A   15
BR1 
M  END
>  <ref_pdb>  (1591) 
Ax0310a

>  <ref_mols>  (1591) 
Ax0446a,Ax1080a,Ax0812a,Ax0719a,Ax1140a,Ax0528a,Ax0310a

>  <original SMILES>  (1591) 
COc1cc(S(N)(=O)=O)c(OC)cc1Br

>  <rationale>  (1591) 
info info set:sulfonimide_joint;hbond:S87+E85; 

>  <experiment>  (1591) 
sulfonimide_joint

>  <cluster_label>  (1591) 
3

>  <cluster_rank>  (1591) 
1248

>  <N_interactions>  (1591) 
2

>  <∆∆G>  (1591) 
-5.094996

>  <comRMSD>  (1591) 
0.631078

>  <ROCS_TanimotoCombo>  (1591) 
0.295

>  <ROCS_ShapeTanimoto>  (1591) 
0.179

>  <ROCS_ColorTanimoto>  (1591) 
0.116

$$$$
Z1982068676
     RDKit          3D

 19 20  0  0  0  0  0  0  0  0999 V2000
   29.2011   14.0013    6.0590 C   0  0  0  0  0  0  0  0  0  0  0  0
   28.8329   14.6567    7.1804 N   0  0  0  0  0  0  0  0  0  0  0  0
   28.7631   15.9743    7.2344 N   0  0  0  0  0  0  0  0  0  0  0  0
   28.3932   16.2550    8.4621 C   0  0  0  0  0  0  0  0  0  0  0  0
   28.2049   15.0166    9.2131 C   0  0  0  0  0  0  0  0  0  0  0  0
   28.5139   14.0927    8.3334 C   0  0  0  0  0  0  0  0  0  0  0  0
   28.5459   12.7122    8.5121 C   0  0  0  0  0  0  0  0  0  0  0  0
   29.9483   12.5288    8.5027 N   0  0  0  0  0  0  0  0  0  0  0  0
   30.4431   11.3046    8.3019 C   0  0  0  0  0  0  0  0  0  0  0  0
   30.1370   10.3167    8.9308 O   0  0  0  0  0  0  0  0  0  0  0  0
   31.3817   11.0795    7.3632 C   0  0  0  0  0  0  0  0  0  0  0  0
   32.0785   12.0344    6.4371 C   0  0  0  0  0  0  0  0  0  0  0  0
   33.0575   11.5981    5.5103 C   0  0  0  0  0  0  0  0  0  0  0  0
   33.9131   12.5895    4.4050 Cl  0  0  0  0  0  0  0  0  0  0  0  0
   33.2697   10.1030    5.6168 C   0  0  0  0  0  0  0  0  0  0  0  0
   32.5644    9.3543    6.5115 C   0  0  0  0  0  0  0  0  0  0  0  0
   32.7549    8.1473    6.6013 F   0  0  0  0  0  0  0  0  0  0  0  0
   31.6481    9.7779    7.3591 C   0  0  0  0  0  0  0  0  0  0  0  0
   31.0104    8.8493    8.2124 N   0  0  0  0  0  0  0  0  0  0  0  0
  1  2  1  0
  2  3  1  0
  3  4  2  0
  4  5  1  0
  5  6  2  0
  6  7  1  0
  7  8  1  0
  8  9  1  0
  9 10  2  0
  9 11  1  0
 11 12  2  0
 12 13  1  0
 13 14  1  0
 13 15  2  0
 15 16  1  0
 16 17  1  0
 16 18  2  0
 18 19  1  0
  6  2  1  0
 18 11  1  0
A    1
 C1 
A    2
 N1 
A    3
 N2 
A    4
 C2 
A    5
 C3 
A    6
 C4 
A    7
 C5 
A    8
 N3 
A    9
 C6 
A   10
 O1 
A   11
 C7 
A   12
 C8 
A   13
 C9 
A   14
CL1 
A   15
 C10
A   16
 C11
A   17
 F1 
A   18
 C12
A   19
 N4 
M  END
>  <ref_pdb>  (1592) 
Ax0310a

>  <ref_mols>  (1592) 
Ax0446a,Ax1080a,Ax0812a,Ax0719a,Ax1140a,Ax0528a,Ax0310a

>  <original SMILES>  (1592) 
Cn1nccc1CNC(=O)c1cc(Cl)cc(F)c1N

>  <rationale>  (1592) 
info info set:screening_pocket;hbond:S105+Y90; hydroph_interaction:Y90; 

>  <experiment>  (1592) 
screening_pocket

>  <cluster_label>  (1592) 
3

>  <cluster_rank>  (1592) 
1249

>  <N_interactions>  (1592) 
3

>  <∆∆G>  (1592) 
-0.374155

>  <comRMSD>  (1592) 
0.828045

>  <ROCS_TanimotoCombo>  (1592) 
0.626

>  <ROCS_ShapeTanimoto>  (1592) 
0.241

>  <ROCS_ColorTanimoto>  (1592) 
0.385

$$$$
EN300_360068
     RDKit          3D

 13 13  0  0  0  0  0  0  0  0999 V2000
   29.7345    8.6180    9.9355 C   0  0  0  0  0  0  0  0  0  0  0  0
   29.6076    7.9327    8.6798 C   0  0  0  0  0  0  0  0  0  0  0  0
   30.8858    8.2443    8.1210 O   0  0  0  0  0  0  0  0  0  0  0  0
   31.0492    9.5862    8.0774 C   0  0  0  0  0  0  0  0  0  0  0  0
   30.5121   10.3647    8.8401 O   0  0  0  0  0  0  0  0  0  0  0  0
   31.9445   10.0939    6.9836 C   0  0  0  0  0  0  0  0  0  0  0  0
   32.9160    9.2997    6.3616 N   0  0  0  0  0  0  0  0  0  0  0  0
   33.5494    9.9961    5.4469 C   0  0  0  0  0  0  0  0  0  0  0  0
   34.5466    9.5446    4.6483 N   0  0  0  0  0  0  0  0  0  0  0  0
   35.1345    8.2432    4.5703 C   0  0  0  0  0  0  0  0  0  0  0  0
   33.0165   11.6127    5.3027 S   0  0  0  0  0  0  0  0  0  0  0  0
   31.8696   11.3774    6.5215 C   0  0  0  0  0  0  0  0  0  0  0  0
   31.0256   12.4195    6.9087 C   0  0  0  0  0  0  0  0  0  0  0  0
  1  2  1  0
  2  3  1  0
  3  4  1  0
  4  5  2  0
  4  6  1  0
  6  7  1  0
  7  8  2  0
  8  9  1  0
  9 10  1  0
  8 11  1  0
 11 12  1  0
 12 13  1  0
 12  6  2  0
A    1
 C1 
A    2
 C2 
A    3
 O1 
A    4
 C3 
A    5
 O2 
A    6
 C4 
A    7
 N1 
A    8
 C5 
A    9
 N2 
A   10
 C6 
A   11
 S1 
A   12
 C7 
A   13
 C8 
M  END
>  <ref_pdb>  (1593) 
Ax0310a

>  <ref_mols>  (1593) 
Ax0446a,Ax1080a,Ax0812a,Ax0719a,Ax1140a,Ax0528a,Ax0310a

>  <original SMILES>  (1593) 
CCOC(=O)c1nc(NC)sc1C

>  <rationale>  (1593) 
info info set:bb_densepocket2;hydroph_interaction:V124; 

>  <experiment>  (1593) 
bb_densepocket2

>  <cluster_label>  (1593) 
3

>  <cluster_rank>  (1593) 
1250

>  <N_interactions>  (1593) 
1

>  <∆∆G>  (1593) 
-2.894394

>  <comRMSD>  (1593) 
0.957167

>  <ROCS_TanimotoCombo>  (1593) 
0.614

>  <ROCS_ShapeTanimoto>  (1593) 
0.204

>  <ROCS_ColorTanimoto>  (1593) 
0.409

$$$$
Z734121610
     RDKit          3D

 15 15  0  0  0  0  0  0  0  0999 V2000
   28.8156   16.3518    8.1617 C   0  0  0  0  0  0  0  0  0  0  0  0
   29.5356   15.2119    8.3845 O   0  0  0  0  0  0  0  0  0  0  0  0
   28.9465   14.2763    7.5278 C   0  0  0  0  0  0  0  0  0  0  0  0
   28.5436   13.0856    8.3673 C   0  0  0  0  0  0  0  0  0  0  0  0
   29.1045   12.0316    7.7485 N   0  0  0  0  0  0  0  0  0  0  0  0
   28.5828   12.3685    6.6176 C   0  0  0  0  0  0  0  0  0  0  0  0
   30.4713   11.9564    7.9452 C   0  0  0  0  0  0  0  0  0  0  0  0
   31.0181   12.7138    8.7077 O   0  0  0  0  0  0  0  0  0  0  0  0
   31.4121   10.9982    7.2200 C   0  0  0  0  0  0  0  0  0  0  0  0
   32.2078   11.8919    6.2811 C   0  0  0  0  0  0  0  0  0  0  0  0
   33.2076   11.0689    5.4974 C   0  0  0  0  0  0  0  0  0  0  0  0
   33.2949    9.6946    5.6970 C   0  0  0  0  0  0  0  0  0  0  0  0
   34.4635    8.8539    4.7663 Cl  0  0  0  0  0  0  0  0  0  0  0  0
   32.5266    8.9746    6.5701 N   0  0  0  0  0  0  0  0  0  0  0  0
   31.5997    9.6253    7.3159 C   0  0  0  0  0  0  0  0  0  0  0  0
  1  2  1  0
  2  3  1  0
  3  4  1  0
  4  5  1  0
  5  6  1  0
  5  7  1  0
  7  8  2  0
  7  9  1  0
  9 10  2  0
 10 11  1  0
 11 12  2  0
 12 13  1  0
 12 14  1  0
 14 15  2  0
 15  9  1  0
A    1
 C1 
A    2
 O1 
A    3
 C2 
A    4
 C3 
A    5
 N1 
A    6
 C4 
A    7
 C5 
A    8
 O2 
A    9
 C6 
A   10
 C7 
A   11
 C8 
A   12
 C9 
A   13
CL1 
A   14
 N2 
A   15
 C10
M  END
>  <ref_pdb>  (1594) 
Ax0310a

>  <ref_mols>  (1594) 
Ax0446a,Ax1080a,Ax0812a,Ax0719a,Ax1140a,Ax0528a,Ax0310a

>  <original SMILES>  (1594) 
COCCN(C)C(=O)c1ccc(Cl)nc1

>  <rationale>  (1594) 
info info set:screening_pocket;hbond:S87+G127; hydroph_interaction:P107; 

>  <experiment>  (1594) 
screening_pocket

>  <cluster_label>  (1594) 
3

>  <cluster_rank>  (1594) 
1251

>  <N_interactions>  (1594) 
3

>  <∆∆G>  (1594) 
-2.572635

>  <comRMSD>  (1594) 
0.834947

>  <ROCS_TanimotoCombo>  (1594) 
0.625

>  <ROCS_ShapeTanimoto>  (1594) 
0.222

>  <ROCS_ColorTanimoto>  (1594) 
0.402

$$$$
EN300_7553307
     RDKit          3D

 22 23  0  0  0  0  0  0  0  0999 V2000
   28.9837   13.8859    8.3433 C   0  0  0  0  0  0  0  0  0  0  0  0
   28.3975   12.7280    7.5599 C   0  0  0  0  0  0  0  0  0  0  0  0
   27.3376   13.0431    6.4420 C   0  0  0  0  0  0  0  0  0  0  0  0
   27.8705   11.6813    8.4970 C   0  0  0  0  0  0  0  0  0  0  0  0
   29.3775   11.9988    6.8812 O   0  0  0  0  0  0  0  0  0  0  0  0
   30.6280   12.3748    6.7737 C   0  0  0  0  0  0  0  0  0  0  0  0
   30.9333   13.3080    6.0586 O   0  0  0  0  0  0  0  0  0  0  0  0
   31.5451   11.6769    7.4283 N   0  0  0  0  0  0  0  0  0  0  0  0
   30.9930   10.5678    7.8469 C   0  0  0  0  0  0  0  0  0  0  0  0
   31.5215    9.1630    7.5642 C   0  0  0  0  0  0  0  0  0  0  0  0
   32.4464    9.1340    6.5055 C   0  0  0  0  0  0  0  0  0  0  0  0
   33.2160   10.4014    6.2473 C   0  0  0  0  0  0  0  0  0  0  0  0
   34.5063   10.3641    5.4362 C   0  0  0  0  0  0  0  0  0  0  0  0
   35.2169   11.6088    5.2388 C   0  0  0  0  0  0  0  0  0  0  0  0
   34.6875   12.7837    5.8093 C   0  0  0  0  0  0  0  0  0  0  0  0
   33.4899   12.7499    6.5352 C   0  0  0  0  0  0  0  0  0  0  0  0
   33.0190   13.9081    7.0781 O   0  0  0  0  0  0  0  0  0  0  0  0
   32.7646   13.8366    8.7088 S   0  0  0  0  0  6  0  0  0  0  0  0
   32.5881   15.1196    9.3602 O   0  0  0  0  0  0  0  0  0  0  0  0
   33.7411   12.9182    9.2129 O   0  0  0  0  0  0  0  0  0  0  0  0
   31.3228   13.2110    8.8857 F   0  0  0  0  0  0  0  0  0  0  0  0
   32.7578   11.6040    6.7386 C   0  0  0  0  0  0  0  0  0  0  0  0
  1  2  1  0
  2  3  1  0
  2  4  1  0
  2  5  1  0
  5  6  1  0
  6  7  2  0
  6  8  1  0
  8  9  1  0
  9 10  1  0
 10 11  1  0
 11 12  1  0
 12 13  2  0
 13 14  1  0
 14 15  2  0
 15 16  1  0
 16 17  1  0
 17 18  1  0
 18 19  2  0
 18 20  2  0
 18 21  1  0
 16 22  2  0
 22  8  1  0
 22 12  1  0
A    1
 C1 
A    2
 C2 
A    3
 C3 
A    4
 C4 
A    5
 O1 
A    6
 C5 
A    7
 O2 
A    8
 N1 
A    9
 C6 
A   10
 C7 
A   11
 C8 
A   12
 C9 
A   13
 C10
A   14
 C11
A   15
 C12
A   16
 C13
A   17
 O3 
A   18
 S1 
A   19
 O4 
A   20
 O5 
A   21
 F1 
A   22
 C14
M  END
>  <ref_pdb>  (1595) 
Ax0310a

>  <ref_mols>  (1595) 
Ax0446a,Ax1080a,Ax0812a,Ax0719a,Ax1140a,Ax0528a,Ax0310a

>  <original SMILES>  (1595) 
CC(C)(C)OC(=O)N1CCCc2cccc(OS(=O)(=O)F)c21

>  <rationale>  (1595) 
info info set:bb_whole;hydroph_interaction:P107; 

>  <experiment>  (1595) 
bb_whole

>  <cluster_label>  (1595) 
3

>  <cluster_rank>  (1595) 
1252

>  <N_interactions>  (1595) 
1

>  <∆∆G>  (1595) 
-0.578188

>  <comRMSD>  (1595) 
0.906063

>  <ROCS_TanimotoCombo>  (1595) 
0.41

>  <ROCS_ShapeTanimoto>  (1595) 
0.26

>  <ROCS_ColorTanimoto>  (1595) 
0.151

$$$$
EN300_109145
     RDKit          3D

 15 15  0  0  0  0  0  0  0  0999 V2000
   34.3753   15.1620    9.1078 N   0  0  0  0  0  0  0  0  0  0  0  0
   33.5411   13.8525    8.5082 S   0  0  0  0  0  6  0  0  0  0  0  0
   34.1831   12.7970    9.2020 O   0  0  0  0  0  0  0  0  0  0  0  0
   32.1282   14.1165    8.7077 O   0  0  0  0  0  0  0  0  0  0  0  0
   33.9753   13.8002    6.7899 C   0  0  0  0  0  0  0  0  0  0  0  0
   32.9609   13.1383    5.8926 C   0  0  0  0  0  0  0  0  0  0  0  0
   32.2746   11.9601    6.5670 C   0  0  0  0  0  0  0  0  0  0  0  0
   32.9364   10.6852    6.0777 C   0  0  0  0  0  0  0  0  0  0  0  0
   32.3197    9.4652    6.7447 C   0  0  0  0  0  0  0  0  0  0  0  0
   31.1789    9.5271    7.7755 C   0  0  0  0  0  0  0  0  0  0  0  0
   30.6384    8.4490    8.3949 N   0  0  0  0  0  4  0  0  0  0  0  0
   29.7750    8.5892    9.2428 O   0  0  0  0  0  0  0  0  0  0  0  0
   30.9596    7.4163    7.9075 O   0  0  0  0  0  1  0  0  0  0  0  0
   30.7544   10.8187    8.0260 C   0  0  0  0  0  0  0  0  0  0  0  0
   31.2515   11.9736    7.4723 C   0  0  0  0  0  0  0  0  0  0  0  0
  1  2  1  0
  2  3  2  0
  2  4  2  0
  2  5  1  0
  5  6  1  0
  6  7  1  0
  7  8  2  0
  8  9  1  0
  9 10  2  0
 10 11  1  0
 11 12  2  0
 11 13  1  0
 10 14  1  0
 14 15  2  0
 15  7  1  0
M  CHG  2  11   1  13  -1
A    1
 N1 
A    2
 S1 
A    3
 O1 
A    4
 O2 
A    5
 C1 
A    6
 C2 
A    7
 C3 
A    8
 C4 
A    9
 C5 
A   10
 C6 
A   11
 N2 
A   12
 O3 
A   13
 O4 
A   14
 C7 
A   15
 C8 
M  END
>  <ref_pdb>  (1596) 
Ax0310a

>  <ref_mols>  (1596) 
Ax0446a,Ax1080a,Ax0812a,Ax0719a,Ax1140a,Ax0528a,Ax0310a

>  <original SMILES>  (1596) 
NS(=O)(=O)CCc1ccc([N+](=O)[O-])cc1

>  <rationale>  (1596) 
info info set:sulfonimide_whole;hbond:S87+G127+E85; 

>  <experiment>  (1596) 
sulfonimide_whole

>  <cluster_label>  (1596) 
3

>  <cluster_rank>  (1596) 
1253

>  <N_interactions>  (1596) 
3

>  <∆∆G>  (1596) 
-1.814266

>  <comRMSD>  (1596) 
0.410594

>  <ROCS_TanimotoCombo>  (1596) 
0.327

>  <ROCS_ShapeTanimoto>  (1596) 
0.195

>  <ROCS_ColorTanimoto>  (1596) 
0.133

$$$$
EN300_680556
     RDKit          3D

 15 16  0  0  0  0  0  0  0  0999 V2000
   28.1960   13.2311    8.6431 C   0  0  0  0  0  0  0  0  0  0  0  0
   29.5465   12.7196    8.6516 N   0  0  0  0  0  0  0  0  0  0  0  0
   30.6769   13.6989    8.0019 S   0  0  0  0  0  6  0  0  0  0  0  0
   30.2882   13.6301    6.6119 O   0  0  0  0  0  0  0  0  0  0  0  0
   30.6989   14.8661    8.8577 O   0  0  0  0  0  0  0  0  0  0  0  0
   32.2484   12.9151    8.1495 C   0  0  1  0  0  0  0  0  0  0  0  0
   32.1011   11.5190    7.7135 C   0  0  0  0  0  0  0  0  0  0  0  0
   33.0966   11.0288    6.6351 C   0  0  0  0  0  0  0  0  0  0  0  0
   32.9496    9.5892    6.2841 C   0  0  0  0  0  0  0  0  0  0  0  0
   31.9235    8.7843    6.9529 C   0  0  0  0  0  0  0  0  0  0  0  0
   30.9507    9.2600    7.9515 C   0  0  0  0  0  0  0  0  0  0  0  0
   31.0081   10.5444    8.3213 C   0  0  0  0  0  0  0  0  0  0  0  0
   33.3835   13.5619    7.6611 C   0  0  0  0  0  0  0  0  0  0  0  0
   33.9572   14.5093    8.3882 C   0  0  0  0  0  0  0  0  0  0  0  0
   34.7540   13.4114    8.5331 C   0  0  0  0  0  0  0  0  0  0  0  0
  1  2  1  0
  2  3  1  0
  3  4  2  0
  3  5  2  0
  3  6  1  0
  6  7  1  0
  7  8  2  0
  8  9  1  0
  9 10  2  0
 10 11  1  0
 11 12  2  0
  6 13  1  6
 13 14  1  0
 14 15  1  0
 12  7  1  0
 15 13  1  0
A    1
 C1 
A    2
 N1 
A    3
 S1 
A    4
 O1 
A    5
 O2 
A    6
 C2 
A    7
 C3 
A    8
 C4 
A    9
 C5 
A   10
 C6 
A   11
 C7 
A   12
 C8 
A   13
 C9 
A   14
 C10
A   15
 C11
M  END
>  <ref_pdb>  (1597) 
Ax0310a

>  <ref_mols>  (1597) 
Ax0446a,Ax1080a,Ax0812a,Ax0719a,Ax1140a,Ax0528a,Ax0310a

>  <original SMILES>  (1597) 
CNS(=O)(=O)[C@@H](c1ccccc1)C1CC1

>  <rationale>  (1597) 
info info set:sulfonimide_whole;hbond:S87; hydroph_interaction:V84; 

>  <experiment>  (1597) 
sulfonimide_whole

>  <cluster_label>  (1597) 
3

>  <cluster_rank>  (1597) 
1254

>  <N_interactions>  (1597) 
2

>  <∆∆G>  (1597) 
-1.832188

>  <comRMSD>  (1597) 
0.757927

>  <ROCS_TanimotoCombo>  (1597) 
0.33

>  <ROCS_ShapeTanimoto>  (1597) 
0.183

>  <ROCS_ColorTanimoto>  (1597) 
0.147

$$$$
Z4107122986
     RDKit          3D

 26 28  0  0  0  0  0  0  0  0999 V2000
   31.2288   16.2370   10.9356 C   0  0  0  0  0  0  0  0  0  0  0  0
   30.9368   15.3943    9.8543 O   0  0  0  0  0  0  0  0  0  0  0  0
   32.1755   14.8657    9.4601 C   0  0  0  0  0  0  0  0  0  0  0  0
   33.3961   15.5956    9.6530 C   0  0  0  0  0  0  0  0  0  0  0  0
   34.5855   15.0905    9.2706 C   0  0  0  0  0  0  0  0  0  0  0  0
   34.7084   13.9350    8.6973 C   0  0  0  0  0  0  0  0  0  0  0  0
   36.3695   13.6922    8.3773 Cl  0  0  0  0  0  0  0  0  0  0  0  0
   33.5521   13.1532    8.4602 C   0  0  0  0  0  0  0  0  0  0  0  0
   32.2781   13.6460    8.8679 C   0  0  0  0  0  0  0  0  0  0  0  0
   31.0889   12.9862    8.7313 C   0  0  0  0  0  0  0  0  0  0  0  0
   30.2767   13.3857    7.8392 N   0  0  0  0  0  0  0  0  0  0  0  0
   28.9872   13.8170    8.3670 C   0  0  0  0  0  0  0  0  0  0  0  0
   30.3727   12.5655    6.7730 C   0  0  0  0  0  0  0  0  0  0  0  0
   29.6889   12.8285    5.8022 O   0  0  0  0  0  0  0  0  0  0  0  0
   31.3127   11.3214    6.7197 C   0  0  0  0  0  0  0  0  0  0  0  0
   32.4125   11.3263    5.8960 C   0  0  0  0  0  0  0  0  0  0  0  0
   33.0176    9.9884    6.0085 C   0  0  0  0  0  0  0  0  0  0  0  0
   32.2962    9.1884    6.9817 N   0  0  0  0  0  0  0  0  0  0  0  0
   31.3017   10.0513    7.3681 N   0  0  0  0  0  0  0  0  0  0  0  0
   30.3808    9.5489    8.3601 C   0  0  0  0  0  0  0  0  0  0  0  0
   34.1934    9.7674    5.1036 C   0  0  2  0  0  0  0  0  0  0  0  0
   34.8460    8.6055    5.1241 C   0  0  0  0  0  0  0  0  0  0  0  0
   35.0558   10.8847    5.2190 O   0  0  0  0  0  0  0  0  0  0  0  0
   34.4249   11.9660    4.4977 C   0  0  2  0  0  0  0  0  0  0  0  0
   35.4948   12.9984    4.4382 C   0  0  0  0  0  0  0  0  0  0  0  0
   33.0557   12.3214    4.9674 C   0  0  0  0  0  0  0  0  0  0  0  0
  1  2  1  0
  2  3  1  0
  3  4  2  0
  4  5  1  0
  5  6  2  0
  6  7  1  0
  6  8  1  0
  8  9  2  0
  9 10  1  0
 10 11  1  0
 11 12  1  0
 11 13  1  0
 13 14  2  0
 13 15  1  0
 15 16  2  0
 16 17  1  0
 17 18  2  0
 18 19  1  0
 19 20  1  0
 17 21  1  0
 21 22  1  1
 21 23  1  0
 23 24  1  0
 24 25  1  1
 24 26  1  0
  9  3  1  0
 19 15  1  0
 26 16  1  0
A    1
 C1 
A    2
 O1 
A    3
 C2 
A    4
 C3 
A    5
 C4 
A    6
 C5 
A    7
CL1 
A    8
 C6 
A    9
 C7 
A   10
 C8 
A   11
 N1 
A   12
 C9 
A   13
 C10
A   14
 O2 
A   15
 C11
A   16
 C12
A   17
 C13
A   18
 N2 
A   19
 N3 
A   20
 C14
A   21
 C15
A   22
 C16
A   23
 O3 
A   24
 C17
A   25
 C18
A   26
 C19
M  END
>  <ref_pdb>  (1598) 
Ax0310a

>  <ref_mols>  (1598) 
Ax0446a,Ax1080a,Ax0812a,Ax0719a,Ax1140a,Ax0528a,Ax0310a

>  <original SMILES>  (1598) 
COc1ccc(Cl)cc1CN(C)C(=O)c1c2c(nn1C)[C@H](C)O[C@H](C)C2

>  <rationale>  (1598) 
info info set:screening_whole;hbond:S87; hydroph_interaction:P107+V84; 

>  <experiment>  (1598) 
screening_whole

>  <cluster_label>  (1598) 
3

>  <cluster_rank>  (1598) 
1255

>  <N_interactions>  (1598) 
4

>  <∆∆G>  (1598) 
-5.996918

>  <comRMSD>  (1598) 
0.951566

>  <ROCS_TanimotoCombo>  (1598) 
0.454

>  <ROCS_ShapeTanimoto>  (1598) 
0.268

>  <ROCS_ColorTanimoto>  (1598) 
0.186

$$$$
EN300_728553
     RDKit          3D

 16 17  0  0  0  0  0  0  0  0999 V2000
   30.5784    7.7967    8.6295 C   0  0  0  0  0  0  0  0  0  0  0  0
   30.2571    9.1748    8.9184 C   0  0  0  0  0  0  0  0  0  0  0  0
   28.8557    9.3293    8.9213 C   0  0  0  0  0  0  0  0  0  0  0  0
   30.8233   10.1030    8.2367 N   0  0  0  0  0  0  0  0  0  0  0  0
   30.3601   11.3513    8.5601 N   0  0  0  0  0  0  0  0  0  0  0  0
   31.0861   12.1243    7.7512 C   0  0  0  0  0  0  0  0  0  0  0  0
   31.9356   11.3495    6.9772 C   0  0  0  0  0  0  0  0  0  0  0  0
   32.8309   11.7296    6.0277 C   0  0  0  0  0  0  0  0  0  0  0  0
   33.5487   10.5589    5.4147 C   0  0  0  0  0  0  0  0  0  0  0  0
   34.7336   10.7620    4.1633 S   0  0  0  0  0  6  0  0  0  0  0  0
   35.3058    9.4596    3.8909 O   0  0  0  0  0  0  0  0  0  0  0  0
   35.5271   11.9236    4.4915 O   0  0  0  0  0  0  0  0  0  0  0  0
   33.9111   11.1551    2.8588 F   0  0  0  0  0  0  0  0  0  0  0  0
   33.2676    9.2803    5.8460 C   0  0  0  0  0  0  0  0  0  0  0  0
   32.3704    8.9592    6.8052 N   0  0  0  0  0  0  0  0  0  0  0  0
   31.7588   10.0415    7.2995 C   0  0  0  0  0  0  0  0  0  0  0  0
  1  2  1  0
  2  3  1  0
  2  4  1  0
  4  5  1  0
  5  6  2  0
  6  7  1  0
  7  8  2  0
  8  9  1  0
  9 10  1  0
 10 11  2  0
 10 12  2  0
 10 13  1  0
  9 14  2  0
 14 15  1  0
 15 16  2  0
 16  4  1  0
 16  7  1  0
A    1
 C1 
A    2
 C2 
A    3
 C3 
A    4
 N1 
A    5
 N2 
A    6
 C4 
A    7
 C5 
A    8
 C6 
A    9
 C7 
A   10
 S1 
A   11
 O1 
A   12
 O2 
A   13
 F1 
A   14
 C8 
A   15
 N3 
A   16
 C9 
M  END
>  <ref_pdb>  (1599) 
Ax0310a

>  <ref_mols>  (1599) 
Ax0446a,Ax1080a,Ax0812a,Ax0719a,Ax1140a,Ax0528a,Ax0310a

>  <original SMILES>  (1599) 
CC(C)n1ncc2cc(S(=O)(=O)F)cnc21

>  <rationale>  (1599) 
info info set:bb_densepocket2;

>  <experiment>  (1599) 
bb_densepocket2

>  <cluster_label>  (1599) 
3

>  <cluster_rank>  (1599) 
1256

>  <N_interactions>  (1599) 
0

>  <∆∆G>  (1599) 
-6.455851

>  <comRMSD>  (1599) 
0.56398

>  <ROCS_TanimotoCombo>  (1599) 
0.606

>  <ROCS_ShapeTanimoto>  (1599) 
0.248

>  <ROCS_ColorTanimoto>  (1599) 
0.358

$$$$
Z1848952014
     RDKit          3D

 20 22  0  0  0  0  0  0  0  0999 V2000
   31.0622    8.6013    7.9154 O   0  0  0  0  0  0  0  0  0  0  0  0
   31.8394    9.2445    7.2236 C   0  0  0  0  0  0  0  0  0  0  0  0
   32.7725    8.5904    6.3377 N   0  0  0  0  0  0  0  0  0  0  0  0
   33.6785    9.4168    5.5328 C   0  0  0  0  0  0  0  0  0  0  0  0
   34.6328    8.7094    4.5921 C   0  0  0  0  0  0  0  0  0  0  0  0
   35.5453    9.5749    3.7957 C   0  0  0  0  0  0  0  0  0  0  0  0
   35.5421   11.1089    3.9047 C   0  0  0  0  0  0  0  0  0  0  0  0
   34.6282   11.7385    4.7891 C   0  0  0  0  0  0  0  0  0  0  0  0
   33.7391   10.7686    5.5519 C   0  0  0  0  0  0  0  0  0  0  0  0
   32.7462   11.4058    6.4913 C   0  0  0  0  0  0  0  0  0  0  0  0
   31.8036   10.5933    7.3080 C   0  0  0  0  0  0  0  0  0  0  0  0
   30.8967   11.3602    8.1450 C   0  0  0  0  0  0  0  0  0  0  0  0
   29.6891   11.7957    7.4404 N   0  0  0  0  0  0  0  0  0  0  0  0
   29.2583   13.0521    7.7488 C   0  0  0  0  0  0  0  0  0  0  0  0
   28.0038   13.4619    7.4541 C   0  0  0  0  0  0  0  0  0  0  0  0
   27.6374   14.7307    7.7912 C   0  0  0  0  0  0  0  0  0  0  0  0
   28.4055   15.6775    8.4166 N   0  0  0  0  0  0  0  0  0  0  0  0
   29.6276   15.2006    8.6808 C   0  0  0  0  0  0  0  0  0  0  0  0
   30.0965   13.9441    8.3734 C   0  0  0  0  0  0  0  0  0  0  0  0
   31.3525   13.6084    8.6820 F   0  0  0  0  0  0  0  0  0  0  0  0
  1  2  1  0
  2  3  2  0
  3  4  1  0
  4  5  2  0
  5  6  1  0
  6  7  2  0
  7  8  1  0
  8  9  2  0
  9 10  1  0
 10 11  2  0
 11 12  1  0
 12 13  1  0
 13 14  1  0
 14 15  2  0
 15 16  1  0
 16 17  2  0
 17 18  1  0
 18 19  2  0
 19 20  1  0
 11  2  1  0
 19 14  1  0
  9  4  1  0
A    1
 O1 
A    2
 C1 
A    3
 N1 
A    4
 C2 
A    5
 C3 
A    6
 C4 
A    7
 C5 
A    8
 C6 
A    9
 C7 
A   10
 C8 
A   11
 C9 
A   12
 C10
A   13
 N2 
A   14
 C11
A   15
 C12
A   16
 C13
A   17
 N3 
A   18
 C14
A   19
 C15
A   20
 F1 
M  END
>  <ref_pdb>  (1600) 
Ax0310a

>  <ref_mols>  (1600) 
Ax0446a,Ax1080a,Ax0812a,Ax0719a,Ax1140a,Ax0528a,Ax0310a

>  <original SMILES>  (1600) 
Oc1nc2ccccc2cc1CNc1ccncc1F

>  <rationale>  (1600) 
info info set:screening_pocket;hbond:S105; 

>  <experiment>  (1600) 
screening_pocket

>  <cluster_label>  (1600) 
3

>  <cluster_rank>  (1600) 
1257

>  <N_interactions>  (1600) 
1

>  <∆∆G>  (1600) 
-2.206983

>  <comRMSD>  (1600) 
0.7602

>  <ROCS_TanimotoCombo>  (1600) 
0.627

>  <ROCS_ShapeTanimoto>  (1600) 
0.275

>  <ROCS_ColorTanimoto>  (1600) 
0.352

$$$$
Z1779525559
     RDKit          3D

 22 24  0  0  0  0  0  0  0  0999 V2000
   29.4565    8.4242    8.5064 C   0  0  0  0  0  0  0  0  0  0  0  0
   30.2560    9.5931    8.9452 C   0  0  0  0  0  0  0  0  0  0  0  0
   31.1531   10.1239    7.8702 C   0  0  0  0  0  0  0  0  0  0  0  0
   31.8841    9.2416    7.3156 C   0  0  0  0  0  0  0  0  0  0  0  0
   31.7308    8.0996    7.8325 C   0  0  0  0  0  0  0  0  0  0  0  0
   32.7578    9.3511    6.3237 N   0  0  0  0  0  0  0  0  0  0  0  0
   32.9005   10.5346    5.8191 C   0  0  0  0  0  0  0  0  0  0  0  0
   33.7820   10.6610    4.7698 C   0  0  0  0  0  0  0  0  0  0  0  0
   33.9975   11.8872    4.1637 C   0  0  0  0  0  0  0  0  0  0  0  0
   33.3093   13.0088    4.6363 C   0  0  0  0  0  0  0  0  0  0  0  0
   32.4245   12.8730    5.6997 C   0  0  0  0  0  0  0  0  0  0  0  0
   32.1925   11.6355    6.3173 C   0  0  0  0  0  0  0  0  0  0  0  0
   31.3031   11.4009    7.3961 C   0  0  0  0  0  0  0  0  0  0  0  0
   30.5483   12.3777    8.0220 N   0  0  0  0  0  0  0  0  0  0  0  0
   29.2571   12.1627    8.3080 C   0  0  0  0  0  0  0  0  0  0  0  0
   28.6519   11.2198    7.8512 O   0  0  0  0  0  0  0  0  0  0  0  0
   28.6342   13.1438    9.0628 C   0  0  0  0  0  0  0  0  0  0  0  0
   28.3017   13.8191    7.9765 N   0  0  0  0  0  0  0  0  0  0  0  0
   27.4714   13.3510    7.0463 C   0  0  0  0  0  0  0  0  0  0  0  0
   27.5283   14.3227    6.1598 C   0  0  0  0  0  0  0  0  0  0  0  0
   28.3740   15.3019    6.6327 N   0  0  0  0  0  0  0  0  0  0  0  0
   28.8464   14.9860    7.7729 N   0  0  0  0  0  0  0  0  0  0  0  0
  1  2  1  0
  2  3  1  0
  3  4  2  0
  4  5  1  0
  4  6  1  0
  6  7  2  0
  7  8  1  0
  8  9  2  0
  9 10  1  0
 10 11  2  0
 11 12  1  0
 12 13  2  0
 13 14  1  0
 14 15  1  0
 15 16  2  0
 15 17  1  0
 17 18  1  0
 18 19  1  0
 19 20  2  0
 20 21  1  0
 21 22  2  0
 13  3  1  0
 22 18  1  0
 12  7  1  0
A    1
 C1 
A    2
 C2 
A    3
 C3 
A    4
 C4 
A    5
 C5 
A    6
 N1 
A    7
 C6 
A    8
 C7 
A    9
 C8 
A   10
 C9 
A   11
 C10
A   12
 C11
A   13
 C12
A   14
 N2 
A   15
 C13
A   16
 O1 
A   17
 C14
A   18
 N3 
A   19
 C15
A   20
 C16
A   21
 N4 
A   22
 N5 
M  END
>  <ref_pdb>  (1601) 
Ax0310a

>  <ref_mols>  (1601) 
Ax0446a,Ax1080a,Ax0812a,Ax0719a,Ax1140a,Ax0528a,Ax0310a

>  <original SMILES>  (1601) 
CCc1c(C)nc2ccccc2c1NC(=O)Cn1ccnn1

>  <rationale>  (1601) 
info info set:screening_pocket;hbond:S87; hydroph_interaction:P107+V124; 

>  <experiment>  (1601) 
screening_pocket

>  <cluster_label>  (1601) 
3

>  <cluster_rank>  (1601) 
1258

>  <N_interactions>  (1601) 
3

>  <∆∆G>  (1601) 
-2.79204

>  <comRMSD>  (1601) 
0.677138

>  <ROCS_TanimotoCombo>  (1601) 
0.624

>  <ROCS_ShapeTanimoto>  (1601) 
0.275

>  <ROCS_ColorTanimoto>  (1601) 
0.349

$$$$
EN300_30688
     RDKit          3D

 12 12  0  0  0  0  0  0  0  0999 V2000
   32.7013   14.2544    3.8785 C   0  0  0  0  0  0  0  0  0  0  0  0
   33.0450   13.5871    5.4890 S   0  0  0  0  0  6  0  0  0  0  0  0
   33.6314   12.2959    5.3172 O   0  0  0  0  0  0  0  0  0  0  0  0
   33.7514   14.5789    6.2434 O   0  0  0  0  0  0  0  0  0  0  0  0
   31.4288   13.3440    6.1001 N   0  0  0  0  0  0  0  0  0  0  0  0
   31.2080   12.8532    7.4615 C   0  0  0  0  0  0  0  0  0  0  0  0
   31.4257   11.4168    7.4220 C   0  0  0  0  0  0  0  0  0  0  0  0
   30.7517   10.5328    8.2412 C   0  0  0  0  0  0  0  0  0  0  0  0
   31.0299    9.1919    8.1327 C   0  0  0  0  0  0  0  0  0  0  0  0
   31.9690    8.7569    7.2108 C   0  0  0  0  0  0  0  0  0  0  0  0
   32.5827    9.7197    6.4334 C   0  0  0  0  0  0  0  0  0  0  0  0
   32.3352   11.0249    6.5162 N   0  0  0  0  0  0  0  0  0  0  0  0
  1  2  1  0
  2  3  2  0
  2  4  2  0
  2  5  1  0
  5  6  1  0
  6  7  1  0
  7  8  2  0
  8  9  1  0
  9 10  2  0
 10 11  1  0
 11 12  2  0
 12  7  1  0
A    1
 C1 
A    2
 S1 
A    3
 O1 
A    4
 O2 
A    5
 N1 
A    6
 C2 
A    7
 C3 
A    8
 C4 
A    9
 C5 
A   10
 C6 
A   11
 C7 
A   12
 N2 
M  END
>  <ref_pdb>  (1602) 
Ax0310a

>  <ref_mols>  (1602) 
Ax0446a,Ax1080a,Ax0812a,Ax0719a,Ax1140a,Ax0528a,Ax0310a

>  <original SMILES>  (1602) 
CS(=O)(=O)NCc1ccccn1

>  <rationale>  (1602) 
info info set:sulfonimide_joint;hbond:G127; 

>  <experiment>  (1602) 
sulfonimide_joint

>  <cluster_label>  (1602) 
3

>  <cluster_rank>  (1602) 
1259

>  <N_interactions>  (1602) 
1

>  <∆∆G>  (1602) 
-3.389836

>  <comRMSD>  (1602) 
0.814659

>  <ROCS_TanimotoCombo>  (1602) 
0.297

>  <ROCS_ShapeTanimoto>  (1602) 
0.16

>  <ROCS_ColorTanimoto>  (1602) 
0.137

$$$$
EN300_102661
     RDKit          3D

 12 12  0  0  0  0  0  0  0  0999 V2000
   28.9951    8.5341    8.0732 C   0  0  0  0  0  0  0  0  0  0  0  0
   29.7799    7.9322    8.9991 C   0  0  0  0  0  0  0  0  0  0  0  0
   29.3708    8.6177   10.1208 C   0  0  0  0  0  0  0  0  0  0  0  0
   31.1481    8.3267    8.5102 C   0  0  0  0  0  0  0  0  0  0  0  0
   30.8750    9.8785    8.3489 C   0  0  0  0  0  0  0  0  0  0  0  0
   30.1523   10.6844    8.8849 O   0  0  0  0  0  0  0  0  0  0  0  0
   31.8503   10.1293    7.1667 C   0  0  0  0  0  0  0  0  0  0  0  0
   31.9251   11.5366    6.6153 C   0  0  0  0  0  0  0  0  0  0  0  0
   32.9078   11.6894    5.4594 C   0  0  0  0  0  0  0  0  0  0  0  0
   33.6731   10.4870    4.9951 C   0  0  0  0  0  0  0  0  0  0  0  0
   33.4292    9.1728    5.7083 C   0  0  0  0  0  0  0  0  0  0  0  0
   32.5847    8.9588    6.7289 N   0  0  0  0  0  0  0  0  0  0  0  0
  1  2  1  0
  2  3  1  0
  2  4  1  0
  4  5  1  0
  5  6  2  0
  5  7  1  0
  7  8  2  0
  8  9  1  0
  9 10  2  0
 10 11  1  0
 11 12  2  0
 12  7  1  0
A    1
 C1 
A    2
 C2 
A    3
 C3 
A    4
 C4 
A    5
 C5 
A    6
 O1 
A    7
 C6 
A    8
 C7 
A    9
 C8 
A   10
 C9 
A   11
 C10
A   12
 N1 
M  END
>  <ref_pdb>  (1603) 
Ax0310a

>  <ref_mols>  (1603) 
Ax0446a,Ax1080a,Ax0812a,Ax0719a,Ax1140a,Ax0528a,Ax0310a

>  <original SMILES>  (1603) 
CC(C)CC(=O)c1ccccn1

>  <rationale>  (1603) 
info info set:bb_densepocket2;hydroph_interaction:P107+V124; 

>  <experiment>  (1603) 
bb_densepocket2

>  <cluster_label>  (1603) 
3

>  <cluster_rank>  (1603) 
1260

>  <N_interactions>  (1603) 
2

>  <∆∆G>  (1603) 
-0.143849

>  <comRMSD>  (1603) 
0.741134

>  <ROCS_TanimotoCombo>  (1603) 
0.611

>  <ROCS_ShapeTanimoto>  (1603) 
0.187

>  <ROCS_ColorTanimoto>  (1603) 
0.424

$$$$
EN300_20812922
     RDKit          3D

 16 16  0  0  0  0  0  0  0  0999 V2000
   27.8391   12.4194    7.1065 C   0  0  0  0  0  0  0  0  0  0  0  0
   28.8362   12.8603    8.1422 C   0  0  0  0  0  0  0  0  0  0  0  0
   30.1377   12.3545    7.7870 O   0  0  0  0  0  0  0  0  0  0  0  0
   30.4226   11.0567    8.0908 C   0  0  0  0  0  0  0  0  0  0  0  0
   29.8773   10.3853    8.9257 O   0  0  0  0  0  0  0  0  0  0  0  0
   31.4358   10.5223    7.3196 C   0  0  0  0  0  0  0  0  0  0  0  0
   31.7321    9.1860    7.2794 C   0  0  0  0  0  0  0  0  0  0  0  0
   32.7055    8.6063    6.5408 N   0  0  0  0  0  0  0  0  0  0  0  0
   33.4992    9.3955    5.7335 C   0  0  0  0  0  0  0  0  0  0  0  0
   34.4437    8.7372    5.0247 O   0  0  0  0  0  0  0  0  0  0  0  0
   33.3494   10.7621    5.6488 C   0  0  0  0  0  0  0  0  0  0  0  0
   32.2541   11.4377    6.4793 C   0  0  0  0  0  0  0  0  0  0  0  0
   32.0480   12.9683    6.4197 C   0  0  0  0  0  0  0  0  0  0  0  0
   32.2591   13.5412    7.6278 F   0  0  0  0  0  0  0  0  0  0  0  0
   30.8070   13.2973    5.9808 F   0  0  0  0  0  0  0  0  0  0  0  0
   32.9150   13.5663    5.5508 F   0  0  0  0  0  0  0  0  0  0  0  0
  1  2  1  0
  2  3  1  0
  3  4  1  0
  4  5  2  0
  4  6  1  0
  6  7  2  0
  7  8  1  0
  8  9  2  0
  9 10  1  0
  9 11  1  0
 11 12  2  0
 12 13  1  0
 13 14  1  0
 13 15  1  0
 13 16  1  0
 12  6  1  0
A    1
 C1 
A    2
 C2 
A    3
 O1 
A    4
 C3 
A    5
 O2 
A    6
 C4 
A    7
 C5 
A    8
 N1 
A    9
 C6 
A   10
 O3 
A   11
 C7 
A   12
 C8 
A   13
 C9 
A   14
 F1 
A   15
 F2 
A   16
 F3 
M  END
>  <ref_pdb>  (1604) 
Ax0310a

>  <ref_mols>  (1604) 
Ax0446a,Ax1080a,Ax0812a,Ax0719a,Ax1140a,Ax0528a,Ax0310a

>  <original SMILES>  (1604) 
CCOC(=O)c1cnc(O)cc1C(F)(F)F

>  <rationale>  (1604) 
info info set:bb_densepocket2;hydroph_interaction:P107; 

>  <experiment>  (1604) 
bb_densepocket2

>  <cluster_label>  (1604) 
3

>  <cluster_rank>  (1604) 
1261

>  <N_interactions>  (1604) 
2

>  <∆∆G>  (1604) 
-2.388915

>  <comRMSD>  (1604) 
0.633722

>  <ROCS_TanimotoCombo>  (1604) 
0.606

>  <ROCS_ShapeTanimoto>  (1604) 
0.24

>  <ROCS_ColorTanimoto>  (1604) 
0.366

$$$$
Z45497656
     RDKit          3D

 14 14  0  0  0  0  0  0  0  0999 V2000
   33.5464   12.1587    4.4080 C   0  0  0  0  0  0  0  0  0  0  0  0
   32.7855   13.2801    4.7312 C   0  0  0  0  0  0  0  0  0  0  0  0
   33.0965   14.3661    3.9229 C   0  0  0  0  0  0  0  0  0  0  0  0
   33.3231   13.7027    6.0132 N   0  0  0  0  0  0  0  0  0  0  0  0
   32.5986   13.1773    7.4481 S   0  0  0  0  0  6  0  0  0  0  0  0
   33.5755   13.1683    8.5204 O   0  0  0  0  0  0  0  0  0  0  0  0
   31.3056   13.7664    7.6167 O   0  0  0  0  0  0  0  0  0  0  0  0
   32.2539   11.5074    7.2320 C   0  0  0  0  0  0  0  0  0  0  0  0
   33.2121   10.7090    6.6638 C   0  0  0  0  0  0  0  0  0  0  0  0
   33.0169    9.2785    6.5365 C   0  0  0  0  0  0  0  0  0  0  0  0
   31.7196    8.7731    7.1018 C   0  0  0  0  0  0  0  0  0  0  0  0
   30.7742    9.5914    7.6283 C   0  0  0  0  0  0  0  0  0  0  0  0
   31.0409   11.0545    7.6704 C   0  0  0  0  0  0  0  0  0  0  0  0
   29.8409   12.1164    8.2582 Cl  0  0  0  0  0  0  0  0  0  0  0  0
  1  2  1  0
  2  3  1  0
  2  4  1  0
  4  5  1  0
  5  6  2  0
  5  7  2  0
  5  8  1  0
  8  9  2  0
  9 10  1  0
 10 11  2  0
 11 12  1  0
 12 13  2  0
 13 14  1  0
 13  8  1  0
A    1
 C1 
A    2
 C2 
A    3
 C3 
A    4
 N1 
A    5
 S1 
A    6
 O1 
A    7
 O2 
A    8
 C4 
A    9
 C5 
A   10
 C6 
A   11
 C7 
A   12
 C8 
A   13
 C9 
A   14
CL1 
M  END
>  <ref_pdb>  (1605) 
Ax0310a

>  <ref_mols>  (1605) 
Ax0446a,Ax1080a,Ax0812a,Ax0719a,Ax1140a,Ax0528a,Ax0310a

>  <original SMILES>  (1605) 
CC(C)NS(=O)(=O)c1ccccc1Cl

>  <rationale>  (1605) 
info info set:3d;hbond:S87+G127; 

>  <experiment>  (1605) 
3d

>  <cluster_label>  (1605) 
3

>  <cluster_rank>  (1605) 
1262

>  <N_interactions>  (1605) 
2

>  <∆∆G>  (1605) 
-2.679351

>  <comRMSD>  (1605) 
0.648935

>  <ROCS_TanimotoCombo>  (1605) 
0.287

>  <ROCS_ShapeTanimoto>  (1605) 
0.172

>  <ROCS_ColorTanimoto>  (1605) 
0.114

$$$$
EN300_249459
     RDKit          3D

 13 13  0  0  0  0  0  0  0  0999 V2000
   29.4097   14.5845   10.7477 C   0  0  0  0  0  0  0  0  0  0  0  0
   29.1308   13.8667    9.4023 C   0  0  0  0  0  0  0  0  0  0  0  0
   30.3610   13.2922    8.9080 O   0  0  0  0  0  0  0  0  0  0  0  0
   30.3826   12.0714    8.2848 C   0  0  0  0  0  0  0  0  0  0  0  0
   30.2432   10.9830    8.8074 O   0  0  0  0  0  0  0  0  0  0  0  0
   30.6531   12.2126    6.8146 C   0  0  0  0  0  0  0  0  0  0  0  0
   31.7363   11.1740    6.4531 C   0  0  0  0  0  0  0  0  0  0  0  0
   31.3290    9.8828    7.2116 C   0  0  0  0  0  0  0  0  0  0  0  0
   32.2452    8.9063    6.9223 N   0  0  0  0  0  0  0  0  0  0  0  0
   33.2224    9.4000    6.0570 C   0  0  0  0  0  0  0  0  0  0  0  0
   34.2067    8.5860    5.6580 N   0  0  0  0  0  0  0  0  0  0  0  0
   34.8499    8.5831    4.3794 C   0  0  0  0  0  0  0  0  0  0  0  0
   33.1280   11.0564    5.5329 S   0  0  0  0  0  0  0  0  0  0  0  0
  1  2  1  0
  2  3  1  0
  3  4  1  0
  4  5  2  0
  4  6  1  0
  6  7  1  0
  7  8  2  0
  8  9  1  0
  9 10  2  0
 10 11  1  0
 11 12  1  0
 10 13  1  0
 13  7  1  0
A    1
 C1 
A    2
 C2 
A    3
 O1 
A    4
 C3 
A    5
 O2 
A    6
 C4 
A    7
 C5 
A    8
 C6 
A    9
 N1 
A   10
 C7 
A   11
 N2 
A   12
 C8 
A   13
 S1 
M  END
>  <ref_pdb>  (1606) 
Ax0310a

>  <ref_mols>  (1606) 
Ax0446a,Ax1080a,Ax0812a,Ax0719a,Ax1140a,Ax0528a,Ax0310a

>  <original SMILES>  (1606) 
CCOC(=O)Cc1cnc(NC)s1

>  <rationale>  (1606) 
info info set:bb_densepocket2;hbond:S105; hydroph_interaction:P107+Y90; 

>  <experiment>  (1606) 
bb_densepocket2

>  <cluster_label>  (1606) 
3

>  <cluster_rank>  (1606) 
1263

>  <N_interactions>  (1606) 
3

>  <∆∆G>  (1606) 
-2.420876

>  <comRMSD>  (1606) 
0.825815

>  <ROCS_TanimotoCombo>  (1606) 
0.607

>  <ROCS_ShapeTanimoto>  (1606) 
0.192

>  <ROCS_ColorTanimoto>  (1606) 
0.414

$$$$
Z445126272
     RDKit          3D

 15 16  0  0  0  0  0  0  0  0999 V2000
   31.5102   13.5119    8.6717 C   0  0  0  0  0  0  0  0  0  0  0  0
   32.1323   13.0328    7.3687 C   0  0  0  0  0  0  0  0  0  0  0  0
   31.6205   13.3537    6.0086 C   0  0  0  0  0  0  0  0  0  0  0  0
   31.9945   11.5612    7.3123 C   0  0  0  0  0  0  0  0  0  0  0  0
   32.8958   10.8240    6.3299 C   0  0  0  0  0  0  0  0  0  0  0  0
   32.7550    9.3260    6.2838 C   0  0  0  0  0  0  0  0  0  0  0  0
   31.7487    8.6124    7.1975 C   0  0  0  0  0  0  0  0  0  0  0  0
   30.9245    9.4577    8.0962 C   0  0  0  0  0  0  0  0  0  0  0  0
   31.0787   10.9367    8.1204 C   0  0  0  0  0  0  0  0  0  0  0  0
   33.6265   13.3485    7.4196 C   0  0  0  0  0  0  0  0  0  0  0  0
   34.4692   13.5944    6.3796 N   0  0  0  0  0  0  0  0  0  0  0  0
   35.7734   13.8245    6.7948 N   0  0  0  0  0  0  0  0  0  0  0  0
   35.9080   13.7536    8.1014 C   0  0  0  0  0  0  0  0  0  0  0  0
   37.0804   13.9002    8.8191 N   0  0  0  0  0  0  0  0  0  0  0  0
   34.4191   13.4142    8.8735 S   0  0  0  0  0  0  0  0  0  0  0  0
  1  2  1  0
  2  3  1  0
  2  4  1  0
  4  5  2  0
  5  6  1  0
  6  7  2  0
  7  8  1  0
  8  9  2  0
  2 10  1  0
 10 11  2  0
 11 12  1  0
 12 13  2  0
 13 14  1  0
 13 15  1  0
  9  4  1  0
 15 10  1  0
A    1
 C1 
A    2
 C2 
A    3
 C3 
A    4
 C4 
A    5
 C5 
A    6
 C6 
A    7
 C7 
A    8
 C8 
A    9
 C9 
A   10
 C10
A   11
 N1 
A   12
 N2 
A   13
 C11
A   14
 N3 
A   15
 S1 
M  END
>  <ref_pdb>  (1607) 
Ax0310a

>  <ref_mols>  (1607) 
Ax0446a,Ax1080a,Ax0812a,Ax0719a,Ax1140a,Ax0528a,Ax0310a

>  <original SMILES>  (1607) 
CC(C)(c1ccccc1)c1nnc(N)s1

>  <rationale>  (1607) 
info info set:3d;hbond:E85; 

>  <experiment>  (1607) 
3d

>  <cluster_label>  (1607) 
3

>  <cluster_rank>  (1607) 
1264

>  <N_interactions>  (1607) 
1

>  <∆∆G>  (1607) 
-4.501069

>  <comRMSD>  (1607) 
0.895838

>  <ROCS_TanimotoCombo>  (1607) 
0.287

>  <ROCS_ShapeTanimoto>  (1607) 
0.165

>  <ROCS_ColorTanimoto>  (1607) 
0.122

$$$$
EN300_195447
     RDKit          3D

 11 11  0  0  0  0  0  0  0  0999 V2000
   29.5017    8.1479    8.4739 C   0  0  0  0  0  0  0  0  0  0  0  0
   30.7370    8.7769    8.9495 C   0  0  0  0  0  0  0  0  0  0  0  0
   30.8230   10.1880    8.3729 C   0  0  0  0  0  0  0  0  0  0  0  0
   30.2161   11.1932    8.6836 O   0  0  0  0  0  0  0  0  0  0  0  0
   31.8173   10.3043    7.2618 C   0  0  0  0  0  0  0  0  0  0  0  0
   32.3539    9.0559    6.7751 N   0  0  0  0  0  0  0  0  0  0  0  0
   33.2806    9.2160    5.7291 C   0  0  0  0  0  0  0  0  0  0  0  0
   33.6890   10.6027    5.1506 C   0  0  0  0  0  0  0  0  0  0  0  0
   33.1320   11.7599    5.6778 C   0  0  0  0  0  0  0  0  0  0  0  0
   32.2061   11.7040    6.7196 C   0  0  0  0  0  0  0  0  0  0  0  0
   31.6090   12.9472    7.2984 C   0  0  0  0  0  0  0  0  0  0  0  0
  1  2  1  0
  2  3  1  0
  3  4  2  0
  3  5  1  0
  5  6  2  0
  6  7  1  0
  7  8  2  0
  8  9  1  0
  9 10  2  0
 10 11  1  0
 10  5  1  0
A    1
 C1 
A    2
 C2 
A    3
 C3 
A    4
 O1 
A    5
 C4 
A    6
 N1 
A    7
 C5 
A    8
 C6 
A    9
 C7 
A   10
 C8 
A   11
 C9 
M  END
>  <ref_pdb>  (1608) 
Ax0310a

>  <ref_mols>  (1608) 
Ax0446a,Ax1080a,Ax0812a,Ax0719a,Ax1140a,Ax0528a,Ax0310a

>  <original SMILES>  (1608) 
CCC(=O)c1ncccc1C

>  <rationale>  (1608) 
info info set:bb_densepocket2;hydroph_interaction:V124; 

>  <experiment>  (1608) 
bb_densepocket2

>  <cluster_label>  (1608) 
3

>  <cluster_rank>  (1608) 
1265

>  <N_interactions>  (1608) 
1

>  <∆∆G>  (1608) 
-2.521674

>  <comRMSD>  (1608) 
0.604422

>  <ROCS_TanimotoCombo>  (1608) 
0.608

>  <ROCS_ShapeTanimoto>  (1608) 
0.197

>  <ROCS_ColorTanimoto>  (1608) 
0.411

$$$$
EN300_26584533
     RDKit          3D

 16 16  0  0  0  0  0  0  0  0999 V2000
   29.6899   14.2162    9.3175 C   0  0  0  0  0  0  0  0  0  0  0  0
   29.1525   12.9767    8.6671 C   0  0  0  0  0  0  0  0  0  0  0  0
   30.0586   11.7165    8.3083 C   0  0  0  0  0  0  0  0  0  0  0  0
   30.0369   10.6180    8.8476 O   0  0  0  0  0  0  0  0  0  0  0  0
   30.8755   11.9999    7.3293 N   0  0  0  0  0  0  0  0  0  0  0  0
   31.6122   10.9787    6.9304 C   0  0  0  0  0  0  0  0  0  0  0  0
   31.5752    9.5582    7.3282 C   0  0  0  0  0  0  0  0  0  0  0  0
   30.8662    8.9515    8.1247 O   0  0  0  0  0  0  0  0  0  0  0  0
   32.4978    8.8772    6.6658 N   0  0  0  0  0  0  0  0  0  0  0  0
   33.1074    9.8071    5.8868 N   0  0  0  0  0  0  0  0  0  0  0  0
   34.1900    9.3896    5.0281 C   0  0  0  0  0  0  0  0  0  0  0  0
   32.6002   11.0728    6.0214 C   0  0  0  0  0  0  0  0  0  0  0  0
   33.0967   12.3102    5.2650 C   0  0  0  0  0  0  0  0  0  0  0  0
   34.3837   12.6120    5.5388 F   0  0  0  0  0  0  0  0  0  0  0  0
   32.3596   13.4012    5.6145 F   0  0  0  0  0  0  0  0  0  0  0  0
   32.9813   12.1921    3.9241 F   0  0  0  0  0  0  0  0  0  0  0  0
  1  2  2  0
  2  3  1  0
  3  4  2  0
  3  5  1  0
  5  6  1  0
  6  7  1  0
  7  8  1  0
  7  9  2  0
  9 10  1  0
 10 11  1  0
 10 12  1  0
 12 13  1  0
 13 14  1  0
 13 15  1  0
 13 16  1  0
 12  6  2  0
A    1
 C1 
A    2
 C2 
A    3
 C3 
A    4
 O1 
A    5
 N1 
A    6
 C4 
A    7
 C5 
A    8
 O2 
A    9
 N2 
A   10
 N3 
A   11
 C6 
A   12
 C7 
A   13
 C8 
A   14
 F1 
A   15
 F2 
A   16
 F3 
M  END
>  <ref_pdb>  (1609) 
Ax0310a

>  <ref_mols>  (1609) 
Ax0446a,Ax1080a,Ax0812a,Ax0719a,Ax1140a,Ax0528a,Ax0310a

>  <original SMILES>  (1609) 
C=CC(=O)Nc1c(O)nn(C)c1C(F)(F)F

>  <rationale>  (1609) 
info info set:bb_densepocket2;hbond:S105; 

>  <experiment>  (1609) 
bb_densepocket2

>  <cluster_label>  (1609) 
3

>  <cluster_rank>  (1609) 
1266

>  <N_interactions>  (1609) 
1

>  <∆∆G>  (1609) 
-2.921814

>  <comRMSD>  (1609) 
0.572379

>  <ROCS_TanimotoCombo>  (1609) 
0.608

>  <ROCS_ShapeTanimoto>  (1609) 
0.246

>  <ROCS_ColorTanimoto>  (1609) 
0.361

$$$$
EN300_302317
     RDKit          3D

 12 12  0  0  0  0  0  0  0  0999 V2000
   28.8786   11.7038    7.7407 C   0  0  0  0  0  0  0  0  0  0  0  0
   29.4806   10.4640    8.1590 O   0  0  0  0  0  0  0  0  0  0  0  0
   30.7087   10.4174    7.6832 C   0  0  0  0  0  0  0  0  0  0  0  0
   31.5082   11.6437    7.7296 C   0  0  0  0  0  0  0  0  0  0  0  0
   32.6904   11.3718    7.1679 C   0  0  0  0  0  0  0  0  0  0  0  0
   33.8133   12.2570    7.0280 C   0  0  0  0  0  0  0  0  0  0  0  0
   33.5143   13.9078    7.0645 S   0  0  0  0  0  6  0  0  0  0  0  0
   34.8635   14.5242    7.8703 N   0  0  0  0  0  0  0  0  0  0  0  0
   32.4014   14.0144    7.9805 O   0  0  0  0  0  0  0  0  0  0  0  0
   33.5628   14.3665    5.7052 O   0  0  0  0  0  0  0  0  0  0  0  0
   32.7423    9.7463    6.6190 S   0  0  0  0  0  0  0  0  0  0  0  0
   31.2445    9.3391    7.1538 N   0  0  0  0  0  0  0  0  0  0  0  0
  1  2  1  0
  2  3  1  0
  3  4  1  0
  4  5  2  0
  5  6  1  0
  6  7  1  0
  7  8  1  0
  7  9  2  0
  7 10  2  0
  5 11  1  0
 11 12  1  0
 12  3  2  0
A    1
 C1 
A    2
 O1 
A    3
 C2 
A    4
 C3 
A    5
 C4 
A    6
 C5 
A    7
 S1 
A    8
 N1 
A    9
 O2 
A   10
 O3 
A   11
 S2 
A   12
 N2 
M  END
>  <ref_pdb>  (1610) 
Ax0310a

>  <ref_mols>  (1610) 
Ax0446a,Ax1080a,Ax0812a,Ax0719a,Ax1140a,Ax0528a,Ax0310a

>  <original SMILES>  (1610) 
COc1cc(CS(N)(=O)=O)sn1

>  <rationale>  (1610) 
info info set:sulfonimide_joint;hbond:S87+E85; 

>  <experiment>  (1610) 
sulfonimide_joint

>  <cluster_label>  (1610) 
3

>  <cluster_rank>  (1610) 
1267

>  <N_interactions>  (1610) 
2

>  <∆∆G>  (1610) 
-0.0484

>  <comRMSD>  (1610) 
0.9378

>  <ROCS_TanimotoCombo>  (1610) 
0.302

>  <ROCS_ShapeTanimoto>  (1610) 
0.139

>  <ROCS_ColorTanimoto>  (1610) 
0.163

$$$$
EN300_5161474
     RDKit          3D

 13 13  0  0  0  0  0  0  0  0999 V2000
   27.9006   12.9917    7.1190 C   0  0  0  0  0  0  0  0  0  0  0  0
   28.8660   13.2215    8.2677 C   0  0  0  0  0  0  0  0  0  0  0  0
   30.2000   12.8114    7.8711 O   0  0  0  0  0  0  0  0  0  0  0  0
   30.4824   11.4925    8.0568 C   0  0  0  0  0  0  0  0  0  0  0  0
   29.9677   10.7521    8.8368 O   0  0  0  0  0  0  0  0  0  0  0  0
   31.5436   10.9797    7.1711 C   0  0  0  0  0  0  0  0  0  0  0  0
   32.3986   11.9652    6.2484 C   0  0  0  0  0  0  0  0  0  0  0  0
   33.3838   11.0132    5.4902 C   0  0  0  0  0  0  0  0  0  0  0  0
   33.4848    9.5181    5.6177 C   0  0  0  0  0  0  0  0  0  0  0  0
   34.5634    8.9008    4.7229 C   0  0  0  0  0  0  0  0  0  0  0  0
   32.7212    8.8116    6.4208 N   0  0  0  0  0  0  0  0  0  0  0  0
   31.8147    9.4458    7.1535 C   0  0  0  0  0  0  0  0  0  0  0  0
   31.0549    8.5964    7.9776 N   0  0  0  0  0  0  0  0  0  0  0  0
  1  2  1  0
  2  3  1  0
  3  4  1  0
  4  5  2  0
  4  6  1  0
  6  7  2  0
  7  8  1  0
  8  9  2  0
  9 10  1  0
  9 11  1  0
 11 12  2  0
 12 13  1  0
 12  6  1  0
A    1
 C1 
A    2
 C2 
A    3
 O1 
A    4
 C3 
A    5
 O2 
A    6
 C4 
A    7
 C5 
A    8
 C6 
A    9
 C7 
A   10
 C8 
A   11
 N1 
A   12
 C9 
A   13
 N2 
M  END
>  <ref_pdb>  (1611) 
Ax0310a

>  <ref_mols>  (1611) 
Ax0446a,Ax1080a,Ax0812a,Ax0719a,Ax1140a,Ax0528a,Ax0310a

>  <original SMILES>  (1611) 
CCOC(=O)c1ccc(C)nc1N

>  <rationale>  (1611) 
info info set:bb_densepocket2;hbond:S105; 

>  <experiment>  (1611) 
bb_densepocket2

>  <cluster_label>  (1611) 
3

>  <cluster_rank>  (1611) 
1268

>  <N_interactions>  (1611) 
1

>  <∆∆G>  (1611) 
-3.743486

>  <comRMSD>  (1611) 
0.7702

>  <ROCS_TanimotoCombo>  (1611) 
0.608

>  <ROCS_ShapeTanimoto>  (1611) 
0.235

>  <ROCS_ColorTanimoto>  (1611) 
0.373

$$$$
Z822833898
     RDKit          3D

 21 23  0  0  0  0  0  0  0  0999 V2000
   35.8023   11.6918    2.5413 C   0  0  0  0  0  0  0  0  0  0  0  0
   35.0002   10.9632    3.5925 C   0  0  0  0  0  0  0  0  0  0  0  0
   35.4294    9.5201    3.7133 C   0  0  0  0  0  0  0  0  0  0  0  0
   34.6564    8.7618    4.7488 C   0  0  0  0  0  0  0  0  0  0  0  0
   33.5088    9.4590    5.5966 C   0  0  0  0  0  0  0  0  0  0  0  0
   32.8157    8.7477    6.5277 N   0  0  0  0  0  0  0  0  0  0  0  0
   31.8499    9.3705    7.2334 C   0  0  0  0  0  0  0  0  0  0  0  0
   31.0435    8.6610    8.2982 C   0  0  0  0  0  0  0  0  0  0  0  0
   31.5587   10.8292    6.9743 C   0  0  0  0  0  0  0  0  0  0  0  0
   30.5200   11.4894    7.7321 C   0  0  0  0  0  0  0  0  0  0  0  0
   30.3870   11.2005    8.8556 O   0  0  0  0  0  0  0  0  0  0  0  0
   29.7728   12.3457    7.0587 O   0  0  0  0  0  0  0  0  0  0  0  0
   28.7536   12.7750    7.9423 C   0  0  0  0  0  0  0  0  0  0  0  0
   28.9641   14.2039    8.3440 C   0  0  0  0  0  0  0  0  0  0  0  0
   30.2223   14.4318    9.1849 C   0  0  0  0  0  0  0  0  0  0  0  0
   28.7098   15.1599    7.2114 C   0  0  0  0  0  0  0  0  0  0  0  0
   27.3211   14.9583    7.4953 O   0  0  0  0  0  0  0  0  0  0  0  0
   27.7239   14.8935    8.8667 C   0  0  0  0  0  0  0  0  0  0  0  0
   32.2803   11.4999    6.0337 C   0  0  0  0  0  0  0  0  0  0  0  0
   33.2663   10.8262    5.3268 C   0  0  0  0  0  0  0  0  0  0  0  0
   33.9915   11.5377    4.3609 C   0  0  0  0  0  0  0  0  0  0  0  0
  1  2  1  0
  2  3  2  0
  3  4  1  0
  4  5  2  0
  5  6  1  0
  6  7  2  0
  7  8  1  0
  7  9  1  0
  9 10  1  0
 10 11  2  0
 10 12  1  0
 12 13  1  0
 13 14  1  0
 14 15  1  0
 14 16  1  0
 16 17  1  0
 17 18  1  0
  9 19  2  0
 19 20  1  0
 20 21  2  0
 21  2  1  0
 20  5  1  0
 18 14  1  0
A    1
 C1 
A    2
 C2 
A    3
 C3 
A    4
 C4 
A    5
 C5 
A    6
 N1 
A    7
 C6 
A    8
 C7 
A    9
 C8 
A   10
 C9 
A   11
 O1 
A   12
 O2 
A   13
 C10
A   14
 C11
A   15
 C12
A   16
 C13
A   17
 O3 
A   18
 C14
A   19
 C15
A   20
 C16
A   21
 C17
M  END
>  <ref_pdb>  (1612) 
Ax0310a

>  <ref_mols>  (1612) 
Ax0446a,Ax1080a,Ax0812a,Ax0719a,Ax1140a,Ax0528a,Ax0310a

>  <original SMILES>  (1612) 
Cc1ccc2nc(C)c(C(=O)OCC3(C)COC3)cc2c1

>  <rationale>  (1612) 
info info set:screening_pocket;hydroph_interaction:P107; 

>  <experiment>  (1612) 
screening_pocket

>  <cluster_label>  (1612) 
3

>  <cluster_rank>  (1612) 
1269

>  <N_interactions>  (1612) 
1

>  <∆∆G>  (1612) 
-5.078723

>  <comRMSD>  (1612) 
0.612872

>  <ROCS_TanimotoCombo>  (1612) 
0.626

>  <ROCS_ShapeTanimoto>  (1612) 
0.295

>  <ROCS_ColorTanimoto>  (1612) 
0.331

$$$$
EN300_37408176
     RDKit          3D

 13 14  0  0  0  0  0  0  0  0999 V2000
   29.8111    8.5477    8.1012 C   0  0  0  0  0  0  0  0  0  0  0  0
   31.1252    9.1748    7.7840 C   0  0  0  0  0  0  0  0  0  0  0  0
   31.2729    8.4621    9.0242 C   0  0  0  0  0  0  0  0  0  0  0  0
   32.1861    8.6594    6.9731 O   0  0  0  0  0  0  0  0  0  0  0  0
   32.8636    9.8801    6.4352 C   0  0  2  0  0  0  0  0  0  0  0  0
   33.9338    9.6012    5.3097 C   0  0  0  0  0  0  0  0  0  0  0  0
   32.8312   11.2779    7.1571 C   0  0  0  0  0  0  0  0  0  0  0  0
   31.4334   10.7602    7.7142 C   0  0  2  0  0  0  0  0  0  0  0  0
   30.3066   11.7245    8.0528 C   0  0  0  0  0  0  0  0  0  0  0  0
   29.1523   11.4166    7.8397 O   0  0  0  0  0  0  0  0  0  0  0  0
   30.5647   13.1195    8.5608 C   0  0  0  0  0  0  0  0  0  0  0  0
   28.9538   14.1262    8.1494 Br  0  0  0  0  0  0  0  0  0  0  0  0
   31.6779   10.8108    6.1620 C   0  0  0  0  0  0  0  0  0  0  0  0
  1  2  1  0
  2  3  1  0
  2  4  1  0
  4  5  1  0
  5  6  1  6
  5  7  1  0
  7  8  1  0
  8  9  1  6
  9 10  2  0
  9 11  1  0
 11 12  1  0
  8 13  1  0
  8  2  1  0
 13  5  1  0
A    1
 C1 
A    2
 C2 
A    3
 C3 
A    4
 O1 
A    5
 C4 
A    6
 C5 
A    7
 C6 
A    8
 C7 
A    9
 C8 
A   10
 O2 
A   11
 C9 
A   12
BR1 
A   13
 C10
M  END
>  <ref_pdb>  (1613) 
Ax0310a

>  <ref_mols>  (1613) 
Ax0446a,Ax1080a,Ax0812a,Ax0719a,Ax1140a,Ax0528a,Ax0310a

>  <original SMILES>  (1613) 
CC1(C)O[C@]2(C)C[C@@]1(C(=O)CBr)C2

>  <rationale>  (1613) 
info info set:bb_densepocket;hydroph_interaction:P107+V124; 

>  <experiment>  (1613) 
bb_densepocket

>  <cluster_label>  (1613) 
3

>  <cluster_rank>  (1613) 
1270

>  <N_interactions>  (1613) 
2

>  <∆∆G>  (1613) 
-1.0238

>  <comRMSD>  (1613) 
0.866299

>  <ROCS_TanimotoCombo>  (1613) 
0.696

>  <ROCS_ShapeTanimoto>  (1613) 
0.237

>  <ROCS_ColorTanimoto>  (1613) 
0.459

$$$$
EN300_767742
     RDKit          3D

 15 16  0  0  0  0  0  0  0  0999 V2000
   31.0665   13.4343    8.9622 F   0  0  0  0  0  0  0  0  0  0  0  0
   30.1165   12.6643    8.3774 C   0  0  0  0  0  0  0  0  0  0  0  0
   28.9141   13.0398    8.8556 F   0  0  0  0  0  0  0  0  0  0  0  0
   30.1340   12.9030    7.0553 F   0  0  0  0  0  0  0  0  0  0  0  0
   30.3864   11.2822    8.6439 O   0  0  0  0  0  0  0  0  0  0  0  0
   31.2654   10.6854    7.8316 C   0  0  0  0  0  0  0  0  0  0  0  0
   32.0897   11.7768    7.1145 C   0  0  0  0  0  0  0  0  0  0  0  0
   33.0302   10.9388    6.2230 C   0  0  0  0  0  0  0  0  0  0  0  0
   33.0569    9.4505    6.1539 C   0  0  0  0  0  0  0  0  0  0  0  0
   34.0511    8.9595    5.2061 N   0  0  0  0  0  0  0  0  0  0  0  0
   34.9766    9.7716    4.4202 C   0  0  0  0  0  0  0  0  0  0  0  0
   35.3209    8.9887    3.4290 C   0  0  0  0  0  0  0  0  0  0  0  0
   34.7650   10.1043    2.8076 C   0  0  0  0  0  0  0  0  0  0  0  0
   32.2521    8.6793    6.8843 N   0  0  0  0  0  0  0  0  0  0  0  0
   31.3925    9.3111    7.6814 C   0  0  0  0  0  0  0  0  0  0  0  0
  1  2  1  0
  2  3  1  0
  2  4  1  0
  2  5  1  0
  5  6  1  0
  6  7  2  0
  7  8  1  0
  8  9  2  0
  9 10  1  0
 10 11  1  0
 11 12  1  0
 12 13  1  0
  9 14  1  0
 14 15  2  0
 15  6  1  0
 13 11  1  0
A    1
 F1 
A    2
 C1 
A    3
 F2 
A    4
 F3 
A    5
 O1 
A    6
 C2 
A    7
 C3 
A    8
 C4 
A    9
 C5 
A   10
 N1 
A   11
 C6 
A   12
 C7 
A   13
 C8 
A   14
 N2 
A   15
 C9 
M  END
>  <ref_pdb>  (1614) 
Ax0310a

>  <ref_mols>  (1614) 
Ax0446a,Ax1080a,Ax0812a,Ax0719a,Ax1140a,Ax0528a,Ax0310a

>  <original SMILES>  (1614) 
FC(F)(F)Oc1ccc(NC2CC2)nc1

>  <rationale>  (1614) 
info info set:bb_densepocket2;hbond:S105; 

>  <experiment>  (1614) 
bb_densepocket2

>  <cluster_label>  (1614) 
3

>  <cluster_rank>  (1614) 
1271

>  <N_interactions>  (1614) 
1

>  <∆∆G>  (1614) 
-2.21162

>  <comRMSD>  (1614) 
0.5833

>  <ROCS_TanimotoCombo>  (1614) 
0.606

>  <ROCS_ShapeTanimoto>  (1614) 
0.229

>  <ROCS_ColorTanimoto>  (1614) 
0.377

$$$$
EN300_744912
     RDKit          3D

 16 17  0  0  0  0  0  0  0  0999 V2000
   30.7902    8.0467    9.2081 C   0  0  0  0  0  0  0  0  0  0  0  0
   30.1481    9.0319    8.3590 C   0  0  0  0  0  0  0  0  0  0  0  0
   28.8874    9.4576    8.9051 C   0  0  0  0  0  0  0  0  0  0  0  0
   31.0032   10.1688    8.0548 C   0  0  0  0  0  0  0  0  0  0  0  0
   30.8414   11.2427    8.5893 O   0  0  0  0  0  0  0  0  0  0  0  0
   32.0464    9.9496    6.9840 C   0  0  0  0  0  0  0  0  0  0  0  0
   32.4700   11.2348    6.4366 C   0  0  0  0  0  0  0  0  0  0  0  0
   33.4385   10.9168    5.4202 C   0  0  0  0  0  0  0  0  0  0  0  0
   34.1589   11.9200    4.5671 C   0  0  0  0  0  0  0  0  0  0  0  0
   33.8456   13.5741    4.7834 Cl  0  0  0  0  0  0  0  0  0  0  0  0
   35.0372   11.4116    3.6498 C   0  0  0  0  0  0  0  0  0  0  0  0
   35.2012   10.0368    3.5658 C   0  0  0  0  0  0  0  0  0  0  0  0
   34.5419    9.0874    4.3510 C   0  0  0  0  0  0  0  0  0  0  0  0
   35.0913    7.5556    3.8466 Cl  0  0  0  0  0  0  0  0  0  0  0  0
   33.5951    9.5338    5.3552 C   0  0  0  0  0  0  0  0  0  0  0  0
   32.7346    8.9007    6.3421 O   0  0  0  0  0  0  0  0  0  0  0  0
  1  2  1  0
  2  3  1  0
  2  4  1  0
  4  5  2  0
  4  6  1  0
  6  7  2  0
  7  8  1  0
  8  9  2  0
  9 10  1  0
  9 11  1  0
 11 12  2  0
 12 13  1  0
 13 14  1  0
 13 15  2  0
 15 16  1  0
 16  6  1  0
 15  8  1  0
A    1
 C1 
A    2
 C2 
A    3
 C3 
A    4
 C4 
A    5
 O1 
A    6
 C5 
A    7
 C6 
A    8
 C7 
A    9
 C8 
A   10
CL1 
A   11
 C9 
A   12
 C10
A   13
 C11
A   14
CL2 
A   15
 C12
A   16
 O2 
M  END
>  <ref_pdb>  (1615) 
Ax0310a

>  <ref_mols>  (1615) 
Ax0446a,Ax1080a,Ax0812a,Ax0719a,Ax1140a,Ax0528a,Ax0310a

>  <original SMILES>  (1615) 
CC(C)C(=O)c1cc2c(Cl)ccc(Cl)c2o1

>  <rationale>  (1615) 
info info set:bb_densepocket2;

>  <experiment>  (1615) 
bb_densepocket2

>  <cluster_label>  (1615) 
3

>  <cluster_rank>  (1615) 
1272

>  <N_interactions>  (1615) 
0

>  <∆∆G>  (1615) 
-5.329716

>  <comRMSD>  (1615) 
0.949439

>  <ROCS_TanimotoCombo>  (1615) 
0.607

>  <ROCS_ShapeTanimoto>  (1615) 
0.239

>  <ROCS_ColorTanimoto>  (1615) 
0.368

$$$$
EN300_213344
     RDKit          3D

 17 17  0  0  0  0  0  0  0  0999 V2000
   28.4552   12.3289    7.1132 C   0  0  0  0  0  0  0  0  0  0  0  0
   27.9952   11.3115    8.0922 C   0  0  0  0  0  0  0  0  0  0  0  0
   28.8872   10.3788    8.5853 C   0  0  0  0  0  0  0  0  0  0  0  0
   30.1426   11.0383    8.6135 N   0  0  0  0  0  0  0  0  0  0  0  0
   31.1601   10.6779    7.8000 C   0  0  0  0  0  0  0  0  0  0  0  0
   31.4544    9.3578    7.5935 C   0  0  0  0  0  0  0  0  0  0  0  0
   32.5579    8.9635    6.7219 C   0  0  0  0  0  0  0  0  0  0  0  0
   33.4100    9.9940    6.0218 C   0  0  0  0  0  0  0  0  0  0  0  0
   34.4301    9.5972    5.2358 N   0  0  0  0  0  4  0  0  0  0  0  0
   35.1551   10.5040    4.8062 O   0  0  0  0  0  0  0  0  0  0  0  0
   34.8715    8.4703    5.4472 O   0  0  0  0  0  1  0  0  0  0  0  0
   33.0971   11.3538    6.2349 C   0  0  0  0  0  0  0  0  0  0  0  0
   31.9341   11.6259    7.1531 C   0  0  0  0  0  0  0  0  0  0  0  0
   31.6353   13.2906    7.3275 S   0  0  0  0  0  6  0  0  0  0  0  0
   32.9128   13.7770    6.3461 N   0  0  0  0  0  0  0  0  0  0  0  0
   30.4041   13.5688    6.6224 O   0  0  0  0  0  0  0  0  0  0  0  0
   31.9129   13.7480    8.6712 O   0  0  0  0  0  0  0  0  0  0  0  0
  1  2  1  0
  2  3  1  0
  3  4  1  0
  4  5  1  0
  5  6  2  0
  6  7  1  0
  7  8  2  0
  8  9  1  0
  9 10  2  0
  9 11  1  0
  8 12  1  0
 12 13  2  0
 13 14  1  0
 14 15  1  0
 14 16  2  0
 14 17  2  0
 13  5  1  0
M  CHG  2   9   1  11  -1
A    1
 C1 
A    2
 C2 
A    3
 C3 
A    4
 N1 
A    5
 C4 
A    6
 C5 
A    7
 C6 
A    8
 C7 
A    9
 N2 
A   10
 O1 
A   11
 O2 
A   12
 C8 
A   13
 C9 
A   14
 S1 
A   15
 N3 
A   16
 O3 
A   17
 O4 
M  END
>  <ref_pdb>  (1616) 
Ax0310a

>  <ref_mols>  (1616) 
Ax0446a,Ax1080a,Ax0812a,Ax0719a,Ax1140a,Ax0528a,Ax0310a

>  <original SMILES>  (1616) 
CCCNc1ccc([N+](=O)[O-])cc1S(N)(=O)=O

>  <rationale>  (1616) 
info info set:sulfonimide_whole;hbond:S87+S125; hydroph_interaction:P107; 

>  <experiment>  (1616) 
sulfonimide_whole

>  <cluster_label>  (1616) 
3

>  <cluster_rank>  (1616) 
1273

>  <N_interactions>  (1616) 
3

>  <∆∆G>  (1616) 
-1.099477

>  <comRMSD>  (1616) 
0.754454

>  <ROCS_TanimotoCombo>  (1616) 
0.331

>  <ROCS_ShapeTanimoto>  (1616) 
0.202

>  <ROCS_ColorTanimoto>  (1616) 
0.129

$$$$
EN300_1666704
     RDKit          3D

 11 12  0  0  0  0  0  0  0  0999 V2000
   30.1365   13.9373    9.1491 C   0  0  0  0  0  0  0  0  0  0  0  0
   30.9908   13.2330    8.2419 O   0  0  0  0  0  0  0  0  0  0  0  0
   30.4910   12.0264    7.8488 C   0  0  0  0  0  0  0  0  0  0  0  0
   31.5959   11.0868    7.4504 C   0  0  2  0  0  0  0  0  0  0  0  0
   31.4340    9.5789    7.7284 C   0  0  0  0  0  0  0  0  0  0  0  0
   32.6001    9.0745    7.0913 O   0  0  0  0  0  0  0  0  0  0  0  0
   33.1132   10.2529    6.4065 C   0  0  2  0  0  0  0  0  0  0  0  0
   34.2177    9.9596    5.3745 C   0  0  0  0  0  0  0  0  0  0  0  0
   33.8111   10.2295    4.0341 O   0  0  0  0  0  0  0  0  0  0  0  0
   33.0432   11.6054    7.1090 C   0  0  0  0  0  0  0  0  0  0  0  0
   31.8205   10.9532    5.9896 C   0  0  0  0  0  0  0  0  0  0  0  0
  1  2  1  0
  2  3  1  0
  4  3  1  6
  4  5  1  0
  5  6  1  0
  6  7  1  0
  7  8  1  6
  8  9  1  0
  7 10  1  0
  7 11  1  0
 10  4  1  0
 11  4  1  0
A    1
 C1 
A    2
 O1 
A    3
 C2 
A    4
 C3 
A    5
 C4 
A    6
 O2 
A    7
 C5 
A    8
 C6 
A    9
 O3 
A   10
 C7 
A   11
 C8 
M  END
>  <ref_pdb>  (1617) 
Ax0310a

>  <ref_mols>  (1617) 
Ax0446a,Ax1080a,Ax0812a,Ax0719a,Ax1140a,Ax0528a,Ax0310a

>  <original SMILES>  (1617) 
COC[C@]12CO[C@](CO)(C1)C2

>  <rationale>  (1617) 
info info set:bb_densepocket;hbond:S87; hydroph_interaction:P107; 

>  <experiment>  (1617) 
bb_densepocket

>  <cluster_label>  (1617) 
3

>  <cluster_rank>  (1617) 
1274

>  <N_interactions>  (1617) 
2

>  <∆∆G>  (1617) 
-0.273579

>  <comRMSD>  (1617) 
0.98174

>  <ROCS_TanimotoCombo>  (1617) 
0.697

>  <ROCS_ShapeTanimoto>  (1617) 
0.207

>  <ROCS_ColorTanimoto>  (1617) 
0.49

$$$$
Z4657506319
     RDKit          3D

 14 14  0  0  0  0  0  0  0  0999 V2000
   28.9104   14.9596    8.2721 C   0  0  0  0  0  0  0  0  0  0  0  0
   30.2341   14.1486    9.1631 P   0  0  0  0  0  5  0  0  0  0  0  0
   29.5378   14.3075   10.7944 C   0  0  0  0  0  0  0  0  0  0  0  0
   31.5697   14.8087    9.1674 O   0  0  0  0  0  0  0  0  0  0  0  0
   30.2248   12.5548    8.2975 C   0  0  0  0  0  0  0  0  0  0  0  0
   31.5918   11.9100    8.1965 N   0  0  0  0  0  0  0  0  0  0  0  0
   32.6222   12.4740    7.5323 C   0  0  0  0  0  0  0  0  0  0  0  0
   32.6579   12.6183    5.9617 C   0  0  0  0  0  0  0  0  0  0  0  0
   32.8561   11.0428    5.6470 C   0  0  0  0  0  0  0  0  0  0  0  0
   34.0537   10.1531    5.7520 C   0  0  0  0  0  0  0  0  0  0  0  0
   34.0956    8.9712    6.0607 O   0  0  0  0  0  0  0  0  0  0  0  0
   35.1897   10.9729    5.4069 O   0  0  0  0  0  0  0  0  0  0  0  0
   31.5113   10.6419    6.3561 C   0  0  0  0  0  0  0  0  0  0  0  0
   31.4388   10.5748    7.6905 C   0  0  0  0  0  0  0  0  0  0  0  0
  1  2  1  0
  2  3  1  0
  2  4  2  0
  2  5  1  0
  5  6  1  0
  6  7  1  0
  7  8  1  0
  8  9  1  0
  9 10  1  0
 10 11  2  0
 10 12  1  0
  9 13  1  0
 13 14  1  0
 14  6  1  0
A    1
 C1 
A    2
 P1 
A    3
 C2 
A    4
 O1 
A    5
 C3 
A    6
 N1 
A    7
 C4 
A    8
 C5 
A    9
 C6 
A   10
 C7 
A   11
 O2 
A   12
 O3 
A   13
 C8 
A   14
 C9 
M  END
>  <ref_pdb>  (1618) 
Ax0310a

>  <ref_mols>  (1618) 
Ax0446a,Ax1080a,Ax0812a,Ax0719a,Ax1140a,Ax0528a,Ax0310a

>  <original SMILES>  (1618) 
CP(C)(=O)CN1CCC(C(=O)O)CC1

>  <rationale>  (1618) 
info info set:3d;hbond:S87+G127; hydroph_interaction:P107; 

>  <experiment>  (1618) 
3d

>  <cluster_label>  (1618) 
3

>  <cluster_rank>  (1618) 
1275

>  <N_interactions>  (1618) 
3

>  <∆∆G>  (1618) 
-0.300909

>  <comRMSD>  (1618) 
0.913499

>  <ROCS_TanimotoCombo>  (1618) 
0.283

>  <ROCS_ShapeTanimoto>  (1618) 
0.18

>  <ROCS_ColorTanimoto>  (1618) 
0.103

$$$$
EN300_127082
     RDKit          3D

 15 15  0  0  0  0  0  0  0  0999 V2000
   33.7745    8.8271    5.9428 C   0  0  0  0  0  0  0  0  0  0  0  0
   32.6359    8.5456    6.7375 O   0  0  0  0  0  0  0  0  0  0  0  0
   32.1084    9.7303    7.0370 C   0  0  0  0  0  0  0  0  0  0  0  0
   31.0502    9.6863    7.9181 C   0  0  0  0  0  0  0  0  0  0  0  0
   30.4458   10.8771    8.2759 C   0  0  0  0  0  0  0  0  0  0  0  0
   30.9325   12.1917    7.7183 C   0  0  0  0  0  0  0  0  0  0  0  0
   30.1526   13.7122    8.1639 S   0  0  0  0  0  6  0  0  0  0  0  0
   28.8178   13.3539    9.0919 N   0  0  0  0  0  0  0  0  0  0  0  0
   29.5433   14.1958    6.9547 O   0  0  0  0  0  0  0  0  0  0  0  0
   31.0705   14.4682    8.9932 O   0  0  0  0  0  0  0  0  0  0  0  0
   32.0024   12.2257    6.8402 C   0  0  0  0  0  0  0  0  0  0  0  0
   32.6391   10.9015    6.4687 C   0  0  0  0  0  0  0  0  0  0  0  0
   33.7876   10.9197    5.5199 N   0  0  0  0  0  4  0  0  0  0  0  0
   34.3751    9.8507    5.2962 O   0  0  0  0  0  0  0  0  0  0  0  0
   34.1472   12.0153    5.0805 O   0  0  0  0  0  1  0  0  0  0  0  0
  1  2  1  0
  2  3  1  0
  3  4  2  0
  4  5  1  0
  5  6  2  0
  6  7  1  0
  7  8  1  0
  7  9  2  0
  7 10  2  0
  6 11  1  0
 11 12  2  0
 12 13  1  0
 13 14  2  0
 13 15  1  0
 12  3  1  0
M  CHG  2  13   1  15  -1
A    1
 C1 
A    2
 O1 
A    3
 C2 
A    4
 C3 
A    5
 C4 
A    6
 C5 
A    7
 S1 
A    8
 N1 
A    9
 O2 
A   10
 O3 
A   11
 C6 
A   12
 C7 
A   13
 N2 
A   14
 O4 
A   15
 O5 
M  END
>  <ref_pdb>  (1619) 
Ax0310a

>  <ref_mols>  (1619) 
Ax0446a,Ax1080a,Ax0812a,Ax0719a,Ax1140a,Ax0528a,Ax0310a

>  <original SMILES>  (1619) 
COc1ccc(S(N)(=O)=O)cc1[N+](=O)[O-]

>  <rationale>  (1619) 
info info set:sulfonimide_whole;hbond:S87+S125; 

>  <experiment>  (1619) 
sulfonimide_whole

>  <cluster_label>  (1619) 
3

>  <cluster_rank>  (1619) 
1276

>  <N_interactions>  (1619) 
2

>  <∆∆G>  (1619) 
-1.008661

>  <comRMSD>  (1619) 
0.837119

>  <ROCS_TanimotoCombo>  (1619) 
0.329

>  <ROCS_ShapeTanimoto>  (1619) 
0.198

>  <ROCS_ColorTanimoto>  (1619) 
0.131

$$$$
Z285130310
     RDKit          3D

 15 15  0  0  0  0  0  0  0  0999 V2000
   34.9900   10.8189    4.0806 C   0  0  0  0  0  0  0  0  0  0  0  0
   34.6654   11.6823    5.1577 O   0  0  0  0  0  0  0  0  0  0  0  0
   33.5601   11.2134    5.9076 C   0  0  0  0  0  0  0  0  0  0  0  0
   32.6563   12.1622    6.5142 C   0  0  0  0  0  0  0  0  0  0  0  0
   31.4540   11.7817    7.3378 C   0  0  0  0  0  0  0  0  0  0  0  0
   30.6649   13.2701    7.8214 S   0  0  0  0  0  6  0  0  0  0  0  0
   29.8076   13.5980    6.7072 O   0  0  0  0  0  0  0  0  0  0  0  0
   31.8238   14.0236    8.2209 O   0  0  0  0  0  0  0  0  0  0  0  0
   29.7862   13.2962    9.2004 N   0  0  0  0  0  0  0  0  0  0  0  0
   30.4343   14.1230   10.1007 C   0  0  0  0  0  0  0  0  0  0  0  0
   28.4653   13.5165    9.1533 C   0  0  0  0  0  0  0  0  0  0  0  0
   31.1202   10.4464    7.5960 C   0  0  0  0  0  0  0  0  0  0  0  0
   31.9964    9.3110    6.9998 C   0  0  0  0  0  0  0  0  0  0  0  0
   33.2156    9.7722    6.1439 C   0  0  0  0  0  0  0  0  0  0  0  0
   34.3374    8.7769    5.3517 Cl  0  0  0  0  0  0  0  0  0  0  0  0
  1  2  1  0
  2  3  1  0
  3  4  2  0
  4  5  1  0
  5  6  1  0
  6  7  2  0
  6  8  2  0
  6  9  1  0
  9 10  1  0
  9 11  1  0
  5 12  2  0
 12 13  1  0
 13 14  2  0
 14 15  1  0
 14  3  1  0
A    1
 C1 
A    2
 O1 
A    3
 C2 
A    4
 C3 
A    5
 C4 
A    6
 S1 
A    7
 O2 
A    8
 O3 
A    9
 N1 
A   10
 C5 
A   11
 C6 
A   12
 C7 
A   13
 C8 
A   14
 C9 
A   15
CL1 
M  END
>  <ref_pdb>  (1620) 
Ax0310a

>  <ref_mols>  (1620) 
Ax0446a,Ax1080a,Ax0812a,Ax0719a,Ax1140a,Ax0528a,Ax0310a

>  <original SMILES>  (1620) 
COc1cc(S(=O)(=O)N(C)C)ccc1Cl

>  <rationale>  (1620) 
info info set:3d;hbond:S87; 

>  <experiment>  (1620) 
3d

>  <cluster_label>  (1620) 
3

>  <cluster_rank>  (1620) 
1277

>  <N_interactions>  (1620) 
1

>  <∆∆G>  (1620) 
-2.977248

>  <comRMSD>  (1620) 
0.938666

>  <ROCS_TanimotoCombo>  (1620) 
0.297

>  <ROCS_ShapeTanimoto>  (1620) 
0.187

>  <ROCS_ColorTanimoto>  (1620) 
0.11

$$$$
EN300_175990
     RDKit          3D

 14 15  0  0  0  0  0  0  0  0999 V2000
   28.7182   12.5564    7.7368 C   0  0  0  0  0  0  0  0  0  0  0  0
   29.9685   12.0685    7.2458 O   0  0  0  0  0  0  0  0  0  0  0  0
   30.5112   10.9755    7.8709 C   0  0  0  0  0  0  0  0  0  0  0  0
   30.1438   10.4782    8.9031 O   0  0  0  0  0  0  0  0  0  0  0  0
   31.6615   10.4384    7.0752 C   0  0  0  0  0  0  0  0  0  0  0  0
   32.4169   11.4765    6.3129 C   0  0  0  0  0  0  0  0  0  0  0  0
   33.6082   11.1031    5.4602 C   0  0  0  0  0  0  0  0  0  0  0  0
   33.8959    9.5898    5.5038 C   0  0  0  0  0  0  0  0  0  0  0  0
   35.0076    9.0979    4.7595 N   0  0  0  0  0  0  0  0  0  0  0  0
   35.2243    7.7681    4.1680 C   0  0  0  0  0  0  0  0  0  0  0  0
   36.5130    7.4689    3.4613 C   0  0  0  0  0  0  0  0  0  0  0  0
   36.2424    6.7275    4.7275 C   0  0  0  0  0  0  0  0  0  0  0  0
   33.1078    8.7549    6.2507 N   0  0  0  0  0  0  0  0  0  0  0  0
   32.0073    9.1441    7.0295 N   0  0  0  0  0  0  0  0  0  0  0  0
  1  2  1  0
  2  3  1  0
  3  4  2  0
  3  5  1  0
  5  6  2  0
  6  7  1  0
  7  8  2  0
  8  9  1  0
  9 10  1  0
 10 11  1  0
 11 12  1  0
  8 13  1  0
 13 14  2  0
 14  5  1  0
 12 10  1  0
A    1
 C1 
A    2
 O1 
A    3
 C2 
A    4
 O2 
A    5
 C3 
A    6
 C4 
A    7
 C5 
A    8
 C6 
A    9
 N1 
A   10
 C7 
A   11
 C8 
A   12
 C9 
A   13
 N2 
A   14
 N3 
M  END
>  <ref_pdb>  (1621) 
Ax0310a

>  <ref_mols>  (1621) 
Ax0446a,Ax1080a,Ax0812a,Ax0719a,Ax1140a,Ax0528a,Ax0310a

>  <original SMILES>  (1621) 
COC(=O)c1ccc(NC2CC2)nn1

>  <rationale>  (1621) 
info info set:bb_densepocket2;hydroph_interaction:P107; 

>  <experiment>  (1621) 
bb_densepocket2

>  <cluster_label>  (1621) 
3

>  <cluster_rank>  (1621) 
1278

>  <N_interactions>  (1621) 
1

>  <∆∆G>  (1621) 
-2.088728

>  <comRMSD>  (1621) 
0.881337

>  <ROCS_TanimotoCombo>  (1621) 
0.607

>  <ROCS_ShapeTanimoto>  (1621) 
0.216

>  <ROCS_ColorTanimoto>  (1621) 
0.391

$$$$
Z4879052225
     RDKit          3D

 12 12  0  0  0  0  0  0  0  0999 V2000
   29.0863   13.3068    8.6585 C   0  0  0  0  0  0  0  0  0  0  0  0
   30.0596   12.6339    7.8190 N   0  0  0  0  0  0  0  0  0  0  0  0
   30.5009   11.3394    8.0542 C   0  0  0  0  0  0  0  0  0  0  0  0
   30.1067   10.3707    9.0284 O   0  0  0  0  0  0  0  0  0  0  0  0
   31.5441   10.7198    7.2395 C   0  0  0  0  0  0  0  0  0  0  0  0
   32.4205   11.6069    6.3748 C   0  0  0  0  0  0  0  0  0  0  0  0
   33.4846   10.8708    5.5473 C   0  0  0  0  0  0  0  0  0  0  0  0
   34.5847   11.6511    4.4977 Cl  0  0  0  0  0  0  0  0  0  0  0  0
   33.4303    9.3460    5.7853 C   0  0  0  0  0  0  0  0  0  0  0  0
   32.5823    8.6906    6.6043 N   0  0  0  0  0  0  0  0  0  0  0  0
   31.6883    9.3602    7.2912 C   0  0  0  0  0  0  0  0  0  0  0  0
   30.8750    8.4985    8.1098 O   0  0  0  0  0  0  0  0  0  0  0  0
  1  2  1  0
  2  3  1  0
  3  4  2  0
  3  5  1  0
  5  6  2  0
  6  7  1  0
  7  8  1  0
  7  9  2  0
  9 10  1  0
 10 11  2  0
 11 12  1  0
 11  5  1  0
A    1
 C1 
A    2
 N1 
A    3
 C2 
A    4
 O1 
A    5
 C3 
A    6
 C4 
A    7
 C5 
A    8
CL1 
A    9
 C6 
A   10
 N2 
A   11
 C7 
A   12
 O2 
M  END
>  <ref_pdb>  (1622) 
Ax0310a

>  <ref_mols>  (1622) 
Ax0446a,Ax1080a,Ax0812a,Ax0719a,Ax1140a,Ax0528a,Ax0310a

>  <original SMILES>  (1622) 
CNC(=O)c1cc(Cl)cnc1O

>  <rationale>  (1622) 
info info set:screening_pocket;

>  <experiment>  (1622) 
screening_pocket

>  <cluster_label>  (1622) 
3

>  <cluster_rank>  (1622) 
1279

>  <N_interactions>  (1622) 
0

>  <∆∆G>  (1622) 
-2.644064

>  <comRMSD>  (1622) 
0.514106

>  <ROCS_TanimotoCombo>  (1622) 
0.624

>  <ROCS_ShapeTanimoto>  (1622) 
0.23

>  <ROCS_ColorTanimoto>  (1622) 
0.394

$$$$
Z757505124
     RDKit          3D

 23 25  0  0  0  0  0  0  0  0999 V2000
   30.9507    8.3229    8.1073 C   0  0  0  0  0  0  0  0  0  0  0  0
   31.7383    9.3037    7.2776 C   0  0  0  0  0  0  0  0  0  0  0  0
   32.6975    8.9330    6.4164 N   0  0  0  0  0  0  0  0  0  0  0  0
   33.1697   10.0934    5.8760 N   0  0  0  0  0  0  0  0  0  0  0  0
   34.2207   10.0698    4.9043 C   0  0  0  0  0  0  0  0  0  0  0  0
   34.3148    9.1432    3.8621 C   0  0  0  0  0  0  0  0  0  0  0  0
   35.3362    9.1626    2.9524 C   0  0  0  0  0  0  0  0  0  0  0  0
   36.3132   10.1256    3.0619 C   0  0  0  0  0  0  0  0  0  0  0  0
   37.3093   10.1401    2.1747 F   0  0  0  0  0  0  0  0  0  0  0  0
   36.2679   11.0742    4.0853 C   0  0  0  0  0  0  0  0  0  0  0  0
   35.2201   11.0417    5.0008 C   0  0  0  0  0  0  0  0  0  0  0  0
   32.4514   11.1915    6.4513 C   0  0  0  0  0  0  0  0  0  0  0  0
   32.7933   12.5475    6.0260 C   0  0  0  0  0  0  0  0  0  0  0  0
   31.5490   10.6656    7.3276 C   0  0  0  0  0  0  0  0  0  0  0  0
   30.5792   11.2441    8.1755 C   0  0  0  0  0  0  0  0  0  0  0  0
   30.1438   10.4825    8.9970 O   0  0  0  0  0  0  0  0  0  0  0  0
   30.1743   12.5526    8.0281 N   0  0  0  0  0  0  0  0  0  0  0  0
   28.8702   12.9658    8.5442 C   0  0  0  0  0  0  0  0  0  0  0  0
   28.9076   14.2005    9.4039 C   0  0  0  0  0  0  0  0  0  0  0  0
   29.5414   15.1570    8.5003 C   0  0  0  0  0  0  0  0  0  0  0  0
   28.6813   15.4632    7.3945 O   0  0  0  0  0  0  0  0  0  0  0  0
   28.4265   14.3098    6.5759 C   0  0  0  0  0  0  0  0  0  0  0  0
   27.9000   13.1879    7.4157 C   0  0  0  0  0  0  0  0  0  0  0  0
  1  2  1  0
  2  3  2  0
  3  4  1  0
  4  5  1  0
  5  6  2  0
  6  7  1  0
  7  8  2  0
  8  9  1  0
  8 10  1  0
 10 11  2  0
  4 12  1  0
 12 13  1  0
 12 14  2  0
 14 15  1  0
 15 16  2  0
 15 17  1  0
 17 18  1  0
 18 19  1  0
 19 20  1  0
 20 21  1  0
 21 22  1  0
 22 23  1  0
 14  2  1  0
 23 18  1  0
 11  5  1  0
A    1
 C1 
A    2
 C2 
A    3
 N1 
A    4
 N2 
A    5
 C3 
A    6
 C4 
A    7
 C5 
A    8
 C6 
A    9
 F1 
A   10
 C7 
A   11
 C8 
A   12
 C9 
A   13
 C10
A   14
 C11
A   15
 C12
A   16
 O1 
A   17
 N3 
A   18
 C13
A   19
 C14
A   20
 C15
A   21
 O2 
A   22
 C16
A   23
 C17
M  END
>  <ref_pdb>  (1623) 
Ax0310a

>  <ref_mols>  (1623) 
Ax0446a,Ax1080a,Ax0812a,Ax0719a,Ax1140a,Ax0528a,Ax0310a

>  <original SMILES>  (1623) 
Cc1nn(-c2ccc(F)cc2)c(C)c1C(=O)NC1CCOCC1

>  <rationale>  (1623) 
info info set:screening_pocket;

>  <experiment>  (1623) 
screening_pocket

>  <cluster_label>  (1623) 
3

>  <cluster_rank>  (1623) 
1280

>  <N_interactions>  (1623) 
0

>  <∆∆G>  (1623) 
-5.332299

>  <comRMSD>  (1623) 
0.555591

>  <ROCS_TanimotoCombo>  (1623) 
0.624

>  <ROCS_ShapeTanimoto>  (1623) 
0.28

>  <ROCS_ColorTanimoto>  (1623) 
0.344

$$$$
EN300_255293
     RDKit          3D

 17 17  0  0  0  0  0  0  0  0999 V2000
   32.8431   12.6186    3.6666 N   0  0  0  0  0  0  0  0  0  0  0  0
   33.8117   12.0536    4.9074 S   0  0  0  0  0  6  0  0  0  0  0  0
   34.2471   13.1905    5.6804 O   0  0  0  0  0  0  0  0  0  0  0  0
   34.7583   11.1252    4.3292 O   0  0  0  0  0  0  0  0  0  0  0  0
   32.8372   11.0935    5.9683 C   0  0  0  0  0  0  0  0  0  0  0  0
   32.9811    9.6199    6.0832 C   0  0  0  0  0  0  0  0  0  0  0  0
   32.0823    8.8391    7.0637 C   0  0  0  0  0  0  0  0  0  0  0  0
   31.0854    9.5767    7.8753 C   0  0  0  0  0  0  0  0  0  0  0  0
   30.3359    8.6315    8.7793 C   0  0  0  0  0  0  0  0  0  0  0  0
   31.1729    7.7890    9.3527 F   0  0  0  0  0  0  0  0  0  0  0  0
   29.8135    9.2227    9.8050 F   0  0  0  0  0  0  0  0  0  0  0  0
   29.3169    7.9226    8.2898 F   0  0  0  0  0  0  0  0  0  0  0  0
   30.9524   10.9379    7.7559 C   0  0  0  0  0  0  0  0  0  0  0  0
   31.8049   11.5743    6.8469 C   0  0  0  0  0  0  0  0  0  0  0  0
   31.5445   12.9890    6.8461 N   0  0  0  0  0  4  0  0  0  0  0  0
   30.6244   13.3468    6.1055 O   0  0  0  0  0  0  0  0  0  0  0  0
   31.8959   13.5870    7.8713 O   0  0  0  0  0  1  0  0  0  0  0  0
  1  2  1  0
  2  3  2  0
  2  4  2  0
  2  5  1  0
  5  6  2  0
  6  7  1  0
  7  8  2  0
  8  9  1  0
  9 10  1  0
  9 11  1  0
  9 12  1  0
  8 13  1  0
 13 14  2  0
 14 15  1  0
 15 16  2  0
 15 17  1  0
 14  5  1  0
M  CHG  2  15   1  17  -1
A    1
 N1 
A    2
 S1 
A    3
 O1 
A    4
 O2 
A    5
 C1 
A    6
 C2 
A    7
 C3 
A    8
 C4 
A    9
 C5 
A   10
 F1 
A   11
 F2 
A   12
 F3 
A   13
 C6 
A   14
 C7 
A   15
 N2 
A   16
 O3 
A   17
 O4 
M  END
>  <ref_pdb>  (1624) 
Ax0310a

>  <ref_mols>  (1624) 
Ax0446a,Ax1080a,Ax0812a,Ax0719a,Ax1140a,Ax0528a,Ax0310a

>  <original SMILES>  (1624) 
NS(=O)(=O)c1ccc(C(F)(F)F)cc1[N+](=O)[O-]

>  <rationale>  (1624) 
info info set:sulfonimide_whole;

>  <experiment>  (1624) 
sulfonimide_whole

>  <cluster_label>  (1624) 
3

>  <cluster_rank>  (1624) 
1281

>  <N_interactions>  (1624) 
0

>  <∆∆G>  (1624) 
-0.086584

>  <comRMSD>  (1624) 
0.899501

>  <ROCS_TanimotoCombo>  (1624) 
0.33

>  <ROCS_ShapeTanimoto>  (1624) 
0.209

>  <ROCS_ColorTanimoto>  (1624) 
0.122

$$$$
Z1206890588
     RDKit          3D

 12 12  0  0  0  0  0  0  0  0999 V2000
   33.5634   13.7114    5.6669 C   0  0  0  0  0  0  0  0  0  0  0  0
   32.6612   12.8349    4.8092 C   0  0  0  0  0  0  0  0  0  0  0  0
   31.6771   13.6956    4.0780 C   0  0  0  0  0  0  0  0  0  0  0  0
   32.0495   11.7932    5.6571 N   0  0  0  0  0  0  0  0  0  0  0  0
   30.9634   12.0796    6.4347 C   0  0  0  0  0  0  0  0  0  0  0  0
   30.2200   13.0120    6.1590 O   0  0  0  0  0  0  0  0  0  0  0  0
   30.5789   11.2891    7.7151 C   0  0  0  0  0  0  0  0  0  0  0  0
   31.3226   10.1652    7.9143 N   0  0  0  0  0  0  0  0  0  0  0  0
   32.2426    9.9682    6.7990 C   0  0  0  0  0  0  0  0  0  0  0  0
   32.9256   11.1308    6.4069 C   0  0  0  0  0  0  0  0  0  0  0  0
   33.1628   12.0310    7.4385 C   0  0  0  0  0  0  0  0  0  0  0  0
   34.0503   10.6011    5.5354 C   0  0  0  0  0  0  0  0  0  0  0  0
  1  2  1  0
  2  3  1  0
  2  4  1  0
  4  5  1  0
  5  6  2  0
  5  7  1  0
  7  8  1  0
  8  9  1  0
  9 10  1  0
 10 11  1  0
 10 12  1  0
 10  4  1  0
A    1
 C1 
A    2
 C2 
A    3
 C3 
A    4
 N1 
A    5
 C4 
A    6
 O1 
A    7
 C5 
A    8
 N2 
A    9
 C6 
A   10
 C7 
A   11
 C8 
A   12
 C9 
M  END
>  <ref_pdb>  (1625) 
Ax0310a

>  <ref_mols>  (1625) 
Ax0446a,Ax1080a,Ax0812a,Ax0719a,Ax1140a,Ax0528a,Ax0310a

>  <original SMILES>  (1625) 
CC(C)N1C(=O)CNCC1(C)C

>  <rationale>  (1625) 
info info set:3d;hydroph_interaction:P107; 

>  <experiment>  (1625) 
3d

>  <cluster_label>  (1625) 
3

>  <cluster_rank>  (1625) 
1282

>  <N_interactions>  (1625) 
1

>  <∆∆G>  (1625) 
-2.573606

>  <comRMSD>  (1625) 
0.880756

>  <ROCS_TanimotoCombo>  (1625) 
0.283

>  <ROCS_ShapeTanimoto>  (1625) 
0.172

>  <ROCS_ColorTanimoto>  (1625) 
0.111

$$$$
EN300_60436
     RDKit          3D

 16 17  0  0  0  0  0  0  0  0999 V2000
   29.2985   14.5111    8.2983 C   0  0  0  0  0  0  0  0  0  0  0  0
   30.5968   13.9478    8.8574 C   0  0  0  0  0  0  0  0  0  0  0  0
   31.2553   13.0826    7.9053 O   0  0  0  0  0  0  0  0  0  0  0  0
   30.8520   11.7710    7.8871 C   0  0  0  0  0  0  0  0  0  0  0  0
   29.8615   11.3924    8.4698 O   0  0  0  0  0  0  0  0  0  0  0  0
   31.7353   10.8492    7.0776 C   0  0  0  0  0  0  0  0  0  0  0  0
   31.9754    9.3615    7.3456 C   0  0  0  0  0  0  0  0  0  0  0  0
   31.1741    9.0849    8.6055 C   0  0  0  0  0  0  0  0  0  0  0  0
   29.6008    8.1514    8.4890 Br  0  0  0  0  0  0  0  0  0  0  0  0
   32.7707    8.6929    6.5418 O   0  0  0  0  0  0  0  0  0  0  0  0
   33.1409    9.6961    5.6659 C   0  0  0  0  0  0  0  0  0  0  0  0
   34.0013    9.4864    4.6094 C   0  0  0  0  0  0  0  0  0  0  0  0
   34.3818   10.6335    3.6634 C   0  0  0  0  0  0  0  0  0  0  0  0
   33.7631   11.8446    4.0182 C   0  0  0  0  0  0  0  0  0  0  0  0
   32.8991   12.0368    5.0884 C   0  0  0  0  0  0  0  0  0  0  0  0
   32.5669   10.9770    5.9324 C   0  0  0  0  0  0  0  0  0  0  0  0
  1  2  1  0
  2  3  1  0
  3  4  1  0
  4  5  2  0
  4  6  1  0
  6  7  2  0
  7  8  1  0
  8  9  1  0
  7 10  1  0
 10 11  1  0
 11 12  2  0
 12 13  1  0
 13 14  2  0
 14 15  1  0
 15 16  2  0
 16  6  1  0
 16 11  1  0
A    1
 C1 
A    2
 C2 
A    3
 O1 
A    4
 C3 
A    5
 O2 
A    6
 C4 
A    7
 C5 
A    8
 C6 
A    9
BR1 
A   10
 O3 
A   11
 C7 
A   12
 C8 
A   13
 C9 
A   14
 C10
A   15
 C11
A   16
 C12
M  END
>  <ref_pdb>  (1626) 
Ax0310a

>  <ref_mols>  (1626) 
Ax0446a,Ax1080a,Ax0812a,Ax0719a,Ax1140a,Ax0528a,Ax0310a

>  <original SMILES>  (1626) 
CCOC(=O)c1c(CBr)oc2ccccc12

>  <rationale>  (1626) 
info info set:bb_densepocket2;hydroph_interaction:P107; 

>  <experiment>  (1626) 
bb_densepocket2

>  <cluster_label>  (1626) 
3

>  <cluster_rank>  (1626) 
1283

>  <N_interactions>  (1626) 
1

>  <∆∆G>  (1626) 
-0.486029

>  <comRMSD>  (1626) 
0.768098

>  <ROCS_TanimotoCombo>  (1626) 
0.607

>  <ROCS_ShapeTanimoto>  (1626) 
0.238

>  <ROCS_ColorTanimoto>  (1626) 
0.369

$$$$
Z2379555130
     RDKit          3D

 23 25  0  0  0  0  0  0  0  0999 V2000
   28.5113   15.8350    8.4177 C   0  0  0  0  0  0  0  0  0  0  0  0
   29.6853   15.2678    9.0016 N   0  0  0  0  0  0  0  0  0  0  0  0
   30.5999   15.6385    9.6031 N   0  0  0  0  0  0  0  0  0  0  0  0
   31.5121   15.3794   10.0818 N   0  0  0  0  0  0  0  0  0  0  0  0
   31.3151   14.0235    9.7063 N   0  0  0  0  0  0  0  0  0  0  0  0
   30.1137   13.9611    9.0069 C   0  0  0  0  0  0  0  0  0  0  0  0
   29.2728   12.6546    8.2814 S   0  0  0  0  0  0  0  0  0  0  0  0
   30.5897   11.4561    8.2489 C   0  0  0  0  0  0  0  0  0  0  0  0
   30.0435   10.0942    8.6744 C   0  0  0  0  0  0  0  0  0  0  0  0
   28.5745    9.8718    8.6824 C   0  0  0  0  0  0  0  0  0  0  0  0
   30.5419    8.8637    9.4369 C   0  0  0  0  0  0  0  0  0  0  0  0
   30.7179    9.3081    7.6812 C   0  0  0  0  0  0  0  0  0  0  0  0
   31.4670   10.0152    6.7028 N   0  0  0  0  0  0  0  0  0  0  0  0
   32.5788    9.4154    6.3894 C   0  0  0  0  0  0  0  0  0  0  0  0
   32.8474    8.3020    6.6632 O   0  0  0  0  0  0  0  0  0  0  0  0
   33.3607   10.3327    5.7801 C   0  0  0  0  0  0  0  0  0  0  0  0
   34.7070    9.8923    5.2008 C   0  0  0  0  0  0  0  0  0  0  0  0
   35.4413   11.1295    4.5911 C   0  0  0  0  0  0  0  0  0  0  0  0
   34.6533   12.4591    4.7084 C   0  0  0  0  0  0  0  0  0  0  0  0
   33.4119   12.6450    5.2730 C   0  0  0  0  0  0  0  0  0  0  0  0
   32.8134   11.5601    5.7849 C   0  0  0  0  0  0  0  0  0  0  0  0
   31.5265   11.3751    6.4258 C   0  0  0  0  0  0  0  0  0  0  0  0
   30.7259   12.2757    6.5888 O   0  0  0  0  0  0  0  0  0  0  0  0
  1  2  1  0
  2  3  1  0
  3  4  2  0
  4  5  1  0
  5  6  2  0
  6  7  1  0
  7  8  1  0
  8  9  1  0
  9 10  1  0
  9 11  1  0
  9 12  1  0
 12 13  1  0
 13 14  1  0
 14 15  2  0
 14 16  1  0
 16 17  2  0
 17 18  1  0
 18 19  2  0
 19 20  1  0
 20 21  2  0
 21 22  1  0
 22 23  2  0
  6  2  1  0
 22 13  1  0
 21 16  1  0
A    1
 C1 
A    2
 N1 
A    3
 N2 
A    4
 N3 
A    5
 N4 
A    6
 C2 
A    7
 S1 
A    8
 C3 
A    9
 C4 
A   10
 C5 
A   11
 C6 
A   12
 C7 
A   13
 N5 
A   14
 C8 
A   15
 O1 
A   16
 C9 
A   17
 C10
A   18
 C11
A   19
 C12
A   20
 C13
A   21
 C14
A   22
 C15
A   23
 O2 
M  END
>  <ref_pdb>  (1627) 
Ax0310a

>  <ref_mols>  (1627) 
Ax0446a,Ax1080a,Ax0812a,Ax0719a,Ax1140a,Ax0528a,Ax0310a

>  <original SMILES>  (1627) 
Cn1nnnc1SCC(C)(C)CN1C(=O)c2ccccc2C1=O

>  <rationale>  (1627) 
info info set:screening_whole;hbond:S87; hydroph_interaction:P107+V124; 

>  <experiment>  (1627) 
screening_whole

>  <cluster_label>  (1627) 
3

>  <cluster_rank>  (1627) 
1284

>  <N_interactions>  (1627) 
3

>  <∆∆G>  (1627) 
-1.855674

>  <comRMSD>  (1627) 
0.977712

>  <ROCS_TanimotoCombo>  (1627) 
0.455

>  <ROCS_ShapeTanimoto>  (1627) 
0.254

>  <ROCS_ColorTanimoto>  (1627) 
0.201

$$$$
Z2299684703
     RDKit          3D

 13 14  0  0  0  0  0  0  0  0999 V2000
   29.4423   13.5694    6.6911 C   0  0  0  0  0  0  0  0  0  0  0  0
   30.2095   13.0463    5.6060 O   0  0  0  0  0  0  0  0  0  0  0  0
   31.5737   12.9783    5.7147 C   0  0  0  0  0  0  0  0  0  0  0  0
   32.2088   11.8489    6.4618 C   0  0  0  0  0  0  0  0  0  0  0  0
   33.3468   11.3996    5.8455 C   0  0  0  0  0  0  0  0  0  0  0  0
   33.6752    9.9936    5.5457 C   0  0  0  0  0  0  0  0  0  0  0  0
   34.9735    9.6554    4.8344 C   0  0  0  0  0  0  0  0  0  0  0  0
   35.9440   10.7687    4.4313 C   0  0  0  0  0  0  0  0  0  0  0  0
   35.4795   12.0388    4.7983 C   0  0  0  0  0  0  0  0  0  0  0  0
   34.2880   12.3665    5.4500 C   0  0  0  0  0  0  0  0  0  0  0  0
   31.1477   10.8261    6.7945 C   0  0  0  0  0  0  0  0  0  0  0  0
   31.6260   10.7126    8.1140 N   0  0  0  0  0  0  0  0  0  0  0  0
   32.1086   12.1049    7.9712 C   0  0  0  0  0  0  0  0  0  0  0  0
  1  2  1  0
  2  3  1  0
  3  4  1  0
  4  5  1  0
  5  6  2  0
  6  7  1  0
  7  8  2  0
  8  9  1  0
  9 10  2  0
  4 11  1  0
 11 12  1  0
 12 13  1  0
 13  4  1  0
 10  5  1  0
A    1
 C1 
A    2
 O1 
A    3
 C2 
A    4
 C3 
A    5
 C4 
A    6
 C5 
A    7
 C6 
A    8
 C7 
A    9
 C8 
A   10
 C9 
A   11
 C10
A   12
 N1 
A   13
 C11
M  END
>  <ref_pdb>  (1628) 
Ax0310a

>  <ref_mols>  (1628) 
Ax0446a,Ax1080a,Ax0812a,Ax0719a,Ax1140a,Ax0528a,Ax0310a

>  <original SMILES>  (1628) 
COCC1(c2ccccc2)CNC1

>  <rationale>  (1628) 
info info set:3d;hbond:S125; 

>  <experiment>  (1628) 
3d

>  <cluster_label>  (1628) 
3

>  <cluster_rank>  (1628) 
1285

>  <N_interactions>  (1628) 
1

>  <∆∆G>  (1628) 
-0.52761

>  <comRMSD>  (1628) 
0.816706

>  <ROCS_TanimotoCombo>  (1628) 
0.282

>  <ROCS_ShapeTanimoto>  (1628) 
0.166

>  <ROCS_ColorTanimoto>  (1628) 
0.115

$$$$
EN300_1110276
     RDKit          3D

 13 13  0  0  0  0  0  0  0  0999 V2000
   28.7527    8.9273    8.2640 C   0  0  0  0  0  0  0  0  0  0  0  0
   30.1894    9.1323    8.0791 C   0  0  0  0  0  0  0  0  0  0  0  0
   31.0294    7.9582    8.2378 C   0  0  0  0  0  0  0  0  0  0  0  0
   30.0748    9.6143    9.3506 C   0  0  0  0  0  0  0  0  0  0  0  0
   30.2952   10.9978    9.0835 O   0  0  0  0  0  0  0  0  0  0  0  0
   30.8774   10.4251    7.5565 C   0  0  0  0  0  0  0  0  0  0  0  0
   31.9036   10.3583    6.6923 N   0  0  0  0  0  0  0  0  0  0  0  0
   32.4175   11.4716    5.9928 C   0  0  0  0  0  0  0  0  0  0  0  0
   33.5237   11.0720    5.1569 C   0  0  0  0  0  0  0  0  0  0  0  0
   34.4840   12.0019    4.1265 Cl  0  0  0  0  0  0  0  0  0  0  0  0
   33.5811    9.5714    5.4712 C   0  0  0  0  0  0  0  0  0  0  0  0
   34.4580    8.7122    4.9419 N   0  0  0  0  0  0  0  0  0  0  0  0
   32.6030    9.2230    6.3751 N   0  0  0  0  0  0  0  0  0  0  0  0
  1  2  1  0
  2  3  1  0
  2  4  1  0
  4  5  1  0
  2  6  1  0
  6  7  1  0
  7  8  1  0
  8  9  2  0
  9 10  1  0
  9 11  1  0
 11 12  1  0
 11 13  2  0
 13  7  1  0
A    1
 C1 
A    2
 C2 
A    3
 C3 
A    4
 C4 
A    5
 O1 
A    6
 C5 
A    7
 N1 
A    8
 C6 
A    9
 C7 
A   10
CL1 
A   11
 C8 
A   12
 N2 
A   13
 N3 
M  END
>  <ref_pdb>  (1629) 
Ax0310a

>  <ref_mols>  (1629) 
Ax0446a,Ax1080a,Ax0812a,Ax0719a,Ax1140a,Ax0528a,Ax0310a

>  <original SMILES>  (1629) 
CC(C)(CO)Cn1cc(Cl)c(N)n1

>  <rationale>  (1629) 
info info set:bb_densepocket2;hbond:S105; 

>  <experiment>  (1629) 
bb_densepocket2

>  <cluster_label>  (1629) 
3

>  <cluster_rank>  (1629) 
1286

>  <N_interactions>  (1629) 
1

>  <∆∆G>  (1629) 
-1.100474

>  <comRMSD>  (1629) 
0.920428

>  <ROCS_TanimotoCombo>  (1629) 
0.61

>  <ROCS_ShapeTanimoto>  (1629) 
0.193

>  <ROCS_ColorTanimoto>  (1629) 
0.417

$$$$
EN300_45198807
     RDKit          3D

 15 14  0  0  0  0  0  0  0  0999 V2000
   32.0044   10.0160    7.1373 C   0  0  0  0  0  0  0  0  0  0  0  0
   31.7328   11.4522    7.5654 C   0  0  0  0  0  0  0  0  0  0  0  0
   32.8933   12.1761    8.1461 O   0  0  0  0  0  0  0  0  0  0  0  0
   33.6183   12.8847    7.2174 C   0  0  0  0  0  0  0  0  0  0  0  0
   33.3234   12.8766    6.0341 O   0  0  0  0  0  0  0  0  0  0  0  0
   34.8463   13.7062    7.7683 C   0  0  0  0  0  0  0  0  0  0  0  0
   34.8793   13.4942    9.2979 C   0  0  0  0  0  0  0  0  0  0  0  0
   36.3626   13.2288    9.8189 C   0  0  0  0  0  0  0  0  0  0  0  0
   36.5094   12.1507   10.9801 C   0  0  0  0  0  0  0  0  0  0  0  0
   37.9476   11.6044   11.0297 C   0  0  0  0  0  0  0  0  0  0  0  0
   39.1041   12.4963   10.7284 C   0  0  0  0  0  0  0  0  0  0  0  0
   39.9525   13.0584   12.2066 S   0  0  0  0  0  6  0  0  0  0  0  0
   41.1386   11.9122   12.4213 N   0  0  0  0  0  0  0  0  0  0  0  0
   40.7062   14.2406   11.8807 O   0  0  0  0  0  0  0  0  0  0  0  0
   39.1157   12.9280   13.3737 O   0  0  0  0  0  0  0  0  0  0  0  0
  1  2  1  0
  2  3  1  0
  3  4  1  0
  4  5  2  0
  4  6  1  0
  6  7  1  0
  7  8  1  0
  8  9  1  0
  9 10  1  0
 10 11  1  0
 11 12  1  0
 12 13  1  0
 12 14  2  0
 12 15  2  0
A    1
 C1 
A    2
 C2 
A    3
 O1 
A    4
 C3 
A    5
 O2 
A    6
 C4 
A    7
 C5 
A    8
 C6 
A    9
 C7 
A   10
 C8 
A   11
 C9 
A   12
 S1 
A   13
 N1 
A   14
 O3 
A   15
 O4 
M  END
>  <ref_pdb>  (1630) 
Ax0310a

>  <ref_mols>  (1630) 
Ax0446a,Ax1080a,Ax0812a,Ax0719a,Ax1140a,Ax0528a,Ax0310a

>  <original SMILES>  (1630) 
CCOC(=O)CCCCCCS(N)(=O)=O

>  <rationale>  (1630) 
info info set:sulfonimide_joint;

>  <experiment>  (1630) 
sulfonimide_joint

>  <cluster_label>  (1630) 
3

>  <cluster_rank>  (1630) 
1287

>  <N_interactions>  (1630) 
0

>  <∆∆G>  (1630) 
-4.131378

>  <comRMSD>  (1630) 
0.929609

>  <ROCS_TanimotoCombo>  (1630) 
0.306

>  <ROCS_ShapeTanimoto>  (1630) 
0.215

>  <ROCS_ColorTanimoto>  (1630) 
0.091

$$$$
EN300_7438472
     RDKit          3D

 23 25  0  0  0  0  0  0  0  0999 V2000
   28.9926   17.0522    8.7059 C   0  0  0  0  0  0  0  0  0  0  0  0
   28.1184   16.1933    8.6366 N   0  0  0  0  0  0  0  0  0  0  0  0
   27.1075   16.2737    9.5939 C   0  0  0  0  0  0  0  0  0  0  0  0
   28.4911   15.0509    8.4304 C   0  0  0  0  0  0  0  0  0  0  0  0
   27.8147   14.1816    7.4021 C   0  0  0  0  0  0  0  0  0  0  0  0
   28.2814   12.7617    7.2226 C   0  0  0  0  0  0  0  0  0  0  0  0
   29.4539   12.5977    8.2693 C   0  0  0  0  0  0  0  0  0  0  0  0
   30.0931   11.4594    8.4433 N   0  0  0  0  0  0  0  0  0  0  0  0
   31.0592   10.9826    7.7232 C   0  0  0  0  0  0  0  0  0  0  0  0
   31.2790    9.6898    7.6829 C   0  0  0  0  0  0  0  0  0  0  0  0
   30.2726    8.6693    8.6122 Cl  0  0  0  0  0  0  0  0  0  0  0  0
   32.2780    9.1813    6.9577 C   0  0  0  0  0  0  0  0  0  0  0  0
   32.4722    8.0171    7.0064 O   0  0  0  0  0  0  0  0  0  0  0  0
   33.2075   10.0749    6.1414 C   0  0  0  0  0  0  0  0  0  0  0  0
   34.2574    9.6169    5.3714 C   0  0  0  0  0  0  0  0  0  0  0  0
   35.0629   10.5177    4.6776 C   0  0  0  0  0  0  0  0  0  0  0  0
   34.8199   11.8931    4.7496 C   0  0  0  0  0  0  0  0  0  0  0  0
   33.7660   12.3774    5.5125 C   0  0  0  0  0  0  0  0  0  0  0  0
   32.9774   11.4722    6.1928 C   0  0  0  0  0  0  0  0  0  0  0  0
   31.8760   11.9750    6.9889 C   0  0  0  0  0  0  0  0  0  0  0  0
   31.6188   13.1772    7.0594 O   0  0  0  0  0  0  0  0  0  0  0  0
   29.9646   13.5222    9.1225 C   0  0  0  0  0  0  0  0  0  0  0  0
   29.5007   14.7079    9.2054 C   0  0  0  0  0  0  0  0  0  0  0  0
  1  2  1  0
  2  3  1  0
  2  4  1  0
  4  5  2  0
  5  6  1  0
  6  7  2  0
  7  8  1  0
  8  9  1  0
  9 10  2  0
 10 11  1  0
 10 12  1  0
 12 13  2  0
 12 14  1  0
 14 15  2  0
 15 16  1  0
 16 17  2  0
 17 18  1  0
 18 19  2  0
 19 20  1  0
 20 21  2  0
  7 22  1  0
 22 23  2  0
 23  4  1  0
 20  9  1  0
 19 14  1  0
A    1
 C1 
A    2
 N1 
A    3
 C2 
A    4
 C3 
A    5
 C4 
A    6
 C5 
A    7
 C6 
A    8
 N2 
A    9
 C7 
A   10
 C8 
A   11
CL1 
A   12
 C9 
A   13
 O1 
A   14
 C10
A   15
 C11
A   16
 C12
A   17
 C13
A   18
 C14
A   19
 C15
A   20
 C16
A   21
 O2 
A   22
 C17
A   23
 C18
M  END
>  <ref_pdb>  (1631) 
Ax0310a

>  <ref_mols>  (1631) 
Ax0446a,Ax1080a,Ax0812a,Ax0719a,Ax1140a,Ax0528a,Ax0310a

>  <original SMILES>  (1631) 
CN(C)c1ccc(NC2=C(Cl)C(=O)c3ccccc3C2=O)cc1

>  <rationale>  (1631) 
info info set:bb_whole;hbond:S87+S125; 

>  <experiment>  (1631) 
bb_whole

>  <cluster_label>  (1631) 
3

>  <cluster_rank>  (1631) 
1288

>  <N_interactions>  (1631) 
2

>  <∆∆G>  (1631) 
-3.77512

>  <comRMSD>  (1631) 
0.866292

>  <ROCS_TanimotoCombo>  (1631) 
0.416

>  <ROCS_ShapeTanimoto>  (1631) 
0.264

>  <ROCS_ColorTanimoto>  (1631) 
0.153

$$$$
