ver_1.2
     RDKit          3D

 14 15  0  0  0  0  0  0  0  0999 V2000
    2.8742    1.7939   -0.0225 C   0  0  0  0  0  0  0  0  0  0  0  0
    2.1431    0.5249   -0.0060 N   0  0  0  0  0  0  0  0  0  0  0  0
    2.6718   -0.7109    0.0108 C   0  0  0  0  0  0  0  0  0  0  0  0
    1.6896   -1.6292    0.0225 N   0  0  0  0  0  0  0  0  0  0  0  0
    0.4985   -1.0050    0.0136 C   0  0  0  0  0  0  0  0  0  0  0  0
    0.8120    0.3390   -0.0041 C   0  0  0  0  0  0  0  0  0  0  0  0
   -0.2141    1.2838   -0.0172 C   0  0  0  0  0  0  0  0  0  0  0  0
    0.0677    2.5110   -0.0334 O   0  0  0  0  0  0  0  0  0  0  0  0
   -1.4703    0.8087   -0.0115 N   0  0  0  0  0  0  0  0  0  0  0  0
   -1.7399   -0.5063    0.0059 C   0  0  0  0  0  0  0  0  0  0  0  0
   -2.9485   -0.8949    0.0105 O   0  0  0  0  0  0  0  0  0  0  0  0
   -0.7764   -1.4420    0.0188 N   0  0  0  0  0  0  0  0  0  0  0  0
   -1.0645   -2.8724    0.0378 C   0  0  0  0  0  0  0  0  0  0  0  0
   -2.5432    1.7995   -0.0252 C   0  0  0  0  0  0  0  0  0  0  0  0
  1  2  1  0
  2  3  1  0
  3  4  2  0
  4  5  1  0
  5  6  2  0
  6  7  1  0
  7  8  2  0
  7  9  1  0
  9 10  1  0
 10 11  2  0
 10 12  1  0
 12 13  1  0
  9 14  1  0
  6  2  1  0
 12  5  1  0
M  END
>  <ref_url>  (1) 
https://github.com/matteoferla/EV-A71-2A-elaborations

>  <submitter_name>  (1) 
Matteo Ferla

>  <submitter_email>  (1) 
matteo.ferla@stats.ox.ac.uk

>  <submitter_institution>  (1) 
University of Oxford

>  <generation_date>  (1) 
2024-04-19

>  <method>  (1) 
A71-Fstein-iter2hybrid

>  <rationale>  (1) 
rationale

>  <intxn_cluster_10>  (1) 
intxn_cluster_10

>  <intxn_cluster_rank_10>  (1) 
intxn_cluster_rank_10

>  <N_interactions>  (1) 
N_interactions

>  <∆∆G>  (1) 
∆∆G

>  <$/mg>  (1) 
$/mg

>  <comRMSD>  (1) 
comRMSD

>  <N_rotatable_bonds>  (1) 
N_rotatable_bonds

>  <deep_P1_sidechain>  (1) 
deep_P1_sidechain

>  <farthest_distance_to_substrate>  (1) 
farthest_distance_to_substrate

>  <hbond:SER:7>  (1) 
hbond:SER:7

>  <hydroph_interaction:ASN:19>  (1) 
hydroph_interaction:ASN:19

>  <halogenbond:ASN:19>  (1) 
halogenbond:ASN:19

>  <hbond:ARG:20>  (1) 
hbond:ARG:20

>  <hydroph_interaction:ARG:20>  (1) 
hydroph_interaction:ARG:20

>  <hbond:HIS:21>  (1) 
hbond:HIS:21

>  <hydroph_interaction:HIS:21>  (1) 
hydroph_interaction:HIS:21

>  <saltbridge:HIS:21>  (1) 
saltbridge:HIS:21

>  <pistack:HIS:21>  (1) 
pistack:HIS:21

>  <pication:HIS:21>  (1) 
pication:HIS:21

>  <hydroph_interaction:LEU:22>  (1) 
hydroph_interaction:LEU:22

>  <hbond:SER:36>  (1) 
hbond:SER:36

>  <hbond:ASP:39>  (1) 
hbond:ASP:39

>  <saltbridge:ASP:39>  (1) 
saltbridge:ASP:39

>  <hydroph_interaction:ASP:39>  (1) 
hydroph_interaction:ASP:39

>  <halogenbond:ASP:39>  (1) 
halogenbond:ASP:39

>  <hydroph_interaction:ILE:82>  (1) 
hydroph_interaction:ILE:82

>  <hydroph_interaction:PHE:83>  (1) 
hydroph_interaction:PHE:83

>  <hbond:PHE:83>  (1) 
hbond:PHE:83

>  <halogenbond:PHE:83>  (1) 
halogenbond:PHE:83

>  <hydroph_interaction:VAL:84>  (1) 
hydroph_interaction:VAL:84

>  <hydroph_interaction:GLU:85>  (1) 
hydroph_interaction:GLU:85

>  <hbond:GLU:85>  (1) 
hbond:GLU:85

>  <halogenbond:GLU:85>  (1) 
halogenbond:GLU:85

>  <halogenbond:ALA:86>  (1) 
halogenbond:ALA:86

>  <hbond:SER:87>  (1) 
hbond:SER:87

>  <halogenbond:SER:87>  (1) 
halogenbond:SER:87

>  <hbond:GLU:88>  (1) 
hbond:GLU:88

>  <halogenbond:GLU:88>  (1) 
halogenbond:GLU:88

>  <hydroph_interaction:TYR:89>  (1) 
hydroph_interaction:TYR:89

>  <pistack:TYR:89>  (1) 
pistack:TYR:89

>  <hbond:TYR:89>  (1) 
hbond:TYR:89

>  <hbond:TYR:90>  (1) 
hbond:TYR:90

>  <hydroph_interaction:TYR:90>  (1) 
hydroph_interaction:TYR:90

>  <pistack:TYR:90>  (1) 
pistack:TYR:90

>  <hbond:ARG:93>  (1) 
hbond:ARG:93

>  <saltbridge:ARG:93>  (1) 
saltbridge:ARG:93

>  <hydroph_interaction:ARG:93>  (1) 
hydroph_interaction:ARG:93

>  <halogenbond:GLN:95>  (1) 
halogenbond:GLN:95

>  <hbond:GLN:95>  (1) 
hbond:GLN:95

>  <hydroph_interaction:GLN:95>  (1) 
hydroph_interaction:GLN:95

>  <hydroph_interaction:LEU:98>  (1) 
hydroph_interaction:LEU:98

>  <hydroph_interaction:LEU:100>  (1) 
hydroph_interaction:LEU:100

>  <hbond:SER:105>  (1) 
hbond:SER:105

>  <halogenbond:SER:105>  (1) 
halogenbond:SER:105

>  <hydroph_interaction:PRO:107>  (1) 
hydroph_interaction:PRO:107

>  <hbond:PRO:107>  (1) 
hbond:PRO:107

>  <halogenbond:PRO:107>  (1) 
halogenbond:PRO:107

>  <hbond:ASP:109>  (1) 
hbond:ASP:109

>  <hbond:CYS:110>  (1) 
hbond:CYS:110

>  <halogenbond:CYS:110>  (1) 
halogenbond:CYS:110

>  <hydroph_interaction:VAL:124>  (1) 
hydroph_interaction:VAL:124

>  <hbond:SER:125>  (1) 
hbond:SER:125

>  <halogenbond:SER:125>  (1) 
halogenbond:SER:125

>  <hydroph_interaction:THR:126>  (1) 
hydroph_interaction:THR:126

>  <hbond:THR:126>  (1) 
hbond:THR:126

>  <halogenbond:THR:126>  (1) 
halogenbond:THR:126

>  <hbond:GLY:127>  (1) 
hbond:GLY:127

>  <halogenbond:GLY:127>  (1) 
halogenbond:GLY:127

>  <hbond:GLY:128>  (1) 
hbond:GLY:128

>  <hbond:ASN:129>  (1) 
hbond:ASN:129

>  <hydroph_interaction:ASN:129>  (1) 
hydroph_interaction:ASN:129

>  <halogenbond:ASN:129>  (1) 
halogenbond:ASN:129

>  <hydroph_interaction:LEU:131>  (1) 
hydroph_interaction:LEU:131

>  <hbond:LEU:131>  (1) 
hbond:LEU:131

>  <halogenbond:LEU:131>  (1) 
halogenbond:LEU:131

>  <hbond:VAL:132>  (1) 
hbond:VAL:132

$$$$
Z230660726
     RDKit          3D

 15 15  0  0  0  0  0  0  0  0999 V2000
   30.4219    8.3369    9.0081 C   0  0  0  0  0  0  0  0  0  0  0  0
   30.9581    9.3958    8.1918 C   0  0  0  0  0  0  0  0  0  0  0  0
   32.0442    9.0985    7.2503 C   0  0  0  0  0  0  0  0  0  0  0  0
   32.6774   10.0954    6.3805 C   0  0  0  0  0  0  0  0  0  0  0  0
   33.7208    9.7843    5.5010 C   0  0  0  0  0  0  0  0  0  0  0  0
   32.1534   11.3939    6.5026 C   0  0  0  0  0  0  0  0  0  0  0  0
   31.1001   11.6847    7.4014 C   0  0  0  0  0  0  0  0  0  0  0  0
   30.5249   12.9502    7.5588 N   0  0  0  0  0  0  0  0  0  0  0  0
   29.1751   13.2078    7.6024 C   0  0  0  0  0  0  0  0  0  0  0  0
   28.2575   12.4212    7.5037 O   0  0  0  0  0  0  0  0  0  0  0  0
   28.9875   14.6513    7.7667 N   0  0  0  0  0  0  0  0  0  0  0  0
   28.8999   15.2739    9.0736 C   0  0  0  0  0  0  0  0  0  0  0  0
   29.7710   14.5726   10.0858 C   0  0  0  0  0  0  0  0  0  0  0  0
   27.4516   15.2893    9.4954 C   0  0  0  0  0  0  0  0  0  0  0  0
   30.5277   10.7034    8.2220 C   0  0  0  0  0  0  0  0  0  0  0  0
  1  2  1  0
  2  3  2  0
  3  4  1  0
  4  5  1  0
  4  6  2  0
  6  7  1  0
  7  8  1  0
  8  9  1  0
  9 10  2  0
  9 11  1  0
 11 12  1  0
 12 13  1  0
 12 14  1  0
  7 15  2  0
 15  2  1  0
A    1
 C1 
A    2
 C2 
A    3
 C3 
A    4
 C4 
A    5
 C5 
A    6
 C6 
A    7
 C7 
A    8
 N1 
A    9
 C8 
A   10
 O1 
A   11
 N2 
A   12
 C9 
A   13
 C10
A   14
 C11
A   15
 C12
M  END
>  <ref_pdb>  (2) 
Ax0310a

>  <ref_mols>  (2) 
Ax0451a,Ax0739a

>  <original SMILES>  (2) 
Cc1cc(C)cc(NC(=O)NC(C)C)c1

>  <rationale>  (2) 
info hbond:E88+S87; hydroph_interaction:P107+V124+Y89+Y90+H21; 

>  <intxn_cluster_10>  (2) 
0

>  <intxn_cluster_rank_10>  (2) 
1

>  <N_interactions>  (2) 
9

>  <∆∆G>  (2) 
-13.252562

>  <$/mg>  (2) 
163.0

>  <comRMSD>  (2) 
0.767922

>  <N_rotatable_bonds>  (2) 
6

>  <deep_P1_sidechain>  (2) 
True

>  <farthest_distance_to_substrate>  (2) 
2.419533

>  <hbond:SER:7>  (2) 
hbond:SER:7    0
hbond:SER:7    0
Name: 0, dtype: object

>  <hydroph_interaction:ASN:19>  (2) 
hydroph_interaction:ASN:19    0
hydroph_interaction:ASN:19    0
Name: 0, dtype: object

>  <halogenbond:ASN:19>  (2) 
halogenbond:ASN:19    0
halogenbond:ASN:19    0
Name: 0, dtype: object

>  <hbond:ARG:20>  (2) 
hbond:ARG:20    0
hbond:ARG:20    0
Name: 0, dtype: object

>  <hydroph_interaction:ARG:20>  (2) 
hydroph_interaction:ARG:20    0
hydroph_interaction:ARG:20    0
Name: 0, dtype: object

>  <hbond:HIS:21>  (2) 
hbond:HIS:21    0
hbond:HIS:21    0
Name: 0, dtype: object

>  <hydroph_interaction:HIS:21>  (2) 
hydroph_interaction:HIS:21    1
hydroph_interaction:HIS:21    1
Name: 0, dtype: object

>  <saltbridge:HIS:21>  (2) 
saltbridge:HIS:21    0
saltbridge:HIS:21    0
Name: 0, dtype: object

>  <pistack:HIS:21>  (2) 
pistack:HIS:21    0
pistack:HIS:21    0
Name: 0, dtype: object

>  <pication:HIS:21>  (2) 
pication:HIS:21    0
pication:HIS:21    0
Name: 0, dtype: object

>  <hydroph_interaction:LEU:22>  (2) 
hydroph_interaction:LEU:22    0
hydroph_interaction:LEU:22    0
Name: 0, dtype: object

>  <hbond:SER:36>  (2) 
hbond:SER:36    0
hbond:SER:36    0
Name: 0, dtype: object

>  <hbond:ASP:39>  (2) 
hbond:ASP:39    0
hbond:ASP:39    0
Name: 0, dtype: object

>  <saltbridge:ASP:39>  (2) 
saltbridge:ASP:39    0
saltbridge:ASP:39    0
Name: 0, dtype: object

>  <hydroph_interaction:ASP:39>  (2) 
hydroph_interaction:ASP:39    0
hydroph_interaction:ASP:39    0
Name: 0, dtype: object

>  <halogenbond:ASP:39>  (2) 
halogenbond:ASP:39    0
halogenbond:ASP:39    0
Name: 0, dtype: object

>  <hydroph_interaction:ILE:82>  (2) 
hydroph_interaction:ILE:82    0
hydroph_interaction:ILE:82    0
Name: 0, dtype: object

>  <hydroph_interaction:PHE:83>  (2) 
hydroph_interaction:PHE:83    0
hydroph_interaction:PHE:83    0
Name: 0, dtype: object

>  <hbond:PHE:83>  (2) 
hbond:PHE:83    0
hbond:PHE:83    0
Name: 0, dtype: object

>  <halogenbond:PHE:83>  (2) 
halogenbond:PHE:83    0
halogenbond:PHE:83    0
Name: 0, dtype: object

>  <hydroph_interaction:VAL:84>  (2) 
hydroph_interaction:VAL:84    0
hydroph_interaction:VAL:84    0
Name: 0, dtype: object

>  <hydroph_interaction:GLU:85>  (2) 
hydroph_interaction:GLU:85    0
hydroph_interaction:GLU:85    0
Name: 0, dtype: object

>  <hbond:GLU:85>  (2) 
hbond:GLU:85    0
hbond:GLU:85    0
Name: 0, dtype: object

>  <halogenbond:GLU:85>  (2) 
halogenbond:GLU:85    0
halogenbond:GLU:85    0
Name: 0, dtype: object

>  <halogenbond:ALA:86>  (2) 
halogenbond:ALA:86    0
halogenbond:ALA:86    0
Name: 0, dtype: object

>  <hbond:SER:87>  (2) 
hbond:SER:87    2
hbond:SER:87    2
Name: 0, dtype: object

>  <halogenbond:SER:87>  (2) 
halogenbond:SER:87    0
halogenbond:SER:87    0
Name: 0, dtype: object

>  <hbond:GLU:88>  (2) 
hbond:GLU:88    1
hbond:GLU:88    1
Name: 0, dtype: object

>  <halogenbond:GLU:88>  (2) 
halogenbond:GLU:88    0
halogenbond:GLU:88    0
Name: 0, dtype: object

>  <hydroph_interaction:TYR:89>  (2) 
hydroph_interaction:TYR:89    1
hydroph_interaction:TYR:89    1
Name: 0, dtype: object

>  <pistack:TYR:89>  (2) 
pistack:TYR:89    0
pistack:TYR:89    0
Name: 0, dtype: object

>  <hbond:TYR:89>  (2) 
hbond:TYR:89    0
hbond:TYR:89    0
Name: 0, dtype: object

>  <hbond:TYR:90>  (2) 
hbond:TYR:90    0
hbond:TYR:90    0
Name: 0, dtype: object

>  <hydroph_interaction:TYR:90>  (2) 
hydroph_interaction:TYR:90    2
hydroph_interaction:TYR:90    2
Name: 0, dtype: object

>  <pistack:TYR:90>  (2) 
pistack:TYR:90    0
pistack:TYR:90    0
Name: 0, dtype: object

>  <hbond:ARG:93>  (2) 
hbond:ARG:93    0
hbond:ARG:93    0
Name: 0, dtype: object

>  <saltbridge:ARG:93>  (2) 
saltbridge:ARG:93    0
saltbridge:ARG:93    0
Name: 0, dtype: object

>  <hydroph_interaction:ARG:93>  (2) 
hydroph_interaction:ARG:93    0
hydroph_interaction:ARG:93    0
Name: 0, dtype: object

>  <halogenbond:GLN:95>  (2) 
halogenbond:GLN:95    0
halogenbond:GLN:95    0
Name: 0, dtype: object

>  <hbond:GLN:95>  (2) 
hbond:GLN:95    0
hbond:GLN:95    0
Name: 0, dtype: object

>  <hydroph_interaction:GLN:95>  (2) 
hydroph_interaction:GLN:95    0
hydroph_interaction:GLN:95    0
Name: 0, dtype: object

>  <hydroph_interaction:LEU:98>  (2) 
hydroph_interaction:LEU:98    0
hydroph_interaction:LEU:98    0
Name: 0, dtype: object

>  <hydroph_interaction:LEU:100>  (2) 
hydroph_interaction:LEU:100    0
hydroph_interaction:LEU:100    0
Name: 0, dtype: object

>  <hbond:SER:105>  (2) 
hbond:SER:105    0
hbond:SER:105    0
Name: 0, dtype: object

>  <halogenbond:SER:105>  (2) 
halogenbond:SER:105    0
halogenbond:SER:105    0
Name: 0, dtype: object

>  <hydroph_interaction:PRO:107>  (2) 
hydroph_interaction:PRO:107    1
hydroph_interaction:PRO:107    1
Name: 0, dtype: object

>  <hbond:PRO:107>  (2) 
hbond:PRO:107    0
hbond:PRO:107    0
Name: 0, dtype: object

>  <halogenbond:PRO:107>  (2) 
halogenbond:PRO:107    0
halogenbond:PRO:107    0
Name: 0, dtype: object

>  <hbond:ASP:109>  (2) 
hbond:ASP:109    0
hbond:ASP:109    0
Name: 0, dtype: object

>  <hbond:CYS:110>  (2) 
hbond:CYS:110    0
hbond:CYS:110    0
Name: 0, dtype: object

>  <halogenbond:CYS:110>  (2) 
halogenbond:CYS:110    0
halogenbond:CYS:110    0
Name: 0, dtype: object

>  <hydroph_interaction:VAL:124>  (2) 
hydroph_interaction:VAL:124    1
hydroph_interaction:VAL:124    1
Name: 0, dtype: object

>  <hbond:SER:125>  (2) 
hbond:SER:125    0
hbond:SER:125    0
Name: 0, dtype: object

>  <halogenbond:SER:125>  (2) 
halogenbond:SER:125    0
halogenbond:SER:125    0
Name: 0, dtype: object

>  <hydroph_interaction:THR:126>  (2) 
hydroph_interaction:THR:126    0
hydroph_interaction:THR:126    0
Name: 0, dtype: object

>  <hbond:THR:126>  (2) 
hbond:THR:126    0
hbond:THR:126    0
Name: 0, dtype: object

>  <halogenbond:THR:126>  (2) 
halogenbond:THR:126    0
halogenbond:THR:126    0
Name: 0, dtype: object

>  <hbond:GLY:127>  (2) 
hbond:GLY:127    0
hbond:GLY:127    0
Name: 0, dtype: object

>  <halogenbond:GLY:127>  (2) 
halogenbond:GLY:127    0
halogenbond:GLY:127    0
Name: 0, dtype: object

>  <hbond:GLY:128>  (2) 
hbond:GLY:128    0
hbond:GLY:128    0
Name: 0, dtype: object

>  <hbond:ASN:129>  (2) 
hbond:ASN:129    0
hbond:ASN:129    0
Name: 0, dtype: object

>  <hydroph_interaction:ASN:129>  (2) 
hydroph_interaction:ASN:129    0
hydroph_interaction:ASN:129    0
Name: 0, dtype: object

>  <halogenbond:ASN:129>  (2) 
halogenbond:ASN:129    0
halogenbond:ASN:129    0
Name: 0, dtype: object

>  <hydroph_interaction:LEU:131>  (2) 
hydroph_interaction:LEU:131    0
hydroph_interaction:LEU:131    0
Name: 0, dtype: object

>  <hbond:LEU:131>  (2) 
hbond:LEU:131    0
hbond:LEU:131    0
Name: 0, dtype: object

>  <halogenbond:LEU:131>  (2) 
halogenbond:LEU:131    0
halogenbond:LEU:131    0
Name: 0, dtype: object

>  <hbond:VAL:132>  (2) 
hbond:VAL:132    0
hbond:VAL:132    0
Name: 0, dtype: object

$$$$
Z1024105954
     RDKit          3D

 29 31  0  0  0  0  0  0  0  0999 V2000
   29.6132   13.5394    5.8503 O   0  0  0  0  0  0  0  0  0  0  0  0
   29.4283   13.2267    7.0043 C   0  0  0  0  0  0  0  0  0  0  0  0
   28.0948   13.3902    7.6920 C   0  0  0  0  0  0  0  0  0  0  0  0
   28.2564   13.3534    9.1304 N   0  0  0  0  0  0  0  0  0  0  0  0
   28.5943   14.8853    9.7008 S   0  0  0  0  0  6  0  0  0  0  0  0
   27.8769   14.9912   10.9401 O   0  0  0  0  0  0  0  0  0  0  0  0
   28.3310   15.7286    8.5588 O   0  0  0  0  0  0  0  0  0  0  0  0
   30.3826   14.7954   10.0044 C   0  0  0  0  0  0  0  0  0  0  0  0
   30.7674   15.8708   10.9274 C   0  0  0  0  0  0  0  0  0  0  0  0
   29.9974   16.1506   12.0664 C   0  0  0  0  0  0  0  0  0  0  0  0
   30.3806   17.1777   12.9459 C   0  0  0  0  0  0  0  0  0  0  0  0
   31.5386   17.9215   12.6951 C   0  0  0  0  0  0  0  0  0  0  0  0
   32.2630   17.6262   11.5675 C   0  0  0  0  0  0  0  0  0  0  0  0
   31.9069   16.6295   10.6870 C   0  0  0  0  0  0  0  0  0  0  0  0
   30.3882   12.6731    7.8250 N   0  0  0  0  0  0  0  0  0  0  0  0
   30.9198   11.3324    7.6714 C   0  0  0  0  0  0  0  0  0  0  0  0
   30.3845   10.1905    8.5274 C   0  0  0  0  0  0  0  0  0  0  0  0
   30.9128    8.8154    8.3591 C   0  0  0  0  0  0  0  0  0  0  0  0
   31.9792    8.5500    7.3534 C   0  0  0  0  0  0  0  0  0  0  0  0
   32.4814    9.6932    6.5390 C   0  0  0  0  0  0  0  0  0  0  0  0
   31.9306   11.0843    6.7226 C   0  0  0  0  0  0  0  0  0  0  0  0
   32.4738   12.0884    5.9191 N   0  0  0  0  0  0  0  0  0  0  0  0
   33.6088   11.8258    5.1784 C   0  0  0  0  0  0  0  0  0  0  0  0
   34.0597   10.6941    5.0513 O   0  0  0  0  0  0  0  0  0  0  0  0
   34.2358   12.9750    4.5580 C   0  0  0  0  0  0  0  0  0  0  0  0
   33.6737   14.1509    4.1021 C   0  0  0  0  0  0  0  0  0  0  0  0
   34.6793   15.1135    3.5053 C   0  0  0  0  0  0  0  0  0  0  0  0
   36.0358   14.4408    3.6127 C   0  0  0  0  0  0  0  0  0  0  0  0
   35.9428   12.9008    4.3360 S   0  0  0  0  0  0  0  0  0  0  0  0
  1  2  2  0
  2  3  1  0
  3  4  1  0
  4  5  1  0
  5  6  2  0
  5  7  2  0
  5  8  1  0
  8  9  1  0
  9 10  2  0
 10 11  1  0
 11 12  2  0
 12 13  1  0
 13 14  2  0
  2 15  1  0
 15 16  1  0
 16 17  2  0
 17 18  1  0
 18 19  2  0
 19 20  1  0
 20 21  2  0
 21 22  1  0
 22 23  1  0
 23 24  2  0
 23 25  1  0
 25 26  2  0
 26 27  1  0
 27 28  2  0
 28 29  1  0
 14  9  1  0
 21 16  1  0
 29 25  1  0
A    1
 O1 
A    2
 C1 
A    3
 C2 
A    4
 N1 
A    5
 S1 
A    6
 O2 
A    7
 O3 
A    8
 C3 
A    9
 C4 
A   10
 C5 
A   11
 C6 
A   12
 C7 
A   13
 C8 
A   14
 C9 
A   15
 N2 
A   16
 C10
A   17
 C11
A   18
 C12
A   19
 C13
A   20
 C14
A   21
 C15
A   22
 N3 
A   23
 C16
A   24
 O4 
A   25
 C17
A   26
 C18
A   27
 C19
A   28
 C20
A   29
 S2 
M  END
>  <ref_pdb>  (3) 
Ax0310a

>  <ref_mols>  (3) 
Ax0739a,Ax0554a

>  <original SMILES>  (3) 
O=C(CNS(=O)(=O)Cc1ccccc1)Nc1ccccc1NC(=O)c1cccs1

>  <rationale>  (3) 
info hbond:S87+H21; hydroph_interaction:Y90+V84+Q95+R93; 

>  <intxn_cluster_10>  (3) 
4

>  <intxn_cluster_rank_10>  (3) 
1

>  <N_interactions>  (3) 
12

>  <∆∆G>  (3) 
-11.267962

>  <$/mg>  (3) 
163.0

>  <comRMSD>  (3) 
0.943724

>  <N_rotatable_bonds>  (3) 
8

>  <deep_P1_sidechain>  (3) 
False

>  <farthest_distance_to_substrate>  (3) 
3.680313

>  <hbond:SER:7>  (3) 
hbond:SER:7    0
hbond:SER:7    0
Name: 1, dtype: object

>  <hydroph_interaction:ASN:19>  (3) 
hydroph_interaction:ASN:19    0
hydroph_interaction:ASN:19    0
Name: 1, dtype: object

>  <halogenbond:ASN:19>  (3) 
halogenbond:ASN:19    0
halogenbond:ASN:19    0
Name: 1, dtype: object

>  <hbond:ARG:20>  (3) 
hbond:ARG:20    0
hbond:ARG:20    0
Name: 1, dtype: object

>  <hydroph_interaction:ARG:20>  (3) 
hydroph_interaction:ARG:20    0
hydroph_interaction:ARG:20    0
Name: 1, dtype: object

>  <hbond:HIS:21>  (3) 
hbond:HIS:21    1
hbond:HIS:21    1
Name: 1, dtype: object

>  <hydroph_interaction:HIS:21>  (3) 
hydroph_interaction:HIS:21    0
hydroph_interaction:HIS:21    0
Name: 1, dtype: object

>  <saltbridge:HIS:21>  (3) 
saltbridge:HIS:21    0
saltbridge:HIS:21    0
Name: 1, dtype: object

>  <pistack:HIS:21>  (3) 
pistack:HIS:21    0
pistack:HIS:21    0
Name: 1, dtype: object

>  <pication:HIS:21>  (3) 
pication:HIS:21    0
pication:HIS:21    0
Name: 1, dtype: object

>  <hydroph_interaction:LEU:22>  (3) 
hydroph_interaction:LEU:22    0
hydroph_interaction:LEU:22    0
Name: 1, dtype: object

>  <hbond:SER:36>  (3) 
hbond:SER:36    0
hbond:SER:36    0
Name: 1, dtype: object

>  <hbond:ASP:39>  (3) 
hbond:ASP:39    0
hbond:ASP:39    0
Name: 1, dtype: object

>  <saltbridge:ASP:39>  (3) 
saltbridge:ASP:39    0
saltbridge:ASP:39    0
Name: 1, dtype: object

>  <hydroph_interaction:ASP:39>  (3) 
hydroph_interaction:ASP:39    0
hydroph_interaction:ASP:39    0
Name: 1, dtype: object

>  <halogenbond:ASP:39>  (3) 
halogenbond:ASP:39    0
halogenbond:ASP:39    0
Name: 1, dtype: object

>  <hydroph_interaction:ILE:82>  (3) 
hydroph_interaction:ILE:82    0
hydroph_interaction:ILE:82    0
Name: 1, dtype: object

>  <hydroph_interaction:PHE:83>  (3) 
hydroph_interaction:PHE:83    0
hydroph_interaction:PHE:83    0
Name: 1, dtype: object

>  <hbond:PHE:83>  (3) 
hbond:PHE:83    0
hbond:PHE:83    0
Name: 1, dtype: object

>  <halogenbond:PHE:83>  (3) 
halogenbond:PHE:83    0
halogenbond:PHE:83    0
Name: 1, dtype: object

>  <hydroph_interaction:VAL:84>  (3) 
hydroph_interaction:VAL:84    2
hydroph_interaction:VAL:84    2
Name: 1, dtype: object

>  <hydroph_interaction:GLU:85>  (3) 
hydroph_interaction:GLU:85    0
hydroph_interaction:GLU:85    0
Name: 1, dtype: object

>  <hbond:GLU:85>  (3) 
hbond:GLU:85    0
hbond:GLU:85    0
Name: 1, dtype: object

>  <halogenbond:GLU:85>  (3) 
halogenbond:GLU:85    0
halogenbond:GLU:85    0
Name: 1, dtype: object

>  <halogenbond:ALA:86>  (3) 
halogenbond:ALA:86    0
halogenbond:ALA:86    0
Name: 1, dtype: object

>  <hbond:SER:87>  (3) 
hbond:SER:87    3
hbond:SER:87    3
Name: 1, dtype: object

>  <halogenbond:SER:87>  (3) 
halogenbond:SER:87    0
halogenbond:SER:87    0
Name: 1, dtype: object

>  <hbond:GLU:88>  (3) 
hbond:GLU:88    0
hbond:GLU:88    0
Name: 1, dtype: object

>  <halogenbond:GLU:88>  (3) 
halogenbond:GLU:88    0
halogenbond:GLU:88    0
Name: 1, dtype: object

>  <hydroph_interaction:TYR:89>  (3) 
hydroph_interaction:TYR:89    0
hydroph_interaction:TYR:89    0
Name: 1, dtype: object

>  <pistack:TYR:89>  (3) 
pistack:TYR:89    0
pistack:TYR:89    0
Name: 1, dtype: object

>  <hbond:TYR:89>  (3) 
hbond:TYR:89    0
hbond:TYR:89    0
Name: 1, dtype: object

>  <hbond:TYR:90>  (3) 
hbond:TYR:90    0
hbond:TYR:90    0
Name: 1, dtype: object

>  <hydroph_interaction:TYR:90>  (3) 
hydroph_interaction:TYR:90    3
hydroph_interaction:TYR:90    3
Name: 1, dtype: object

>  <pistack:TYR:90>  (3) 
pistack:TYR:90    0
pistack:TYR:90    0
Name: 1, dtype: object

>  <hbond:ARG:93>  (3) 
hbond:ARG:93    0
hbond:ARG:93    0
Name: 1, dtype: object

>  <saltbridge:ARG:93>  (3) 
saltbridge:ARG:93    0
saltbridge:ARG:93    0
Name: 1, dtype: object

>  <hydroph_interaction:ARG:93>  (3) 
hydroph_interaction:ARG:93    1
hydroph_interaction:ARG:93    1
Name: 1, dtype: object

>  <halogenbond:GLN:95>  (3) 
halogenbond:GLN:95    0
halogenbond:GLN:95    0
Name: 1, dtype: object

>  <hbond:GLN:95>  (3) 
hbond:GLN:95    0
hbond:GLN:95    0
Name: 1, dtype: object

>  <hydroph_interaction:GLN:95>  (3) 
hydroph_interaction:GLN:95    2
hydroph_interaction:GLN:95    2
Name: 1, dtype: object

>  <hydroph_interaction:LEU:98>  (3) 
hydroph_interaction:LEU:98    0
hydroph_interaction:LEU:98    0
Name: 1, dtype: object

>  <hydroph_interaction:LEU:100>  (3) 
hydroph_interaction:LEU:100    0
hydroph_interaction:LEU:100    0
Name: 1, dtype: object

>  <hbond:SER:105>  (3) 
hbond:SER:105    0
hbond:SER:105    0
Name: 1, dtype: object

>  <halogenbond:SER:105>  (3) 
halogenbond:SER:105    0
halogenbond:SER:105    0
Name: 1, dtype: object

>  <hydroph_interaction:PRO:107>  (3) 
hydroph_interaction:PRO:107    0
hydroph_interaction:PRO:107    0
Name: 1, dtype: object

>  <hbond:PRO:107>  (3) 
hbond:PRO:107    0
hbond:PRO:107    0
Name: 1, dtype: object

>  <halogenbond:PRO:107>  (3) 
halogenbond:PRO:107    0
halogenbond:PRO:107    0
Name: 1, dtype: object

>  <hbond:ASP:109>  (3) 
hbond:ASP:109    0
hbond:ASP:109    0
Name: 1, dtype: object

>  <hbond:CYS:110>  (3) 
hbond:CYS:110    0
hbond:CYS:110    0
Name: 1, dtype: object

>  <halogenbond:CYS:110>  (3) 
halogenbond:CYS:110    0
halogenbond:CYS:110    0
Name: 1, dtype: object

>  <hydroph_interaction:VAL:124>  (3) 
hydroph_interaction:VAL:124    0
hydroph_interaction:VAL:124    0
Name: 1, dtype: object

>  <hbond:SER:125>  (3) 
hbond:SER:125    0
hbond:SER:125    0
Name: 1, dtype: object

>  <halogenbond:SER:125>  (3) 
halogenbond:SER:125    0
halogenbond:SER:125    0
Name: 1, dtype: object

>  <hydroph_interaction:THR:126>  (3) 
hydroph_interaction:THR:126    0
hydroph_interaction:THR:126    0
Name: 1, dtype: object

>  <hbond:THR:126>  (3) 
hbond:THR:126    0
hbond:THR:126    0
Name: 1, dtype: object

>  <halogenbond:THR:126>  (3) 
halogenbond:THR:126    0
halogenbond:THR:126    0
Name: 1, dtype: object

>  <hbond:GLY:127>  (3) 
hbond:GLY:127    0
hbond:GLY:127    0
Name: 1, dtype: object

>  <halogenbond:GLY:127>  (3) 
halogenbond:GLY:127    0
halogenbond:GLY:127    0
Name: 1, dtype: object

>  <hbond:GLY:128>  (3) 
hbond:GLY:128    0
hbond:GLY:128    0
Name: 1, dtype: object

>  <hbond:ASN:129>  (3) 
hbond:ASN:129    0
hbond:ASN:129    0
Name: 1, dtype: object

>  <hydroph_interaction:ASN:129>  (3) 
hydroph_interaction:ASN:129    0
hydroph_interaction:ASN:129    0
Name: 1, dtype: object

>  <halogenbond:ASN:129>  (3) 
halogenbond:ASN:129    0
halogenbond:ASN:129    0
Name: 1, dtype: object

>  <hydroph_interaction:LEU:131>  (3) 
hydroph_interaction:LEU:131    0
hydroph_interaction:LEU:131    0
Name: 1, dtype: object

>  <hbond:LEU:131>  (3) 
hbond:LEU:131    0
hbond:LEU:131    0
Name: 1, dtype: object

>  <halogenbond:LEU:131>  (3) 
halogenbond:LEU:131    0
halogenbond:LEU:131    0
Name: 1, dtype: object

>  <hbond:VAL:132>  (3) 
hbond:VAL:132    0
hbond:VAL:132    0
Name: 1, dtype: object

$$$$
Z1907857656
     RDKit          3D

 24 25  0  0  0  0  0  0  0  0999 V2000
   34.1922    9.1690    4.9594 C   0  0  0  0  0  0  0  0  0  0  0  0
   33.5685    8.7343    6.1690 O   0  0  0  0  0  0  0  0  0  0  0  0
   32.6519    9.5729    6.6954 C   0  0  0  0  0  0  0  0  0  0  0  0
   31.6000    9.0295    7.4444 C   0  0  0  0  0  0  0  0  0  0  0  0
   30.6446    9.9052    7.9912 C   0  0  0  0  0  0  0  0  0  0  0  0
   30.8182   11.3781    7.7189 C   0  0  0  0  0  0  0  0  0  0  0  0
   29.9390   12.3628    8.1756 N   0  0  0  0  0  0  0  0  0  0  0  0
   29.3164   13.3689    7.4212 C   0  0  0  0  0  0  0  0  0  0  0  0
   29.2634   13.5081    6.0620 O   0  0  0  0  0  0  0  0  0  0  0  0
   28.6339   14.3704    8.3414 C   0  0  0  0  0  0  0  0  0  0  0  0
   28.4929   15.8691    8.2144 C   0  0  0  0  0  0  0  0  0  0  0  0
   27.7191   16.5431    9.3606 C   0  0  0  0  0  0  0  0  0  0  0  0
   27.1912   15.7639   10.4907 C   0  0  0  0  0  0  0  0  0  0  0  0
   26.5246   16.4017   11.4366 F   0  0  0  0  0  0  0  0  0  0  0  0
   27.4605   14.2902   10.4675 C   0  0  0  0  0  0  0  0  0  0  0  0
   26.9857   13.2103   11.7116 Cl  0  0  0  0  0  0  0  0  0  0  0  0
   28.1228   13.7734    9.3898 C   0  0  0  0  0  0  0  0  0  0  0  0
   28.3271   12.5456    9.2726 F   0  0  0  0  0  0  0  0  0  0  0  0
   31.8875   11.8218    6.9844 C   0  0  0  0  0  0  0  0  0  0  0  0
   32.8005   10.9386    6.4800 C   0  0  0  0  0  0  0  0  0  0  0  0
   33.8734   11.3743    5.7674 N   0  0  0  0  0  0  0  0  0  0  0  0
   33.7663   12.5763    4.9587 C   0  0  0  0  0  0  0  0  0  0  0  0
   32.4727   13.0232    4.8760 N   0  0  0  0  0  0  0  0  0  0  0  0
   34.6569   13.1798    4.3760 O   0  0  0  0  0  0  0  0  0  0  0  0
  1  2  1  0
  2  3  1  0
  3  4  2  0
  4  5  1  0
  5  6  2  0
  6  7  1  0
  7  8  1  0
  8  9  2  0
  8 10  1  0
 10 11  2  0
 11 12  1  0
 12 13  2  0
 13 14  1  0
 13 15  1  0
 15 16  1  0
 15 17  2  0
 17 18  1  0
  6 19  1  0
 19 20  2  0
 20 21  1  0
 21 22  1  0
 22 23  1  0
 22 24  2  0
 20  3  1  0
 17 10  1  0
A    1
 C1 
A    2
 O1 
A    3
 C2 
A    4
 C3 
A    5
 C4 
A    6
 C5 
A    7
 N1 
A    8
 C6 
A    9
 O2 
A   10
 C7 
A   11
 C8 
A   12
 C9 
A   13
 C10
A   14
 F1 
A   15
 C11
A   16
CL1 
A   17
 C12
A   18
 F2 
A   19
 C13
A   20
 C14
A   21
 N2 
A   22
 C15
A   23
 N3 
A   24
 O3 
M  END
>  <ref_pdb>  (4) 
Ax0310a

>  <ref_mols>  (4) 
Ax0554a,Ax1148a

>  <original SMILES>  (4) 
COc1ccc(NC(=O)c2ccc(F)c(Cl)c2F)cc1NC(N)=O

>  <rationale>  (4) 
info halogenbond:N19+C110; hbond:S125+G127+S87; hydroph_interaction:Y89+Y90; pication:H21; 

>  <intxn_cluster_10>  (4) 
9

>  <intxn_cluster_rank_10>  (4) 
1

>  <N_interactions>  (4) 
11

>  <∆∆G>  (4) 
-0.427343

>  <$/mg>  (4) 
0.0

>  <comRMSD>  (4) 
0.818774

>  <N_rotatable_bonds>  (4) 
5

>  <deep_P1_sidechain>  (4) 
False

>  <farthest_distance_to_substrate>  (4) 
3.942341

>  <hbond:SER:7>  (4) 
hbond:SER:7    0
hbond:SER:7    0
Name: 2, dtype: object

>  <hydroph_interaction:ASN:19>  (4) 
hydroph_interaction:ASN:19    0
hydroph_interaction:ASN:19    0
Name: 2, dtype: object

>  <halogenbond:ASN:19>  (4) 
halogenbond:ASN:19    1
halogenbond:ASN:19    1
Name: 2, dtype: object

>  <hbond:ARG:20>  (4) 
hbond:ARG:20    0
hbond:ARG:20    0
Name: 2, dtype: object

>  <hydroph_interaction:ARG:20>  (4) 
hydroph_interaction:ARG:20    0
hydroph_interaction:ARG:20    0
Name: 2, dtype: object

>  <hbond:HIS:21>  (4) 
hbond:HIS:21    0
hbond:HIS:21    0
Name: 2, dtype: object

>  <hydroph_interaction:HIS:21>  (4) 
hydroph_interaction:HIS:21    0
hydroph_interaction:HIS:21    0
Name: 2, dtype: object

>  <saltbridge:HIS:21>  (4) 
saltbridge:HIS:21    0
saltbridge:HIS:21    0
Name: 2, dtype: object

>  <pistack:HIS:21>  (4) 
pistack:HIS:21    0
pistack:HIS:21    0
Name: 2, dtype: object

>  <pication:HIS:21>  (4) 
pication:HIS:21    1
pication:HIS:21    1
Name: 2, dtype: object

>  <hydroph_interaction:LEU:22>  (4) 
hydroph_interaction:LEU:22    0
hydroph_interaction:LEU:22    0
Name: 2, dtype: object

>  <hbond:SER:36>  (4) 
hbond:SER:36    0
hbond:SER:36    0
Name: 2, dtype: object

>  <hbond:ASP:39>  (4) 
hbond:ASP:39    0
hbond:ASP:39    0
Name: 2, dtype: object

>  <saltbridge:ASP:39>  (4) 
saltbridge:ASP:39    0
saltbridge:ASP:39    0
Name: 2, dtype: object

>  <hydroph_interaction:ASP:39>  (4) 
hydroph_interaction:ASP:39    0
hydroph_interaction:ASP:39    0
Name: 2, dtype: object

>  <halogenbond:ASP:39>  (4) 
halogenbond:ASP:39    0
halogenbond:ASP:39    0
Name: 2, dtype: object

>  <hydroph_interaction:ILE:82>  (4) 
hydroph_interaction:ILE:82    0
hydroph_interaction:ILE:82    0
Name: 2, dtype: object

>  <hydroph_interaction:PHE:83>  (4) 
hydroph_interaction:PHE:83    0
hydroph_interaction:PHE:83    0
Name: 2, dtype: object

>  <hbond:PHE:83>  (4) 
hbond:PHE:83    0
hbond:PHE:83    0
Name: 2, dtype: object

>  <halogenbond:PHE:83>  (4) 
halogenbond:PHE:83    0
halogenbond:PHE:83    0
Name: 2, dtype: object

>  <hydroph_interaction:VAL:84>  (4) 
hydroph_interaction:VAL:84    0
hydroph_interaction:VAL:84    0
Name: 2, dtype: object

>  <hydroph_interaction:GLU:85>  (4) 
hydroph_interaction:GLU:85    0
hydroph_interaction:GLU:85    0
Name: 2, dtype: object

>  <hbond:GLU:85>  (4) 
hbond:GLU:85    0
hbond:GLU:85    0
Name: 2, dtype: object

>  <halogenbond:GLU:85>  (4) 
halogenbond:GLU:85    0
halogenbond:GLU:85    0
Name: 2, dtype: object

>  <halogenbond:ALA:86>  (4) 
halogenbond:ALA:86    0
halogenbond:ALA:86    0
Name: 2, dtype: object

>  <hbond:SER:87>  (4) 
hbond:SER:87    2
hbond:SER:87    2
Name: 2, dtype: object

>  <halogenbond:SER:87>  (4) 
halogenbond:SER:87    0
halogenbond:SER:87    0
Name: 2, dtype: object

>  <hbond:GLU:88>  (4) 
hbond:GLU:88    0
hbond:GLU:88    0
Name: 2, dtype: object

>  <halogenbond:GLU:88>  (4) 
halogenbond:GLU:88    0
halogenbond:GLU:88    0
Name: 2, dtype: object

>  <hydroph_interaction:TYR:89>  (4) 
hydroph_interaction:TYR:89    1
hydroph_interaction:TYR:89    1
Name: 2, dtype: object

>  <pistack:TYR:89>  (4) 
pistack:TYR:89    0
pistack:TYR:89    0
Name: 2, dtype: object

>  <hbond:TYR:89>  (4) 
hbond:TYR:89    0
hbond:TYR:89    0
Name: 2, dtype: object

>  <hbond:TYR:90>  (4) 
hbond:TYR:90    0
hbond:TYR:90    0
Name: 2, dtype: object

>  <hydroph_interaction:TYR:90>  (4) 
hydroph_interaction:TYR:90    2
hydroph_interaction:TYR:90    2
Name: 2, dtype: object

>  <pistack:TYR:90>  (4) 
pistack:TYR:90    0
pistack:TYR:90    0
Name: 2, dtype: object

>  <hbond:ARG:93>  (4) 
hbond:ARG:93    0
hbond:ARG:93    0
Name: 2, dtype: object

>  <saltbridge:ARG:93>  (4) 
saltbridge:ARG:93    0
saltbridge:ARG:93    0
Name: 2, dtype: object

>  <hydroph_interaction:ARG:93>  (4) 
hydroph_interaction:ARG:93    0
hydroph_interaction:ARG:93    0
Name: 2, dtype: object

>  <halogenbond:GLN:95>  (4) 
halogenbond:GLN:95    0
halogenbond:GLN:95    0
Name: 2, dtype: object

>  <hbond:GLN:95>  (4) 
hbond:GLN:95    0
hbond:GLN:95    0
Name: 2, dtype: object

>  <hydroph_interaction:GLN:95>  (4) 
hydroph_interaction:GLN:95    0
hydroph_interaction:GLN:95    0
Name: 2, dtype: object

>  <hydroph_interaction:LEU:98>  (4) 
hydroph_interaction:LEU:98    0
hydroph_interaction:LEU:98    0
Name: 2, dtype: object

>  <hydroph_interaction:LEU:100>  (4) 
hydroph_interaction:LEU:100    0
hydroph_interaction:LEU:100    0
Name: 2, dtype: object

>  <hbond:SER:105>  (4) 
hbond:SER:105    0
hbond:SER:105    0
Name: 2, dtype: object

>  <halogenbond:SER:105>  (4) 
halogenbond:SER:105    0
halogenbond:SER:105    0
Name: 2, dtype: object

>  <hydroph_interaction:PRO:107>  (4) 
hydroph_interaction:PRO:107    0
hydroph_interaction:PRO:107    0
Name: 2, dtype: object

>  <hbond:PRO:107>  (4) 
hbond:PRO:107    0
hbond:PRO:107    0
Name: 2, dtype: object

>  <halogenbond:PRO:107>  (4) 
halogenbond:PRO:107    0
halogenbond:PRO:107    0
Name: 2, dtype: object

>  <hbond:ASP:109>  (4) 
hbond:ASP:109    0
hbond:ASP:109    0
Name: 2, dtype: object

>  <hbond:CYS:110>  (4) 
hbond:CYS:110    0
hbond:CYS:110    0
Name: 2, dtype: object

>  <halogenbond:CYS:110>  (4) 
halogenbond:CYS:110    1
halogenbond:CYS:110    1
Name: 2, dtype: object

>  <hydroph_interaction:VAL:124>  (4) 
hydroph_interaction:VAL:124    0
hydroph_interaction:VAL:124    0
Name: 2, dtype: object

>  <hbond:SER:125>  (4) 
hbond:SER:125    1
hbond:SER:125    1
Name: 2, dtype: object

>  <halogenbond:SER:125>  (4) 
halogenbond:SER:125    0
halogenbond:SER:125    0
Name: 2, dtype: object

>  <hydroph_interaction:THR:126>  (4) 
hydroph_interaction:THR:126    0
hydroph_interaction:THR:126    0
Name: 2, dtype: object

>  <hbond:THR:126>  (4) 
hbond:THR:126    0
hbond:THR:126    0
Name: 2, dtype: object

>  <halogenbond:THR:126>  (4) 
halogenbond:THR:126    0
halogenbond:THR:126    0
Name: 2, dtype: object

>  <hbond:GLY:127>  (4) 
hbond:GLY:127    2
hbond:GLY:127    2
Name: 2, dtype: object

>  <halogenbond:GLY:127>  (4) 
halogenbond:GLY:127    0
halogenbond:GLY:127    0
Name: 2, dtype: object

>  <hbond:GLY:128>  (4) 
hbond:GLY:128    0
hbond:GLY:128    0
Name: 2, dtype: object

>  <hbond:ASN:129>  (4) 
hbond:ASN:129    0
hbond:ASN:129    0
Name: 2, dtype: object

>  <hydroph_interaction:ASN:129>  (4) 
hydroph_interaction:ASN:129    0
hydroph_interaction:ASN:129    0
Name: 2, dtype: object

>  <halogenbond:ASN:129>  (4) 
halogenbond:ASN:129    0
halogenbond:ASN:129    0
Name: 2, dtype: object

>  <hydroph_interaction:LEU:131>  (4) 
hydroph_interaction:LEU:131    0
hydroph_interaction:LEU:131    0
Name: 2, dtype: object

>  <hbond:LEU:131>  (4) 
hbond:LEU:131    0
hbond:LEU:131    0
Name: 2, dtype: object

>  <halogenbond:LEU:131>  (4) 
halogenbond:LEU:131    0
halogenbond:LEU:131    0
Name: 2, dtype: object

>  <hbond:VAL:132>  (4) 
hbond:VAL:132    0
hbond:VAL:132    0
Name: 2, dtype: object

$$$$
Z5116054929
     RDKit          3D

 24 26  0  0  0  0  0  0  0  0999 V2000
   34.5856   12.2283    5.3055 C   0  0  0  0  0  0  0  0  0  0  0  0
   34.1623   11.0176    4.6519 N   0  0  0  0  0  0  0  0  0  0  0  0
   33.7873    9.9300    5.4191 C   0  0  0  0  0  0  0  0  0  0  0  0
   34.2767    8.8199    5.4292 O   0  0  0  0  0  0  0  0  0  0  0  0
   32.6281   10.1735    6.3745 C   0  0  0  0  0  0  0  0  0  0  0  0
   32.1638    9.0803    7.1697 C   0  0  0  0  0  0  0  0  0  0  0  0
   31.0313    9.4763    8.0808 C   0  0  0  0  0  0  0  0  0  0  0  0
   30.3380    8.5946    9.0373 C   0  0  0  0  0  0  0  0  0  0  0  0
   30.5523   10.7935    8.0574 C   0  0  0  0  0  0  0  0  0  0  0  0
   31.1108   11.7196    7.2080 C   0  0  0  0  0  0  0  0  0  0  0  0
   30.5827   12.9518    7.2199 N   0  0  0  0  0  0  0  0  0  0  0  0
   29.8438   13.6632    8.1068 C   0  0  0  0  0  0  0  0  0  0  0  0
   30.3941   14.3907    9.1116 C   0  0  0  0  0  0  0  0  0  0  0  0
   29.6275   15.1713   10.0442 C   0  0  0  0  0  0  0  0  0  0  0  0
   30.0659   15.9308   11.0351 N   0  0  0  0  0  0  0  0  0  0  0  0
   31.4209   16.3513   11.0233 C   0  0  0  0  0  0  0  0  0  0  0  0
   32.0200   17.1671   12.1747 C   0  0  0  0  0  0  0  0  0  0  0  0
   30.9384   17.8089   13.0331 C   0  0  0  0  0  0  0  0  0  0  0  0
   29.6945   16.9579   13.2880 C   0  0  0  0  0  0  0  0  0  0  0  0
   29.4593   15.7569   12.3452 C   0  0  0  0  0  0  0  0  0  0  0  0
   28.2843   15.1513    9.8966 N   0  0  0  0  0  0  0  0  0  0  0  0
   27.8077   14.4123    8.8835 C   0  0  0  0  0  0  0  0  0  0  0  0
   28.4596   13.6752    7.9847 N   0  0  0  0  0  0  0  0  0  0  0  0
   32.1268   11.4278    6.3901 C   0  0  0  0  0  0  0  0  0  0  0  0
  1  2  1  0
  2  3  1  0
  3  4  2  0
  3  5  1  0
  5  6  2  0
  6  7  1  0
  7  8  1  0
  7  9  2  0
  9 10  1  0
 10 11  1  0
 11 12  1  0
 12 13  2  0
 13 14  1  0
 14 15  1  0
 15 16  1  0
 16 17  1  0
 17 18  1  0
 18 19  1  0
 19 20  1  0
 14 21  2  0
 21 22  1  0
 22 23  2  0
 10 24  2  0
 24  5  1  0
 23 12  1  0
 20 15  1  0
A    1
 C1 
A    2
 N1 
A    3
 C2 
A    4
 O1 
A    5
 C3 
A    6
 C4 
A    7
 C5 
A    8
 C6 
A    9
 C7 
A   10
 C8 
A   11
 N2 
A   12
 C9 
A   13
 C10
A   14
 C11
A   15
 N3 
A   16
 C12
A   17
 C13
A   18
 C14
A   19
 C15
A   20
 C16
A   21
 N4 
A   22
 C17
A   23
 N5 
A   24
 C18
M  END
>  <ref_pdb>  (5) 
Ax0310a

>  <ref_mols>  (5) 
Ax0554a,Ax0739a

>  <original SMILES>  (5) 
CNC(=O)c1cc(C)cc(Nc2cc(N3CCCCC3)ncn2)c1

>  <rationale>  (5) 
info hbond:S87; hydroph_interaction:P107+V124+Y90+V84+D39+Q95; pistack:H21; 

>  <intxn_cluster_10>  (5) 
4

>  <intxn_cluster_rank_10>  (5) 
1

>  <N_interactions>  (5) 
12

>  <∆∆G>  (5) 
-9.341001

>  <$/mg>  (5) 
0.0

>  <comRMSD>  (5) 
0.785557

>  <N_rotatable_bonds>  (5) 
6

>  <deep_P1_sidechain>  (5) 
True

>  <farthest_distance_to_substrate>  (5) 
3.403137

>  <hbond:SER:7>  (5) 
hbond:SER:7    0
hbond:SER:7    0
Name: 3, dtype: object

>  <hydroph_interaction:ASN:19>  (5) 
hydroph_interaction:ASN:19    0
hydroph_interaction:ASN:19    0
Name: 3, dtype: object

>  <halogenbond:ASN:19>  (5) 
halogenbond:ASN:19    0
halogenbond:ASN:19    0
Name: 3, dtype: object

>  <hbond:ARG:20>  (5) 
hbond:ARG:20    0
hbond:ARG:20    0
Name: 3, dtype: object

>  <hydroph_interaction:ARG:20>  (5) 
hydroph_interaction:ARG:20    0
hydroph_interaction:ARG:20    0
Name: 3, dtype: object

>  <hbond:HIS:21>  (5) 
hbond:HIS:21    0
hbond:HIS:21    0
Name: 3, dtype: object

>  <hydroph_interaction:HIS:21>  (5) 
hydroph_interaction:HIS:21    0
hydroph_interaction:HIS:21    0
Name: 3, dtype: object

>  <saltbridge:HIS:21>  (5) 
saltbridge:HIS:21    0
saltbridge:HIS:21    0
Name: 3, dtype: object

>  <pistack:HIS:21>  (5) 
pistack:HIS:21    1
pistack:HIS:21    1
Name: 3, dtype: object

>  <pication:HIS:21>  (5) 
pication:HIS:21    0
pication:HIS:21    0
Name: 3, dtype: object

>  <hydroph_interaction:LEU:22>  (5) 
hydroph_interaction:LEU:22    0
hydroph_interaction:LEU:22    0
Name: 3, dtype: object

>  <hbond:SER:36>  (5) 
hbond:SER:36    0
hbond:SER:36    0
Name: 3, dtype: object

>  <hbond:ASP:39>  (5) 
hbond:ASP:39    0
hbond:ASP:39    0
Name: 3, dtype: object

>  <saltbridge:ASP:39>  (5) 
saltbridge:ASP:39    0
saltbridge:ASP:39    0
Name: 3, dtype: object

>  <hydroph_interaction:ASP:39>  (5) 
hydroph_interaction:ASP:39    1
hydroph_interaction:ASP:39    1
Name: 3, dtype: object

>  <halogenbond:ASP:39>  (5) 
halogenbond:ASP:39    0
halogenbond:ASP:39    0
Name: 3, dtype: object

>  <hydroph_interaction:ILE:82>  (5) 
hydroph_interaction:ILE:82    0
hydroph_interaction:ILE:82    0
Name: 3, dtype: object

>  <hydroph_interaction:PHE:83>  (5) 
hydroph_interaction:PHE:83    0
hydroph_interaction:PHE:83    0
Name: 3, dtype: object

>  <hbond:PHE:83>  (5) 
hbond:PHE:83    0
hbond:PHE:83    0
Name: 3, dtype: object

>  <halogenbond:PHE:83>  (5) 
halogenbond:PHE:83    0
halogenbond:PHE:83    0
Name: 3, dtype: object

>  <hydroph_interaction:VAL:84>  (5) 
hydroph_interaction:VAL:84    1
hydroph_interaction:VAL:84    1
Name: 3, dtype: object

>  <hydroph_interaction:GLU:85>  (5) 
hydroph_interaction:GLU:85    0
hydroph_interaction:GLU:85    0
Name: 3, dtype: object

>  <hbond:GLU:85>  (5) 
hbond:GLU:85    0
hbond:GLU:85    0
Name: 3, dtype: object

>  <halogenbond:GLU:85>  (5) 
halogenbond:GLU:85    0
halogenbond:GLU:85    0
Name: 3, dtype: object

>  <halogenbond:ALA:86>  (5) 
halogenbond:ALA:86    0
halogenbond:ALA:86    0
Name: 3, dtype: object

>  <hbond:SER:87>  (5) 
hbond:SER:87    2
hbond:SER:87    2
Name: 3, dtype: object

>  <halogenbond:SER:87>  (5) 
halogenbond:SER:87    0
halogenbond:SER:87    0
Name: 3, dtype: object

>  <hbond:GLU:88>  (5) 
hbond:GLU:88    0
hbond:GLU:88    0
Name: 3, dtype: object

>  <halogenbond:GLU:88>  (5) 
halogenbond:GLU:88    0
halogenbond:GLU:88    0
Name: 3, dtype: object

>  <hydroph_interaction:TYR:89>  (5) 
hydroph_interaction:TYR:89    0
hydroph_interaction:TYR:89    0
Name: 3, dtype: object

>  <pistack:TYR:89>  (5) 
pistack:TYR:89    0
pistack:TYR:89    0
Name: 3, dtype: object

>  <hbond:TYR:89>  (5) 
hbond:TYR:89    0
hbond:TYR:89    0
Name: 3, dtype: object

>  <hbond:TYR:90>  (5) 
hbond:TYR:90    0
hbond:TYR:90    0
Name: 3, dtype: object

>  <hydroph_interaction:TYR:90>  (5) 
hydroph_interaction:TYR:90    3
hydroph_interaction:TYR:90    3
Name: 3, dtype: object

>  <pistack:TYR:90>  (5) 
pistack:TYR:90    0
pistack:TYR:90    0
Name: 3, dtype: object

>  <hbond:ARG:93>  (5) 
hbond:ARG:93    0
hbond:ARG:93    0
Name: 3, dtype: object

>  <saltbridge:ARG:93>  (5) 
saltbridge:ARG:93    0
saltbridge:ARG:93    0
Name: 3, dtype: object

>  <hydroph_interaction:ARG:93>  (5) 
hydroph_interaction:ARG:93    0
hydroph_interaction:ARG:93    0
Name: 3, dtype: object

>  <halogenbond:GLN:95>  (5) 
halogenbond:GLN:95    0
halogenbond:GLN:95    0
Name: 3, dtype: object

>  <hbond:GLN:95>  (5) 
hbond:GLN:95    0
hbond:GLN:95    0
Name: 3, dtype: object

>  <hydroph_interaction:GLN:95>  (5) 
hydroph_interaction:GLN:95    2
hydroph_interaction:GLN:95    2
Name: 3, dtype: object

>  <hydroph_interaction:LEU:98>  (5) 
hydroph_interaction:LEU:98    0
hydroph_interaction:LEU:98    0
Name: 3, dtype: object

>  <hydroph_interaction:LEU:100>  (5) 
hydroph_interaction:LEU:100    0
hydroph_interaction:LEU:100    0
Name: 3, dtype: object

>  <hbond:SER:105>  (5) 
hbond:SER:105    0
hbond:SER:105    0
Name: 3, dtype: object

>  <halogenbond:SER:105>  (5) 
halogenbond:SER:105    0
halogenbond:SER:105    0
Name: 3, dtype: object

>  <hydroph_interaction:PRO:107>  (5) 
hydroph_interaction:PRO:107    1
hydroph_interaction:PRO:107    1
Name: 3, dtype: object

>  <hbond:PRO:107>  (5) 
hbond:PRO:107    0
hbond:PRO:107    0
Name: 3, dtype: object

>  <halogenbond:PRO:107>  (5) 
halogenbond:PRO:107    0
halogenbond:PRO:107    0
Name: 3, dtype: object

>  <hbond:ASP:109>  (5) 
hbond:ASP:109    0
hbond:ASP:109    0
Name: 3, dtype: object

>  <hbond:CYS:110>  (5) 
hbond:CYS:110    0
hbond:CYS:110    0
Name: 3, dtype: object

>  <halogenbond:CYS:110>  (5) 
halogenbond:CYS:110    0
halogenbond:CYS:110    0
Name: 3, dtype: object

>  <hydroph_interaction:VAL:124>  (5) 
hydroph_interaction:VAL:124    1
hydroph_interaction:VAL:124    1
Name: 3, dtype: object

>  <hbond:SER:125>  (5) 
hbond:SER:125    0
hbond:SER:125    0
Name: 3, dtype: object

>  <halogenbond:SER:125>  (5) 
halogenbond:SER:125    0
halogenbond:SER:125    0
Name: 3, dtype: object

>  <hydroph_interaction:THR:126>  (5) 
hydroph_interaction:THR:126    0
hydroph_interaction:THR:126    0
Name: 3, dtype: object

>  <hbond:THR:126>  (5) 
hbond:THR:126    0
hbond:THR:126    0
Name: 3, dtype: object

>  <halogenbond:THR:126>  (5) 
halogenbond:THR:126    0
halogenbond:THR:126    0
Name: 3, dtype: object

>  <hbond:GLY:127>  (5) 
hbond:GLY:127    0
hbond:GLY:127    0
Name: 3, dtype: object

>  <halogenbond:GLY:127>  (5) 
halogenbond:GLY:127    0
halogenbond:GLY:127    0
Name: 3, dtype: object

>  <hbond:GLY:128>  (5) 
hbond:GLY:128    0
hbond:GLY:128    0
Name: 3, dtype: object

>  <hbond:ASN:129>  (5) 
hbond:ASN:129    0
hbond:ASN:129    0
Name: 3, dtype: object

>  <hydroph_interaction:ASN:129>  (5) 
hydroph_interaction:ASN:129    0
hydroph_interaction:ASN:129    0
Name: 3, dtype: object

>  <halogenbond:ASN:129>  (5) 
halogenbond:ASN:129    0
halogenbond:ASN:129    0
Name: 3, dtype: object

>  <hydroph_interaction:LEU:131>  (5) 
hydroph_interaction:LEU:131    0
hydroph_interaction:LEU:131    0
Name: 3, dtype: object

>  <hbond:LEU:131>  (5) 
hbond:LEU:131    0
hbond:LEU:131    0
Name: 3, dtype: object

>  <halogenbond:LEU:131>  (5) 
halogenbond:LEU:131    0
halogenbond:LEU:131    0
Name: 3, dtype: object

>  <hbond:VAL:132>  (5) 
hbond:VAL:132    0
hbond:VAL:132    0
Name: 3, dtype: object

$$$$
Z1193332108
     RDKit          3D

 23 24  0  0  0  0  0  0  0  0999 V2000
   25.3405   19.2588   10.9404 C   0  0  0  0  0  0  0  0  0  0  0  0
   26.2093   18.1399   10.7690 O   0  0  0  0  0  0  0  0  0  0  0  0
   26.6595   17.6820   11.9709 C   0  0  0  0  0  0  0  0  0  0  0  0
   25.9610   17.7435   12.9671 O   0  0  0  0  0  0  0  0  0  0  0  0
   28.0572   17.2000   11.9203 C   0  0  0  0  0  0  0  0  0  0  0  0
   28.5647   16.3278   10.8114 C   0  0  0  0  0  0  0  0  0  0  0  0
   27.9204   15.8816    9.8505 O   0  0  0  0  0  0  0  0  0  0  0  0
   28.4418   14.6285    9.3525 C   0  0  0  0  0  0  0  0  0  0  0  0
   28.3946   14.2610    7.9850 C   0  0  0  0  0  0  0  0  0  0  0  0
   27.4601   14.5241    7.2477 O   0  0  0  0  0  0  0  0  0  0  0  0
   29.4958   13.5500    7.5141 N   0  0  0  0  0  0  0  0  0  0  0  0
   30.0459   12.5655    8.3859 C   0  0  0  0  0  0  0  0  0  0  0  0
   30.8827   11.4198    7.7512 C   0  0  0  0  0  0  0  0  0  0  0  0
   30.6652   10.1313    8.2217 C   0  0  0  0  0  0  0  0  0  0  0  0
   31.4408    8.9562    7.6644 C   0  0  0  0  0  0  0  0  0  0  0  0
   32.4340    9.2963    6.5969 C   0  0  0  0  0  0  0  0  0  0  0  0
   32.5940   10.6039    6.1820 C   0  0  0  0  0  0  0  0  0  0  0  0
   31.8361   11.6310    6.7470 C   0  0  0  0  0  0  0  0  0  0  0  0
   32.0505   12.8613    6.2909 F   0  0  0  0  0  0  0  0  0  0  0  0
   29.9526   16.0910   10.9991 C   0  0  0  0  0  0  0  0  0  0  0  0
   30.4372   16.7254   12.1459 C   0  0  0  0  0  0  0  0  0  0  0  0
   31.7683   16.6724   12.5056 C   0  0  0  0  0  0  0  0  0  0  0  0
   29.2813   17.5848   13.0597 S   0  0  0  0  0  0  0  0  0  0  0  0
  1  2  1  0
  2  3  1  0
  3  4  2  0
  3  5  1  0
  5  6  2  0
  6  7  1  0
  7  8  1  0
  8  9  1  0
  9 10  2  0
  9 11  1  0
 11 12  1  0
 12 13  1  0
 13 14  2  0
 14 15  1  0
 15 16  2  0
 16 17  1  0
 17 18  2  0
 18 19  1  0
  6 20  1  0
 20 21  2  0
 21 22  1  0
 21 23  1  0
 23  5  1  0
 18 13  1  0
A    1
 C1 
A    2
 O1 
A    3
 C2 
A    4
 O2 
A    5
 C3 
A    6
 C4 
A    7
 O3 
A    8
 C5 
A    9
 C6 
A   10
 O4 
A   11
 N1 
A   12
 C7 
A   13
 C8 
A   14
 C9 
A   15
 C10
A   16
 C11
A   17
 C12
A   18
 C13
A   19
 F1 
A   20
 C14
A   21
 C15
A   22
 C16
A   23
 S1 
M  END
>  <ref_pdb>  (6) 
Ax0310a

>  <ref_mols>  (6) 
Ax0554a,Ax0732a

>  <original SMILES>  (6) 
COC(=O)c1sc(C)cc1OCC(=O)NCc1ccccc1F

>  <rationale>  (6) 
info halogenbond:S87; hbond:S87; hydroph_interaction:P107+Y90+T126+V84+Q95; saltbridge:H21; 

>  <intxn_cluster_10>  (6) 
2

>  <intxn_cluster_rank_10>  (6) 
1

>  <N_interactions>  (6) 
10

>  <∆∆G>  (6) 
-11.445446

>  <$/mg>  (6) 
163.0

>  <comRMSD>  (6) 
0.894205

>  <N_rotatable_bonds>  (6) 
8

>  <deep_P1_sidechain>  (6) 
False

>  <farthest_distance_to_substrate>  (6) 
3.400807

>  <hbond:SER:7>  (6) 
hbond:SER:7    0
hbond:SER:7    0
Name: 4, dtype: object

>  <hydroph_interaction:ASN:19>  (6) 
hydroph_interaction:ASN:19    0
hydroph_interaction:ASN:19    0
Name: 4, dtype: object

>  <halogenbond:ASN:19>  (6) 
halogenbond:ASN:19    0
halogenbond:ASN:19    0
Name: 4, dtype: object

>  <hbond:ARG:20>  (6) 
hbond:ARG:20    0
hbond:ARG:20    0
Name: 4, dtype: object

>  <hydroph_interaction:ARG:20>  (6) 
hydroph_interaction:ARG:20    0
hydroph_interaction:ARG:20    0
Name: 4, dtype: object

>  <hbond:HIS:21>  (6) 
hbond:HIS:21    0
hbond:HIS:21    0
Name: 4, dtype: object

>  <hydroph_interaction:HIS:21>  (6) 
hydroph_interaction:HIS:21    0
hydroph_interaction:HIS:21    0
Name: 4, dtype: object

>  <saltbridge:HIS:21>  (6) 
saltbridge:HIS:21    1
saltbridge:HIS:21    1
Name: 4, dtype: object

>  <pistack:HIS:21>  (6) 
pistack:HIS:21    0
pistack:HIS:21    0
Name: 4, dtype: object

>  <pication:HIS:21>  (6) 
pication:HIS:21    0
pication:HIS:21    0
Name: 4, dtype: object

>  <hydroph_interaction:LEU:22>  (6) 
hydroph_interaction:LEU:22    0
hydroph_interaction:LEU:22    0
Name: 4, dtype: object

>  <hbond:SER:36>  (6) 
hbond:SER:36    0
hbond:SER:36    0
Name: 4, dtype: object

>  <hbond:ASP:39>  (6) 
hbond:ASP:39    0
hbond:ASP:39    0
Name: 4, dtype: object

>  <saltbridge:ASP:39>  (6) 
saltbridge:ASP:39    0
saltbridge:ASP:39    0
Name: 4, dtype: object

>  <hydroph_interaction:ASP:39>  (6) 
hydroph_interaction:ASP:39    0
hydroph_interaction:ASP:39    0
Name: 4, dtype: object

>  <halogenbond:ASP:39>  (6) 
halogenbond:ASP:39    0
halogenbond:ASP:39    0
Name: 4, dtype: object

>  <hydroph_interaction:ILE:82>  (6) 
hydroph_interaction:ILE:82    0
hydroph_interaction:ILE:82    0
Name: 4, dtype: object

>  <hydroph_interaction:PHE:83>  (6) 
hydroph_interaction:PHE:83    0
hydroph_interaction:PHE:83    0
Name: 4, dtype: object

>  <hbond:PHE:83>  (6) 
hbond:PHE:83    0
hbond:PHE:83    0
Name: 4, dtype: object

>  <halogenbond:PHE:83>  (6) 
halogenbond:PHE:83    0
halogenbond:PHE:83    0
Name: 4, dtype: object

>  <hydroph_interaction:VAL:84>  (6) 
hydroph_interaction:VAL:84    1
hydroph_interaction:VAL:84    1
Name: 4, dtype: object

>  <hydroph_interaction:GLU:85>  (6) 
hydroph_interaction:GLU:85    0
hydroph_interaction:GLU:85    0
Name: 4, dtype: object

>  <hbond:GLU:85>  (6) 
hbond:GLU:85    0
hbond:GLU:85    0
Name: 4, dtype: object

>  <halogenbond:GLU:85>  (6) 
halogenbond:GLU:85    0
halogenbond:GLU:85    0
Name: 4, dtype: object

>  <halogenbond:ALA:86>  (6) 
halogenbond:ALA:86    0
halogenbond:ALA:86    0
Name: 4, dtype: object

>  <hbond:SER:87>  (6) 
hbond:SER:87    2
hbond:SER:87    2
Name: 4, dtype: object

>  <halogenbond:SER:87>  (6) 
halogenbond:SER:87    1
halogenbond:SER:87    1
Name: 4, dtype: object

>  <hbond:GLU:88>  (6) 
hbond:GLU:88    0
hbond:GLU:88    0
Name: 4, dtype: object

>  <halogenbond:GLU:88>  (6) 
halogenbond:GLU:88    0
halogenbond:GLU:88    0
Name: 4, dtype: object

>  <hydroph_interaction:TYR:89>  (6) 
hydroph_interaction:TYR:89    0
hydroph_interaction:TYR:89    0
Name: 4, dtype: object

>  <pistack:TYR:89>  (6) 
pistack:TYR:89    0
pistack:TYR:89    0
Name: 4, dtype: object

>  <hbond:TYR:89>  (6) 
hbond:TYR:89    0
hbond:TYR:89    0
Name: 4, dtype: object

>  <hbond:TYR:90>  (6) 
hbond:TYR:90    0
hbond:TYR:90    0
Name: 4, dtype: object

>  <hydroph_interaction:TYR:90>  (6) 
hydroph_interaction:TYR:90    2
hydroph_interaction:TYR:90    2
Name: 4, dtype: object

>  <pistack:TYR:90>  (6) 
pistack:TYR:90    0
pistack:TYR:90    0
Name: 4, dtype: object

>  <hbond:ARG:93>  (6) 
hbond:ARG:93    0
hbond:ARG:93    0
Name: 4, dtype: object

>  <saltbridge:ARG:93>  (6) 
saltbridge:ARG:93    0
saltbridge:ARG:93    0
Name: 4, dtype: object

>  <hydroph_interaction:ARG:93>  (6) 
hydroph_interaction:ARG:93    0
hydroph_interaction:ARG:93    0
Name: 4, dtype: object

>  <halogenbond:GLN:95>  (6) 
halogenbond:GLN:95    0
halogenbond:GLN:95    0
Name: 4, dtype: object

>  <hbond:GLN:95>  (6) 
hbond:GLN:95    0
hbond:GLN:95    0
Name: 4, dtype: object

>  <hydroph_interaction:GLN:95>  (6) 
hydroph_interaction:GLN:95    1
hydroph_interaction:GLN:95    1
Name: 4, dtype: object

>  <hydroph_interaction:LEU:98>  (6) 
hydroph_interaction:LEU:98    0
hydroph_interaction:LEU:98    0
Name: 4, dtype: object

>  <hydroph_interaction:LEU:100>  (6) 
hydroph_interaction:LEU:100    0
hydroph_interaction:LEU:100    0
Name: 4, dtype: object

>  <hbond:SER:105>  (6) 
hbond:SER:105    0
hbond:SER:105    0
Name: 4, dtype: object

>  <halogenbond:SER:105>  (6) 
halogenbond:SER:105    0
halogenbond:SER:105    0
Name: 4, dtype: object

>  <hydroph_interaction:PRO:107>  (6) 
hydroph_interaction:PRO:107    1
hydroph_interaction:PRO:107    1
Name: 4, dtype: object

>  <hbond:PRO:107>  (6) 
hbond:PRO:107    0
hbond:PRO:107    0
Name: 4, dtype: object

>  <halogenbond:PRO:107>  (6) 
halogenbond:PRO:107    0
halogenbond:PRO:107    0
Name: 4, dtype: object

>  <hbond:ASP:109>  (6) 
hbond:ASP:109    0
hbond:ASP:109    0
Name: 4, dtype: object

>  <hbond:CYS:110>  (6) 
hbond:CYS:110    0
hbond:CYS:110    0
Name: 4, dtype: object

>  <halogenbond:CYS:110>  (6) 
halogenbond:CYS:110    0
halogenbond:CYS:110    0
Name: 4, dtype: object

>  <hydroph_interaction:VAL:124>  (6) 
hydroph_interaction:VAL:124    0
hydroph_interaction:VAL:124    0
Name: 4, dtype: object

>  <hbond:SER:125>  (6) 
hbond:SER:125    0
hbond:SER:125    0
Name: 4, dtype: object

>  <halogenbond:SER:125>  (6) 
halogenbond:SER:125    0
halogenbond:SER:125    0
Name: 4, dtype: object

>  <hydroph_interaction:THR:126>  (6) 
hydroph_interaction:THR:126    1
hydroph_interaction:THR:126    1
Name: 4, dtype: object

>  <hbond:THR:126>  (6) 
hbond:THR:126    0
hbond:THR:126    0
Name: 4, dtype: object

>  <halogenbond:THR:126>  (6) 
halogenbond:THR:126    0
halogenbond:THR:126    0
Name: 4, dtype: object

>  <hbond:GLY:127>  (6) 
hbond:GLY:127    0
hbond:GLY:127    0
Name: 4, dtype: object

>  <halogenbond:GLY:127>  (6) 
halogenbond:GLY:127    0
halogenbond:GLY:127    0
Name: 4, dtype: object

>  <hbond:GLY:128>  (6) 
hbond:GLY:128    0
hbond:GLY:128    0
Name: 4, dtype: object

>  <hbond:ASN:129>  (6) 
hbond:ASN:129    0
hbond:ASN:129    0
Name: 4, dtype: object

>  <hydroph_interaction:ASN:129>  (6) 
hydroph_interaction:ASN:129    0
hydroph_interaction:ASN:129    0
Name: 4, dtype: object

>  <halogenbond:ASN:129>  (6) 
halogenbond:ASN:129    0
halogenbond:ASN:129    0
Name: 4, dtype: object

>  <hydroph_interaction:LEU:131>  (6) 
hydroph_interaction:LEU:131    0
hydroph_interaction:LEU:131    0
Name: 4, dtype: object

>  <hbond:LEU:131>  (6) 
hbond:LEU:131    0
hbond:LEU:131    0
Name: 4, dtype: object

>  <halogenbond:LEU:131>  (6) 
halogenbond:LEU:131    0
halogenbond:LEU:131    0
Name: 4, dtype: object

>  <hbond:VAL:132>  (6) 
hbond:VAL:132    0
hbond:VAL:132    0
Name: 4, dtype: object

$$$$
Z4629053596
     RDKit          3D

 13 13  0  0  0  0  0  0  0  0999 V2000
   41.0453   12.2434   13.8426 C   0  0  0  0  0  0  0  0  0  0  0  0
   41.5556   13.4496   13.0810 C   0  0  0  0  0  0  0  0  0  0  0  0
   42.7481   13.7430   13.0093 O   0  0  0  0  0  0  0  0  0  0  0  0
   40.5669   14.1907   12.5027 N   0  0  0  0  0  0  0  0  0  0  0  0
   39.9103   13.8041   11.2988 C   0  0  0  0  0  0  0  0  0  0  0  0
   38.8880   12.6887   11.5568 C   0  0  0  0  0  0  0  0  0  0  0  0
   38.0899   13.1119   12.7820 C   0  0  0  0  0  0  0  0  0  0  0  0
   37.0395   12.0218   13.0698 C   0  0  0  0  0  0  0  0  0  0  0  0
   36.8621   10.7384   12.2428 C   0  0  0  0  0  0  0  0  0  0  0  0
   37.6592   10.5229   11.1867 C   0  0  0  0  0  0  0  0  0  0  0  0
   37.5209    9.4128   10.4488 O   0  0  0  0  0  0  0  0  0  0  0  0
   38.7158   11.5573   10.8446 C   0  0  0  0  0  0  0  0  0  0  0  0
   39.5695   11.2055    9.6143 C   0  0  0  0  0  0  0  0  0  0  0  0
  1  2  1  0
  2  3  2  0
  2  4  1  0
  4  5  1  0
  5  6  1  0
  6  7  2  0
  7  8  1  0
  8  9  2  0
  9 10  1  0
 10 11  1  0
 10 12  2  0
 12 13  1  0
 12  6  1  0
A    1
 C1 
A    2
 C2 
A    3
 O1 
A    4
 N1 
A    5
 C3 
A    6
 C4 
A    7
 C5 
A    8
 C6 
A    9
 C7 
A   10
 C8 
A   11
 O2 
A   12
 C9 
A   13
 C10
M  END
>  <ref_pdb>  (7) 
Ax0310a

>  <ref_mols>  (7) 
Ax0473a,Ax0812a

>  <original SMILES>  (7) 
CC(=O)NCc1cccc(O)c1C

>  <rationale>  (7) 
info hbond:L131+F83; hydroph_interaction:V84+I82+L100+L131+L98+N129; 

>  <intxn_cluster_10>  (7) 
4

>  <intxn_cluster_rank_10>  (7) 
1

>  <N_interactions>  (7) 
10

>  <∆∆G>  (7) 
-6.434812

>  <$/mg>  (7) 
163.0

>  <comRMSD>  (7) 
0.970945

>  <N_rotatable_bonds>  (7) 
5

>  <deep_P1_sidechain>  (7) 
False

>  <farthest_distance_to_substrate>  (7) 
4.883413

>  <hbond:SER:7>  (7) 
hbond:SER:7    0
hbond:SER:7    0
Name: 5, dtype: object

>  <hydroph_interaction:ASN:19>  (7) 
hydroph_interaction:ASN:19    0
hydroph_interaction:ASN:19    0
Name: 5, dtype: object

>  <halogenbond:ASN:19>  (7) 
halogenbond:ASN:19    0
halogenbond:ASN:19    0
Name: 5, dtype: object

>  <hbond:ARG:20>  (7) 
hbond:ARG:20    0
hbond:ARG:20    0
Name: 5, dtype: object

>  <hydroph_interaction:ARG:20>  (7) 
hydroph_interaction:ARG:20    0
hydroph_interaction:ARG:20    0
Name: 5, dtype: object

>  <hbond:HIS:21>  (7) 
hbond:HIS:21    0
hbond:HIS:21    0
Name: 5, dtype: object

>  <hydroph_interaction:HIS:21>  (7) 
hydroph_interaction:HIS:21    0
hydroph_interaction:HIS:21    0
Name: 5, dtype: object

>  <saltbridge:HIS:21>  (7) 
saltbridge:HIS:21    0
saltbridge:HIS:21    0
Name: 5, dtype: object

>  <pistack:HIS:21>  (7) 
pistack:HIS:21    0
pistack:HIS:21    0
Name: 5, dtype: object

>  <pication:HIS:21>  (7) 
pication:HIS:21    0
pication:HIS:21    0
Name: 5, dtype: object

>  <hydroph_interaction:LEU:22>  (7) 
hydroph_interaction:LEU:22    0
hydroph_interaction:LEU:22    0
Name: 5, dtype: object

>  <hbond:SER:36>  (7) 
hbond:SER:36    0
hbond:SER:36    0
Name: 5, dtype: object

>  <hbond:ASP:39>  (7) 
hbond:ASP:39    0
hbond:ASP:39    0
Name: 5, dtype: object

>  <saltbridge:ASP:39>  (7) 
saltbridge:ASP:39    0
saltbridge:ASP:39    0
Name: 5, dtype: object

>  <hydroph_interaction:ASP:39>  (7) 
hydroph_interaction:ASP:39    0
hydroph_interaction:ASP:39    0
Name: 5, dtype: object

>  <halogenbond:ASP:39>  (7) 
halogenbond:ASP:39    0
halogenbond:ASP:39    0
Name: 5, dtype: object

>  <hydroph_interaction:ILE:82>  (7) 
hydroph_interaction:ILE:82    1
hydroph_interaction:ILE:82    1
Name: 5, dtype: object

>  <hydroph_interaction:PHE:83>  (7) 
hydroph_interaction:PHE:83    0
hydroph_interaction:PHE:83    0
Name: 5, dtype: object

>  <hbond:PHE:83>  (7) 
hbond:PHE:83    1
hbond:PHE:83    1
Name: 5, dtype: object

>  <halogenbond:PHE:83>  (7) 
halogenbond:PHE:83    0
halogenbond:PHE:83    0
Name: 5, dtype: object

>  <hydroph_interaction:VAL:84>  (7) 
hydroph_interaction:VAL:84    1
hydroph_interaction:VAL:84    1
Name: 5, dtype: object

>  <hydroph_interaction:GLU:85>  (7) 
hydroph_interaction:GLU:85    0
hydroph_interaction:GLU:85    0
Name: 5, dtype: object

>  <hbond:GLU:85>  (7) 
hbond:GLU:85    0
hbond:GLU:85    0
Name: 5, dtype: object

>  <halogenbond:GLU:85>  (7) 
halogenbond:GLU:85    0
halogenbond:GLU:85    0
Name: 5, dtype: object

>  <halogenbond:ALA:86>  (7) 
halogenbond:ALA:86    0
halogenbond:ALA:86    0
Name: 5, dtype: object

>  <hbond:SER:87>  (7) 
hbond:SER:87    0
hbond:SER:87    0
Name: 5, dtype: object

>  <halogenbond:SER:87>  (7) 
halogenbond:SER:87    0
halogenbond:SER:87    0
Name: 5, dtype: object

>  <hbond:GLU:88>  (7) 
hbond:GLU:88    0
hbond:GLU:88    0
Name: 5, dtype: object

>  <halogenbond:GLU:88>  (7) 
halogenbond:GLU:88    0
halogenbond:GLU:88    0
Name: 5, dtype: object

>  <hydroph_interaction:TYR:89>  (7) 
hydroph_interaction:TYR:89    0
hydroph_interaction:TYR:89    0
Name: 5, dtype: object

>  <pistack:TYR:89>  (7) 
pistack:TYR:89    0
pistack:TYR:89    0
Name: 5, dtype: object

>  <hbond:TYR:89>  (7) 
hbond:TYR:89    0
hbond:TYR:89    0
Name: 5, dtype: object

>  <hbond:TYR:90>  (7) 
hbond:TYR:90    0
hbond:TYR:90    0
Name: 5, dtype: object

>  <hydroph_interaction:TYR:90>  (7) 
hydroph_interaction:TYR:90    0
hydroph_interaction:TYR:90    0
Name: 5, dtype: object

>  <pistack:TYR:90>  (7) 
pistack:TYR:90    0
pistack:TYR:90    0
Name: 5, dtype: object

>  <hbond:ARG:93>  (7) 
hbond:ARG:93    0
hbond:ARG:93    0
Name: 5, dtype: object

>  <saltbridge:ARG:93>  (7) 
saltbridge:ARG:93    0
saltbridge:ARG:93    0
Name: 5, dtype: object

>  <hydroph_interaction:ARG:93>  (7) 
hydroph_interaction:ARG:93    0
hydroph_interaction:ARG:93    0
Name: 5, dtype: object

>  <halogenbond:GLN:95>  (7) 
halogenbond:GLN:95    0
halogenbond:GLN:95    0
Name: 5, dtype: object

>  <hbond:GLN:95>  (7) 
hbond:GLN:95    0
hbond:GLN:95    0
Name: 5, dtype: object

>  <hydroph_interaction:GLN:95>  (7) 
hydroph_interaction:GLN:95    0
hydroph_interaction:GLN:95    0
Name: 5, dtype: object

>  <hydroph_interaction:LEU:98>  (7) 
hydroph_interaction:LEU:98    1
hydroph_interaction:LEU:98    1
Name: 5, dtype: object

>  <hydroph_interaction:LEU:100>  (7) 
hydroph_interaction:LEU:100    2
hydroph_interaction:LEU:100    2
Name: 5, dtype: object

>  <hbond:SER:105>  (7) 
hbond:SER:105    0
hbond:SER:105    0
Name: 5, dtype: object

>  <halogenbond:SER:105>  (7) 
halogenbond:SER:105    0
halogenbond:SER:105    0
Name: 5, dtype: object

>  <hydroph_interaction:PRO:107>  (7) 
hydroph_interaction:PRO:107    0
hydroph_interaction:PRO:107    0
Name: 5, dtype: object

>  <hbond:PRO:107>  (7) 
hbond:PRO:107    0
hbond:PRO:107    0
Name: 5, dtype: object

>  <halogenbond:PRO:107>  (7) 
halogenbond:PRO:107    0
halogenbond:PRO:107    0
Name: 5, dtype: object

>  <hbond:ASP:109>  (7) 
hbond:ASP:109    0
hbond:ASP:109    0
Name: 5, dtype: object

>  <hbond:CYS:110>  (7) 
hbond:CYS:110    0
hbond:CYS:110    0
Name: 5, dtype: object

>  <halogenbond:CYS:110>  (7) 
halogenbond:CYS:110    0
halogenbond:CYS:110    0
Name: 5, dtype: object

>  <hydroph_interaction:VAL:124>  (7) 
hydroph_interaction:VAL:124    0
hydroph_interaction:VAL:124    0
Name: 5, dtype: object

>  <hbond:SER:125>  (7) 
hbond:SER:125    0
hbond:SER:125    0
Name: 5, dtype: object

>  <halogenbond:SER:125>  (7) 
halogenbond:SER:125    0
halogenbond:SER:125    0
Name: 5, dtype: object

>  <hydroph_interaction:THR:126>  (7) 
hydroph_interaction:THR:126    0
hydroph_interaction:THR:126    0
Name: 5, dtype: object

>  <hbond:THR:126>  (7) 
hbond:THR:126    0
hbond:THR:126    0
Name: 5, dtype: object

>  <halogenbond:THR:126>  (7) 
halogenbond:THR:126    0
halogenbond:THR:126    0
Name: 5, dtype: object

>  <hbond:GLY:127>  (7) 
hbond:GLY:127    0
hbond:GLY:127    0
Name: 5, dtype: object

>  <halogenbond:GLY:127>  (7) 
halogenbond:GLY:127    0
halogenbond:GLY:127    0
Name: 5, dtype: object

>  <hbond:GLY:128>  (7) 
hbond:GLY:128    0
hbond:GLY:128    0
Name: 5, dtype: object

>  <hbond:ASN:129>  (7) 
hbond:ASN:129    0
hbond:ASN:129    0
Name: 5, dtype: object

>  <hydroph_interaction:ASN:129>  (7) 
hydroph_interaction:ASN:129    1
hydroph_interaction:ASN:129    1
Name: 5, dtype: object

>  <halogenbond:ASN:129>  (7) 
halogenbond:ASN:129    0
halogenbond:ASN:129    0
Name: 5, dtype: object

>  <hydroph_interaction:LEU:131>  (7) 
hydroph_interaction:LEU:131    1
hydroph_interaction:LEU:131    1
Name: 5, dtype: object

>  <hbond:LEU:131>  (7) 
hbond:LEU:131    2
hbond:LEU:131    2
Name: 5, dtype: object

>  <halogenbond:LEU:131>  (7) 
halogenbond:LEU:131    0
halogenbond:LEU:131    0
Name: 5, dtype: object

>  <hbond:VAL:132>  (7) 
hbond:VAL:132    0
hbond:VAL:132    0
Name: 5, dtype: object

$$$$
PV_002917131396
     RDKit          3D

 14 15  0  0  0  0  0  0  0  0999 V2000
   30.2393    9.0954    8.8903 C   0  0  0  0  0  0  0  0  0  0  0  0
   31.1324    9.8020    7.8990 C   0  0  0  0  0  0  0  0  0  0  0  0
   31.9179    8.7559    7.1960 C   0  0  0  0  0  0  0  0  0  0  0  0
   32.8252    9.1038    6.2354 C   0  0  0  0  0  0  0  0  0  0  0  0
   32.9682   10.4230    5.9589 C   0  0  0  0  0  0  0  0  0  0  0  0
   33.8171   10.9582    5.0373 C   0  0  0  0  0  0  0  0  0  0  0  0
   33.6912   12.3274    5.0325 C   0  0  0  0  0  0  0  0  0  0  0  0
   32.7315   12.6091    5.9907 N   0  0  0  0  0  0  0  0  0  0  0  0
   32.2628   11.4355    6.5836 C   0  0  0  0  0  0  0  0  0  0  0  0
   31.3156   11.1771    7.5828 C   0  0  0  0  0  0  0  0  0  0  0  0
   30.6587   12.3403    8.1684 C   0  0  0  0  0  0  0  0  0  0  0  0
   31.4478   13.5012    8.6680 C   0  0  0  0  0  0  0  0  0  0  0  0
   30.8231   14.5590    9.2171 F   0  0  0  0  0  0  0  0  0  0  0  0
   32.7921   13.5094    8.5854 F   0  0  0  0  0  0  0  0  0  0  0  0
  1  2  1  0
  2  3  2  0
  3  4  1  0
  4  5  2  0
  5  6  1  0
  6  7  2  0
  7  8  1  0
  8  9  1  0
  9 10  2  0
 10 11  1  0
 11 12  2  3
 12 13  1  0
 12 14  1  0
 10  2  1  0
  9  5  1  0
A    1
 C1 
A    2
 C2 
A    3
 C3 
A    4
 C4 
A    5
 C5 
A    6
 C6 
A    7
 C7 
A    8
 N1 
A    9
 C8 
A   10
 C9 
A   11
 C10
A   12
 C11
A   13
 F1 
A   14
 F2 
M  END
>  <ref_pdb>  (8) 
Ax0310a

>  <ref_mols>  (8) 
Ax0566a,Ax0375a

>  <original SMILES>  (8) 
Cc1ccc2cc[nH]c2c1C=C(F)F

>  <rationale>  (8) 
info halogenbond:G127; hydroph_interaction:P107+V124; 

>  <intxn_cluster_10>  (8) 
7

>  <intxn_cluster_rank_10>  (8) 
1

>  <N_interactions>  (8) 
3

>  <∆∆G>  (8) 
-6.802846

>  <$/mg>  (8) 
244.5

>  <comRMSD>  (8) 
0.737362

>  <N_rotatable_bonds>  (8) 
2

>  <deep_P1_sidechain>  (8) 
True

>  <farthest_distance_to_substrate>  (8) 
2.865051

>  <hbond:SER:7>  (8) 
hbond:SER:7    0
hbond:SER:7    0
Name: 6, dtype: object

>  <hydroph_interaction:ASN:19>  (8) 
hydroph_interaction:ASN:19    0
hydroph_interaction:ASN:19    0
Name: 6, dtype: object

>  <halogenbond:ASN:19>  (8) 
halogenbond:ASN:19    0
halogenbond:ASN:19    0
Name: 6, dtype: object

>  <hbond:ARG:20>  (8) 
hbond:ARG:20    0
hbond:ARG:20    0
Name: 6, dtype: object

>  <hydroph_interaction:ARG:20>  (8) 
hydroph_interaction:ARG:20    0
hydroph_interaction:ARG:20    0
Name: 6, dtype: object

>  <hbond:HIS:21>  (8) 
hbond:HIS:21    0
hbond:HIS:21    0
Name: 6, dtype: object

>  <hydroph_interaction:HIS:21>  (8) 
hydroph_interaction:HIS:21    0
hydroph_interaction:HIS:21    0
Name: 6, dtype: object

>  <saltbridge:HIS:21>  (8) 
saltbridge:HIS:21    0
saltbridge:HIS:21    0
Name: 6, dtype: object

>  <pistack:HIS:21>  (8) 
pistack:HIS:21    0
pistack:HIS:21    0
Name: 6, dtype: object

>  <pication:HIS:21>  (8) 
pication:HIS:21    0
pication:HIS:21    0
Name: 6, dtype: object

>  <hydroph_interaction:LEU:22>  (8) 
hydroph_interaction:LEU:22    0
hydroph_interaction:LEU:22    0
Name: 6, dtype: object

>  <hbond:SER:36>  (8) 
hbond:SER:36    0
hbond:SER:36    0
Name: 6, dtype: object

>  <hbond:ASP:39>  (8) 
hbond:ASP:39    0
hbond:ASP:39    0
Name: 6, dtype: object

>  <saltbridge:ASP:39>  (8) 
saltbridge:ASP:39    0
saltbridge:ASP:39    0
Name: 6, dtype: object

>  <hydroph_interaction:ASP:39>  (8) 
hydroph_interaction:ASP:39    0
hydroph_interaction:ASP:39    0
Name: 6, dtype: object

>  <halogenbond:ASP:39>  (8) 
halogenbond:ASP:39    0
halogenbond:ASP:39    0
Name: 6, dtype: object

>  <hydroph_interaction:ILE:82>  (8) 
hydroph_interaction:ILE:82    0
hydroph_interaction:ILE:82    0
Name: 6, dtype: object

>  <hydroph_interaction:PHE:83>  (8) 
hydroph_interaction:PHE:83    0
hydroph_interaction:PHE:83    0
Name: 6, dtype: object

>  <hbond:PHE:83>  (8) 
hbond:PHE:83    0
hbond:PHE:83    0
Name: 6, dtype: object

>  <halogenbond:PHE:83>  (8) 
halogenbond:PHE:83    0
halogenbond:PHE:83    0
Name: 6, dtype: object

>  <hydroph_interaction:VAL:84>  (8) 
hydroph_interaction:VAL:84    0
hydroph_interaction:VAL:84    0
Name: 6, dtype: object

>  <hydroph_interaction:GLU:85>  (8) 
hydroph_interaction:GLU:85    0
hydroph_interaction:GLU:85    0
Name: 6, dtype: object

>  <hbond:GLU:85>  (8) 
hbond:GLU:85    0
hbond:GLU:85    0
Name: 6, dtype: object

>  <halogenbond:GLU:85>  (8) 
halogenbond:GLU:85    0
halogenbond:GLU:85    0
Name: 6, dtype: object

>  <halogenbond:ALA:86>  (8) 
halogenbond:ALA:86    0
halogenbond:ALA:86    0
Name: 6, dtype: object

>  <hbond:SER:87>  (8) 
hbond:SER:87    0
hbond:SER:87    0
Name: 6, dtype: object

>  <halogenbond:SER:87>  (8) 
halogenbond:SER:87    0
halogenbond:SER:87    0
Name: 6, dtype: object

>  <hbond:GLU:88>  (8) 
hbond:GLU:88    0
hbond:GLU:88    0
Name: 6, dtype: object

>  <halogenbond:GLU:88>  (8) 
halogenbond:GLU:88    0
halogenbond:GLU:88    0
Name: 6, dtype: object

>  <hydroph_interaction:TYR:89>  (8) 
hydroph_interaction:TYR:89    0
hydroph_interaction:TYR:89    0
Name: 6, dtype: object

>  <pistack:TYR:89>  (8) 
pistack:TYR:89    0
pistack:TYR:89    0
Name: 6, dtype: object

>  <hbond:TYR:89>  (8) 
hbond:TYR:89    0
hbond:TYR:89    0
Name: 6, dtype: object

>  <hbond:TYR:90>  (8) 
hbond:TYR:90    0
hbond:TYR:90    0
Name: 6, dtype: object

>  <hydroph_interaction:TYR:90>  (8) 
hydroph_interaction:TYR:90    0
hydroph_interaction:TYR:90    0
Name: 6, dtype: object

>  <pistack:TYR:90>  (8) 
pistack:TYR:90    0
pistack:TYR:90    0
Name: 6, dtype: object

>  <hbond:ARG:93>  (8) 
hbond:ARG:93    0
hbond:ARG:93    0
Name: 6, dtype: object

>  <saltbridge:ARG:93>  (8) 
saltbridge:ARG:93    0
saltbridge:ARG:93    0
Name: 6, dtype: object

>  <hydroph_interaction:ARG:93>  (8) 
hydroph_interaction:ARG:93    0
hydroph_interaction:ARG:93    0
Name: 6, dtype: object

>  <halogenbond:GLN:95>  (8) 
halogenbond:GLN:95    0
halogenbond:GLN:95    0
Name: 6, dtype: object

>  <hbond:GLN:95>  (8) 
hbond:GLN:95    0
hbond:GLN:95    0
Name: 6, dtype: object

>  <hydroph_interaction:GLN:95>  (8) 
hydroph_interaction:GLN:95    0
hydroph_interaction:GLN:95    0
Name: 6, dtype: object

>  <hydroph_interaction:LEU:98>  (8) 
hydroph_interaction:LEU:98    0
hydroph_interaction:LEU:98    0
Name: 6, dtype: object

>  <hydroph_interaction:LEU:100>  (8) 
hydroph_interaction:LEU:100    0
hydroph_interaction:LEU:100    0
Name: 6, dtype: object

>  <hbond:SER:105>  (8) 
hbond:SER:105    0
hbond:SER:105    0
Name: 6, dtype: object

>  <halogenbond:SER:105>  (8) 
halogenbond:SER:105    0
halogenbond:SER:105    0
Name: 6, dtype: object

>  <hydroph_interaction:PRO:107>  (8) 
hydroph_interaction:PRO:107    1
hydroph_interaction:PRO:107    1
Name: 6, dtype: object

>  <hbond:PRO:107>  (8) 
hbond:PRO:107    0
hbond:PRO:107    0
Name: 6, dtype: object

>  <halogenbond:PRO:107>  (8) 
halogenbond:PRO:107    0
halogenbond:PRO:107    0
Name: 6, dtype: object

>  <hbond:ASP:109>  (8) 
hbond:ASP:109    0
hbond:ASP:109    0
Name: 6, dtype: object

>  <hbond:CYS:110>  (8) 
hbond:CYS:110    0
hbond:CYS:110    0
Name: 6, dtype: object

>  <halogenbond:CYS:110>  (8) 
halogenbond:CYS:110    0
halogenbond:CYS:110    0
Name: 6, dtype: object

>  <hydroph_interaction:VAL:124>  (8) 
hydroph_interaction:VAL:124    1
hydroph_interaction:VAL:124    1
Name: 6, dtype: object

>  <hbond:SER:125>  (8) 
hbond:SER:125    0
hbond:SER:125    0
Name: 6, dtype: object

>  <halogenbond:SER:125>  (8) 
halogenbond:SER:125    0
halogenbond:SER:125    0
Name: 6, dtype: object

>  <hydroph_interaction:THR:126>  (8) 
hydroph_interaction:THR:126    0
hydroph_interaction:THR:126    0
Name: 6, dtype: object

>  <hbond:THR:126>  (8) 
hbond:THR:126    0
hbond:THR:126    0
Name: 6, dtype: object

>  <halogenbond:THR:126>  (8) 
halogenbond:THR:126    0
halogenbond:THR:126    0
Name: 6, dtype: object

>  <hbond:GLY:127>  (8) 
hbond:GLY:127    0
hbond:GLY:127    0
Name: 6, dtype: object

>  <halogenbond:GLY:127>  (8) 
halogenbond:GLY:127    1
halogenbond:GLY:127    1
Name: 6, dtype: object

>  <hbond:GLY:128>  (8) 
hbond:GLY:128    0
hbond:GLY:128    0
Name: 6, dtype: object

>  <hbond:ASN:129>  (8) 
hbond:ASN:129    0
hbond:ASN:129    0
Name: 6, dtype: object

>  <hydroph_interaction:ASN:129>  (8) 
hydroph_interaction:ASN:129    0
hydroph_interaction:ASN:129    0
Name: 6, dtype: object

>  <halogenbond:ASN:129>  (8) 
halogenbond:ASN:129    0
halogenbond:ASN:129    0
Name: 6, dtype: object

>  <hydroph_interaction:LEU:131>  (8) 
hydroph_interaction:LEU:131    0
hydroph_interaction:LEU:131    0
Name: 6, dtype: object

>  <hbond:LEU:131>  (8) 
hbond:LEU:131    0
hbond:LEU:131    0
Name: 6, dtype: object

>  <halogenbond:LEU:131>  (8) 
halogenbond:LEU:131    0
halogenbond:LEU:131    0
Name: 6, dtype: object

>  <hbond:VAL:132>  (8) 
hbond:VAL:132    0
hbond:VAL:132    0
Name: 6, dtype: object

$$$$
Z5576958405
     RDKit          3D

 19 20  0  0  0  0  0  0  0  0999 V2000
   24.7854   12.7619    8.4686 C   0  0  0  0  0  0  0  0  0  0  0  0
   25.7467   12.8775    7.3272 C   0  0  0  0  0  0  0  0  0  0  0  0
   25.8657   11.6530    6.4597 C   0  0  0  0  0  0  0  0  0  0  0  0
   26.9516   13.3105    7.9618 N   0  0  0  0  0  0  0  0  0  0  0  0
   27.0544   13.8551    9.2138 C   0  0  0  0  0  0  0  0  0  0  0  0
   28.3804   14.0900    9.3721 C   0  0  0  0  0  0  0  0  0  0  0  0
   29.3633   14.8926   10.9676 I   0  0  0  0  0  0  0  0  0  0  0  0
   28.9720   13.6616    8.2020 C   0  0  0  0  0  0  0  0  0  0  0  0
   30.2892   13.7141    7.9866 N   0  0  0  0  0  0  0  0  0  0  0  0
   30.8206   12.9842    6.9779 C   0  0  0  0  0  0  0  0  0  0  0  0
   30.7181   13.2051    5.7864 O   0  0  0  0  0  0  0  0  0  0  0  0
   31.5654   11.8034    7.5256 C   0  0  2  0  0  0  0  0  0  0  0  0
   32.3761   11.0197    6.5079 C   0  0  0  0  0  0  0  0  0  0  0  0
   32.1828    9.5926    6.9261 C   0  0  0  0  0  0  0  0  0  0  0  0
   32.8993    8.6829    6.5666 O   0  0  0  0  0  0  0  0  0  0  0  0
   31.0723    9.5131    7.7625 N   0  0  0  0  0  0  0  0  0  0  0  0
   30.8181    8.4267    8.6776 C   0  0  0  0  0  0  0  0  0  0  0  0
   30.5658   10.8091    8.0767 C   0  0  0  0  0  0  0  0  0  0  0  0
   28.1033   13.1867    7.3284 N   0  0  0  0  0  0  0  0  0  0  0  0
  1  2  1  0
  2  3  1  0
  2  4  1  0
  4  5  1  0
  5  6  2  0
  6  7  1  0
  6  8  1  0
  8  9  1  0
  9 10  1  0
 10 11  2  0
 12 10  1  6
 12 13  1  0
 13 14  1  0
 14 15  2  0
 14 16  1  0
 16 17  1  0
 16 18  1  0
  8 19  2  0
 19  4  1  0
 18 12  1  0
A    1
 C1 
A    2
 C2 
A    3
 C3 
A    4
 N1 
A    5
 C4 
A    6
 C5 
A    7
 I1 
A    8
 C6 
A    9
 N2 
A   10
 C7 
A   11
 O1 
A   12
 C8 
A   13
 C9 
A   14
 C10
A   15
 O2 
A   16
 N3 
A   17
 C11
A   18
 C12
A   19
 N4 
M  END
>  <ref_pdb>  (9) 
Ax0310a

>  <ref_mols>  (9) 
Ax0451a,Ax0416a

>  <original SMILES>  (9) 
CC(C)n1cc(I)c(NC(=O)C2CC(=O)N(C)C2)n1

>  <rationale>  (9) 
info halogenbond:Q95; hbond:S87; hydroph_interaction:P107+H21+L22; 

>  <intxn_cluster_10>  (9) 
2

>  <intxn_cluster_rank_10>  (9) 
1

>  <N_interactions>  (9) 
6

>  <∆∆G>  (9) 
-10.08288

>  <$/mg>  (9) 
0.0

>  <comRMSD>  (9) 
0.788798

>  <N_rotatable_bonds>  (9) 
6

>  <deep_P1_sidechain>  (9) 
False

>  <farthest_distance_to_substrate>  (9) 
3.124277

>  <hbond:SER:7>  (9) 
hbond:SER:7    0
hbond:SER:7    0
Name: 7, dtype: object

>  <hydroph_interaction:ASN:19>  (9) 
hydroph_interaction:ASN:19    0
hydroph_interaction:ASN:19    0
Name: 7, dtype: object

>  <halogenbond:ASN:19>  (9) 
halogenbond:ASN:19    0
halogenbond:ASN:19    0
Name: 7, dtype: object

>  <hbond:ARG:20>  (9) 
hbond:ARG:20    0
hbond:ARG:20    0
Name: 7, dtype: object

>  <hydroph_interaction:ARG:20>  (9) 
hydroph_interaction:ARG:20    0
hydroph_interaction:ARG:20    0
Name: 7, dtype: object

>  <hbond:HIS:21>  (9) 
hbond:HIS:21    0
hbond:HIS:21    0
Name: 7, dtype: object

>  <hydroph_interaction:HIS:21>  (9) 
hydroph_interaction:HIS:21    1
hydroph_interaction:HIS:21    1
Name: 7, dtype: object

>  <saltbridge:HIS:21>  (9) 
saltbridge:HIS:21    0
saltbridge:HIS:21    0
Name: 7, dtype: object

>  <pistack:HIS:21>  (9) 
pistack:HIS:21    0
pistack:HIS:21    0
Name: 7, dtype: object

>  <pication:HIS:21>  (9) 
pication:HIS:21    0
pication:HIS:21    0
Name: 7, dtype: object

>  <hydroph_interaction:LEU:22>  (9) 
hydroph_interaction:LEU:22    1
hydroph_interaction:LEU:22    1
Name: 7, dtype: object

>  <hbond:SER:36>  (9) 
hbond:SER:36    0
hbond:SER:36    0
Name: 7, dtype: object

>  <hbond:ASP:39>  (9) 
hbond:ASP:39    0
hbond:ASP:39    0
Name: 7, dtype: object

>  <saltbridge:ASP:39>  (9) 
saltbridge:ASP:39    0
saltbridge:ASP:39    0
Name: 7, dtype: object

>  <hydroph_interaction:ASP:39>  (9) 
hydroph_interaction:ASP:39    0
hydroph_interaction:ASP:39    0
Name: 7, dtype: object

>  <halogenbond:ASP:39>  (9) 
halogenbond:ASP:39    0
halogenbond:ASP:39    0
Name: 7, dtype: object

>  <hydroph_interaction:ILE:82>  (9) 
hydroph_interaction:ILE:82    0
hydroph_interaction:ILE:82    0
Name: 7, dtype: object

>  <hydroph_interaction:PHE:83>  (9) 
hydroph_interaction:PHE:83    0
hydroph_interaction:PHE:83    0
Name: 7, dtype: object

>  <hbond:PHE:83>  (9) 
hbond:PHE:83    0
hbond:PHE:83    0
Name: 7, dtype: object

>  <halogenbond:PHE:83>  (9) 
halogenbond:PHE:83    0
halogenbond:PHE:83    0
Name: 7, dtype: object

>  <hydroph_interaction:VAL:84>  (9) 
hydroph_interaction:VAL:84    0
hydroph_interaction:VAL:84    0
Name: 7, dtype: object

>  <hydroph_interaction:GLU:85>  (9) 
hydroph_interaction:GLU:85    0
hydroph_interaction:GLU:85    0
Name: 7, dtype: object

>  <hbond:GLU:85>  (9) 
hbond:GLU:85    0
hbond:GLU:85    0
Name: 7, dtype: object

>  <halogenbond:GLU:85>  (9) 
halogenbond:GLU:85    0
halogenbond:GLU:85    0
Name: 7, dtype: object

>  <halogenbond:ALA:86>  (9) 
halogenbond:ALA:86    0
halogenbond:ALA:86    0
Name: 7, dtype: object

>  <hbond:SER:87>  (9) 
hbond:SER:87    2
hbond:SER:87    2
Name: 7, dtype: object

>  <halogenbond:SER:87>  (9) 
halogenbond:SER:87    0
halogenbond:SER:87    0
Name: 7, dtype: object

>  <hbond:GLU:88>  (9) 
hbond:GLU:88    0
hbond:GLU:88    0
Name: 7, dtype: object

>  <halogenbond:GLU:88>  (9) 
halogenbond:GLU:88    0
halogenbond:GLU:88    0
Name: 7, dtype: object

>  <hydroph_interaction:TYR:89>  (9) 
hydroph_interaction:TYR:89    0
hydroph_interaction:TYR:89    0
Name: 7, dtype: object

>  <pistack:TYR:89>  (9) 
pistack:TYR:89    0
pistack:TYR:89    0
Name: 7, dtype: object

>  <hbond:TYR:89>  (9) 
hbond:TYR:89    0
hbond:TYR:89    0
Name: 7, dtype: object

>  <hbond:TYR:90>  (9) 
hbond:TYR:90    0
hbond:TYR:90    0
Name: 7, dtype: object

>  <hydroph_interaction:TYR:90>  (9) 
hydroph_interaction:TYR:90    0
hydroph_interaction:TYR:90    0
Name: 7, dtype: object

>  <pistack:TYR:90>  (9) 
pistack:TYR:90    0
pistack:TYR:90    0
Name: 7, dtype: object

>  <hbond:ARG:93>  (9) 
hbond:ARG:93    0
hbond:ARG:93    0
Name: 7, dtype: object

>  <saltbridge:ARG:93>  (9) 
saltbridge:ARG:93    0
saltbridge:ARG:93    0
Name: 7, dtype: object

>  <hydroph_interaction:ARG:93>  (9) 
hydroph_interaction:ARG:93    0
hydroph_interaction:ARG:93    0
Name: 7, dtype: object

>  <halogenbond:GLN:95>  (9) 
halogenbond:GLN:95    1
halogenbond:GLN:95    1
Name: 7, dtype: object

>  <hbond:GLN:95>  (9) 
hbond:GLN:95    0
hbond:GLN:95    0
Name: 7, dtype: object

>  <hydroph_interaction:GLN:95>  (9) 
hydroph_interaction:GLN:95    0
hydroph_interaction:GLN:95    0
Name: 7, dtype: object

>  <hydroph_interaction:LEU:98>  (9) 
hydroph_interaction:LEU:98    0
hydroph_interaction:LEU:98    0
Name: 7, dtype: object

>  <hydroph_interaction:LEU:100>  (9) 
hydroph_interaction:LEU:100    0
hydroph_interaction:LEU:100    0
Name: 7, dtype: object

>  <hbond:SER:105>  (9) 
hbond:SER:105    0
hbond:SER:105    0
Name: 7, dtype: object

>  <halogenbond:SER:105>  (9) 
halogenbond:SER:105    0
halogenbond:SER:105    0
Name: 7, dtype: object

>  <hydroph_interaction:PRO:107>  (9) 
hydroph_interaction:PRO:107    1
hydroph_interaction:PRO:107    1
Name: 7, dtype: object

>  <hbond:PRO:107>  (9) 
hbond:PRO:107    0
hbond:PRO:107    0
Name: 7, dtype: object

>  <halogenbond:PRO:107>  (9) 
halogenbond:PRO:107    0
halogenbond:PRO:107    0
Name: 7, dtype: object

>  <hbond:ASP:109>  (9) 
hbond:ASP:109    0
hbond:ASP:109    0
Name: 7, dtype: object

>  <hbond:CYS:110>  (9) 
hbond:CYS:110    0
hbond:CYS:110    0
Name: 7, dtype: object

>  <halogenbond:CYS:110>  (9) 
halogenbond:CYS:110    0
halogenbond:CYS:110    0
Name: 7, dtype: object

>  <hydroph_interaction:VAL:124>  (9) 
hydroph_interaction:VAL:124    0
hydroph_interaction:VAL:124    0
Name: 7, dtype: object

>  <hbond:SER:125>  (9) 
hbond:SER:125    0
hbond:SER:125    0
Name: 7, dtype: object

>  <halogenbond:SER:125>  (9) 
halogenbond:SER:125    0
halogenbond:SER:125    0
Name: 7, dtype: object

>  <hydroph_interaction:THR:126>  (9) 
hydroph_interaction:THR:126    0
hydroph_interaction:THR:126    0
Name: 7, dtype: object

>  <hbond:THR:126>  (9) 
hbond:THR:126    0
hbond:THR:126    0
Name: 7, dtype: object

>  <halogenbond:THR:126>  (9) 
halogenbond:THR:126    0
halogenbond:THR:126    0
Name: 7, dtype: object

>  <hbond:GLY:127>  (9) 
hbond:GLY:127    0
hbond:GLY:127    0
Name: 7, dtype: object

>  <halogenbond:GLY:127>  (9) 
halogenbond:GLY:127    0
halogenbond:GLY:127    0
Name: 7, dtype: object

>  <hbond:GLY:128>  (9) 
hbond:GLY:128    0
hbond:GLY:128    0
Name: 7, dtype: object

>  <hbond:ASN:129>  (9) 
hbond:ASN:129    0
hbond:ASN:129    0
Name: 7, dtype: object

>  <hydroph_interaction:ASN:129>  (9) 
hydroph_interaction:ASN:129    0
hydroph_interaction:ASN:129    0
Name: 7, dtype: object

>  <halogenbond:ASN:129>  (9) 
halogenbond:ASN:129    0
halogenbond:ASN:129    0
Name: 7, dtype: object

>  <hydroph_interaction:LEU:131>  (9) 
hydroph_interaction:LEU:131    0
hydroph_interaction:LEU:131    0
Name: 7, dtype: object

>  <hbond:LEU:131>  (9) 
hbond:LEU:131    0
hbond:LEU:131    0
Name: 7, dtype: object

>  <halogenbond:LEU:131>  (9) 
halogenbond:LEU:131    0
halogenbond:LEU:131    0
Name: 7, dtype: object

>  <hbond:VAL:132>  (9) 
hbond:VAL:132    0
hbond:VAL:132    0
Name: 7, dtype: object

$$$$
Z1148014024
     RDKit          3D

 20 21  0  0  0  0  0  0  0  0999 V2000
   33.5457    9.2815    5.9035 C   0  0  0  0  0  0  0  0  0  0  0  0
   32.4248    9.8506    6.6653 C   0  0  0  0  0  0  0  0  0  0  0  0
   32.0509   11.1430    6.6646 C   0  0  0  0  0  0  0  0  0  0  0  0
   30.8559   11.3020    7.5625 C   0  0  0  0  0  0  0  0  0  0  0  0
   30.3766   12.6970    7.6022 C   0  0  0  0  0  0  0  0  0  0  0  0
   30.7875   13.4706    6.7591 O   0  0  0  0  0  0  0  0  0  0  0  0
   29.4523   13.0705    8.5412 N   0  0  0  0  0  0  0  0  0  0  0  0
   28.2983   13.5862    8.0102 C   0  0  0  0  0  0  0  0  0  0  0  0
   27.2291   13.0331    7.3761 C   0  0  0  0  0  0  0  0  0  0  0  0
   27.2196   11.5902    7.2146 C   0  0  0  0  0  0  0  0  0  0  0  0
   26.3227   13.9331    6.9832 N   0  0  0  0  0  0  0  0  0  0  0  0
   25.0539   13.7474    6.2564 C   0  0  0  0  0  0  0  0  0  0  0  0
   24.6638   12.4425    6.2072 F   0  0  0  0  0  0  0  0  0  0  0  0
   25.1348   14.1370    4.9554 F   0  0  0  0  0  0  0  0  0  0  0  0
   26.7599   15.1231    7.3687 N   0  0  0  0  0  0  0  0  0  0  0  0
   27.9347   14.9399    7.9759 C   0  0  0  0  0  0  0  0  0  0  0  0
   28.6732   16.1417    8.5085 C   0  0  0  0  0  0  0  0  0  0  0  0
   30.5896   10.0213    8.0583 C   0  0  0  0  0  0  0  0  0  0  0  0
   29.5699    9.4350    8.9582 C   0  0  0  0  0  0  0  0  0  0  0  0
   31.5518    9.1682    7.5131 N   0  0  0  0  0  0  0  0  0  0  0  0
  1  2  1  0
  2  3  2  0
  3  4  1  0
  4  5  1  0
  5  6  2  0
  5  7  1  0
  7  8  1  0
  8  9  2  0
  9 10  1  0
  9 11  1  0
 11 12  1  0
 12 13  1  0
 12 14  1  0
 11 15  1  0
 15 16  2  0
 16 17  1  0
  4 18  2  0
 18 19  1  0
 18 20  1  0
 20  2  1  0
 16  8  1  0
A    1
 C1 
A    2
 C2 
A    3
 C3 
A    4
 C4 
A    5
 C5 
A    6
 O1 
A    7
 N1 
A    8
 C6 
A    9
 C7 
A   10
 C8 
A   11
 N2 
A   12
 C9 
A   13
 F1 
A   14
 F2 
A   15
 N3 
A   16
 C10
A   17
 C11
A   18
 C12
A   19
 C13
A   20
 N4 
M  END
>  <ref_pdb>  (10) 
Ax0310a

>  <ref_mols>  (10) 
Ax0451a,Ax0416a

>  <original SMILES>  (10) 
Cc1cc(C(=O)Nc2c(C)nn(C(F)F)c2C)c(C)[nH]1

>  <rationale>  (10) 
info halogenbond:C110; hbond:S125+S87; hydroph_interaction:P107+V124+Y89+Y90; pistack:H21; 

>  <intxn_cluster_10>  (10) 
4

>  <intxn_cluster_rank_10>  (10) 
1

>  <N_interactions>  (10) 
9

>  <∆∆G>  (10) 
-10.874713

>  <$/mg>  (10) 
163.0

>  <comRMSD>  (10) 
0.754649

>  <N_rotatable_bonds>  (10) 
7

>  <deep_P1_sidechain>  (10) 
True

>  <farthest_distance_to_substrate>  (10) 
2.703884

>  <hbond:SER:7>  (10) 
hbond:SER:7    0
hbond:SER:7    0
Name: 8, dtype: object

>  <hydroph_interaction:ASN:19>  (10) 
hydroph_interaction:ASN:19    0
hydroph_interaction:ASN:19    0
Name: 8, dtype: object

>  <halogenbond:ASN:19>  (10) 
halogenbond:ASN:19    0
halogenbond:ASN:19    0
Name: 8, dtype: object

>  <hbond:ARG:20>  (10) 
hbond:ARG:20    0
hbond:ARG:20    0
Name: 8, dtype: object

>  <hydroph_interaction:ARG:20>  (10) 
hydroph_interaction:ARG:20    0
hydroph_interaction:ARG:20    0
Name: 8, dtype: object

>  <hbond:HIS:21>  (10) 
hbond:HIS:21    0
hbond:HIS:21    0
Name: 8, dtype: object

>  <hydroph_interaction:HIS:21>  (10) 
hydroph_interaction:HIS:21    0
hydroph_interaction:HIS:21    0
Name: 8, dtype: object

>  <saltbridge:HIS:21>  (10) 
saltbridge:HIS:21    0
saltbridge:HIS:21    0
Name: 8, dtype: object

>  <pistack:HIS:21>  (10) 
pistack:HIS:21    1
pistack:HIS:21    1
Name: 8, dtype: object

>  <pication:HIS:21>  (10) 
pication:HIS:21    0
pication:HIS:21    0
Name: 8, dtype: object

>  <hydroph_interaction:LEU:22>  (10) 
hydroph_interaction:LEU:22    0
hydroph_interaction:LEU:22    0
Name: 8, dtype: object

>  <hbond:SER:36>  (10) 
hbond:SER:36    0
hbond:SER:36    0
Name: 8, dtype: object

>  <hbond:ASP:39>  (10) 
hbond:ASP:39    0
hbond:ASP:39    0
Name: 8, dtype: object

>  <saltbridge:ASP:39>  (10) 
saltbridge:ASP:39    0
saltbridge:ASP:39    0
Name: 8, dtype: object

>  <hydroph_interaction:ASP:39>  (10) 
hydroph_interaction:ASP:39    0
hydroph_interaction:ASP:39    0
Name: 8, dtype: object

>  <halogenbond:ASP:39>  (10) 
halogenbond:ASP:39    0
halogenbond:ASP:39    0
Name: 8, dtype: object

>  <hydroph_interaction:ILE:82>  (10) 
hydroph_interaction:ILE:82    0
hydroph_interaction:ILE:82    0
Name: 8, dtype: object

>  <hydroph_interaction:PHE:83>  (10) 
hydroph_interaction:PHE:83    0
hydroph_interaction:PHE:83    0
Name: 8, dtype: object

>  <hbond:PHE:83>  (10) 
hbond:PHE:83    0
hbond:PHE:83    0
Name: 8, dtype: object

>  <halogenbond:PHE:83>  (10) 
halogenbond:PHE:83    0
halogenbond:PHE:83    0
Name: 8, dtype: object

>  <hydroph_interaction:VAL:84>  (10) 
hydroph_interaction:VAL:84    0
hydroph_interaction:VAL:84    0
Name: 8, dtype: object

>  <hydroph_interaction:GLU:85>  (10) 
hydroph_interaction:GLU:85    0
hydroph_interaction:GLU:85    0
Name: 8, dtype: object

>  <hbond:GLU:85>  (10) 
hbond:GLU:85    0
hbond:GLU:85    0
Name: 8, dtype: object

>  <halogenbond:GLU:85>  (10) 
halogenbond:GLU:85    0
halogenbond:GLU:85    0
Name: 8, dtype: object

>  <halogenbond:ALA:86>  (10) 
halogenbond:ALA:86    0
halogenbond:ALA:86    0
Name: 8, dtype: object

>  <hbond:SER:87>  (10) 
hbond:SER:87    1
hbond:SER:87    1
Name: 8, dtype: object

>  <halogenbond:SER:87>  (10) 
halogenbond:SER:87    0
halogenbond:SER:87    0
Name: 8, dtype: object

>  <hbond:GLU:88>  (10) 
hbond:GLU:88    0
hbond:GLU:88    0
Name: 8, dtype: object

>  <halogenbond:GLU:88>  (10) 
halogenbond:GLU:88    0
halogenbond:GLU:88    0
Name: 8, dtype: object

>  <hydroph_interaction:TYR:89>  (10) 
hydroph_interaction:TYR:89    1
hydroph_interaction:TYR:89    1
Name: 8, dtype: object

>  <pistack:TYR:89>  (10) 
pistack:TYR:89    0
pistack:TYR:89    0
Name: 8, dtype: object

>  <hbond:TYR:89>  (10) 
hbond:TYR:89    0
hbond:TYR:89    0
Name: 8, dtype: object

>  <hbond:TYR:90>  (10) 
hbond:TYR:90    0
hbond:TYR:90    0
Name: 8, dtype: object

>  <hydroph_interaction:TYR:90>  (10) 
hydroph_interaction:TYR:90    1
hydroph_interaction:TYR:90    1
Name: 8, dtype: object

>  <pistack:TYR:90>  (10) 
pistack:TYR:90    0
pistack:TYR:90    0
Name: 8, dtype: object

>  <hbond:ARG:93>  (10) 
hbond:ARG:93    0
hbond:ARG:93    0
Name: 8, dtype: object

>  <saltbridge:ARG:93>  (10) 
saltbridge:ARG:93    0
saltbridge:ARG:93    0
Name: 8, dtype: object

>  <hydroph_interaction:ARG:93>  (10) 
hydroph_interaction:ARG:93    0
hydroph_interaction:ARG:93    0
Name: 8, dtype: object

>  <halogenbond:GLN:95>  (10) 
halogenbond:GLN:95    0
halogenbond:GLN:95    0
Name: 8, dtype: object

>  <hbond:GLN:95>  (10) 
hbond:GLN:95    0
hbond:GLN:95    0
Name: 8, dtype: object

>  <hydroph_interaction:GLN:95>  (10) 
hydroph_interaction:GLN:95    0
hydroph_interaction:GLN:95    0
Name: 8, dtype: object

>  <hydroph_interaction:LEU:98>  (10) 
hydroph_interaction:LEU:98    0
hydroph_interaction:LEU:98    0
Name: 8, dtype: object

>  <hydroph_interaction:LEU:100>  (10) 
hydroph_interaction:LEU:100    0
hydroph_interaction:LEU:100    0
Name: 8, dtype: object

>  <hbond:SER:105>  (10) 
hbond:SER:105    0
hbond:SER:105    0
Name: 8, dtype: object

>  <halogenbond:SER:105>  (10) 
halogenbond:SER:105    0
halogenbond:SER:105    0
Name: 8, dtype: object

>  <hydroph_interaction:PRO:107>  (10) 
hydroph_interaction:PRO:107    2
hydroph_interaction:PRO:107    2
Name: 8, dtype: object

>  <hbond:PRO:107>  (10) 
hbond:PRO:107    0
hbond:PRO:107    0
Name: 8, dtype: object

>  <halogenbond:PRO:107>  (10) 
halogenbond:PRO:107    0
halogenbond:PRO:107    0
Name: 8, dtype: object

>  <hbond:ASP:109>  (10) 
hbond:ASP:109    0
hbond:ASP:109    0
Name: 8, dtype: object

>  <hbond:CYS:110>  (10) 
hbond:CYS:110    0
hbond:CYS:110    0
Name: 8, dtype: object

>  <halogenbond:CYS:110>  (10) 
halogenbond:CYS:110    1
halogenbond:CYS:110    1
Name: 8, dtype: object

>  <hydroph_interaction:VAL:124>  (10) 
hydroph_interaction:VAL:124    1
hydroph_interaction:VAL:124    1
Name: 8, dtype: object

>  <hbond:SER:125>  (10) 
hbond:SER:125    1
hbond:SER:125    1
Name: 8, dtype: object

>  <halogenbond:SER:125>  (10) 
halogenbond:SER:125    0
halogenbond:SER:125    0
Name: 8, dtype: object

>  <hydroph_interaction:THR:126>  (10) 
hydroph_interaction:THR:126    0
hydroph_interaction:THR:126    0
Name: 8, dtype: object

>  <hbond:THR:126>  (10) 
hbond:THR:126    0
hbond:THR:126    0
Name: 8, dtype: object

>  <halogenbond:THR:126>  (10) 
halogenbond:THR:126    0
halogenbond:THR:126    0
Name: 8, dtype: object

>  <hbond:GLY:127>  (10) 
hbond:GLY:127    0
hbond:GLY:127    0
Name: 8, dtype: object

>  <halogenbond:GLY:127>  (10) 
halogenbond:GLY:127    0
halogenbond:GLY:127    0
Name: 8, dtype: object

>  <hbond:GLY:128>  (10) 
hbond:GLY:128    0
hbond:GLY:128    0
Name: 8, dtype: object

>  <hbond:ASN:129>  (10) 
hbond:ASN:129    0
hbond:ASN:129    0
Name: 8, dtype: object

>  <hydroph_interaction:ASN:129>  (10) 
hydroph_interaction:ASN:129    0
hydroph_interaction:ASN:129    0
Name: 8, dtype: object

>  <halogenbond:ASN:129>  (10) 
halogenbond:ASN:129    0
halogenbond:ASN:129    0
Name: 8, dtype: object

>  <hydroph_interaction:LEU:131>  (10) 
hydroph_interaction:LEU:131    0
hydroph_interaction:LEU:131    0
Name: 8, dtype: object

>  <hbond:LEU:131>  (10) 
hbond:LEU:131    0
hbond:LEU:131    0
Name: 8, dtype: object

>  <halogenbond:LEU:131>  (10) 
halogenbond:LEU:131    0
halogenbond:LEU:131    0
Name: 8, dtype: object

>  <hbond:VAL:132>  (10) 
hbond:VAL:132    0
hbond:VAL:132    0
Name: 8, dtype: object

$$$$
Z131824262
     RDKit          3D

 24 25  0  0  0  0  0  0  0  0999 V2000
   34.2270    8.9585    5.2901 C   0  0  0  0  0  0  0  0  0  0  0  0
   33.1532    9.5663    6.1225 C   0  0  0  0  0  0  0  0  0  0  0  0
   32.2645    8.8926    6.9911 C   0  0  0  0  0  0  0  0  0  0  0  0
   31.2885    9.5698    7.7483 C   0  0  0  0  0  0  0  0  0  0  0  0
   30.3955    8.7777    8.6626 C   0  0  0  0  0  0  0  0  0  0  0  0
   31.2275   10.9528    7.5927 C   0  0  0  0  0  0  0  0  0  0  0  0
   30.3304   11.8389    8.2187 N   0  0  0  0  0  0  0  0  0  0  0  0
   29.5132   12.6670    7.4768 C   0  0  0  0  0  0  0  0  0  0  0  0
   29.6984   12.9309    6.2978 O   0  0  0  0  0  0  0  0  0  0  0  0
   28.3322   13.2371    8.2377 C   0  0  0  0  0  0  0  0  0  0  0  0
   27.6667   14.3582    7.4842 C   0  0  0  0  0  0  0  0  0  0  0  0
   27.0194   13.8077    6.1953 C   0  0  0  0  0  0  0  0  0  0  0  0
   26.0592   12.6852    6.3046 N   0  0  0  0  0  0  0  0  0  0  0  0
   25.1890   12.7137    7.5007 C   0  0  0  0  0  0  0  0  0  0  0  0
   23.8137   12.0003    7.4408 C   0  0  0  0  0  0  0  0  0  0  0  0
   23.3664   11.4145    6.0713 C   0  0  0  0  0  0  0  0  0  0  0  0
   22.6896   10.0494    6.2024 C   0  0  0  0  0  0  0  0  0  0  0  0
   22.1285    9.7685    7.4121 N   0  0  0  0  0  0  0  0  0  0  0  0
   22.6207    9.2185    5.3053 O   0  0  0  0  0  0  0  0  0  0  0  0
   24.4829   11.3150    5.0316 C   0  0  0  0  0  0  0  0  0  0  0  0
   25.3233   12.5656    5.0485 C   0  0  0  0  0  0  0  0  0  0  0  0
   32.1353   11.5715    6.7226 C   0  0  0  0  0  0  0  0  0  0  0  0
   32.1635   13.0122    6.5032 C   0  0  0  0  0  0  0  0  0  0  0  0
   33.0641   10.8939    6.0116 C   0  0  0  0  0  0  0  0  0  0  0  0
  1  2  1  0
  2  3  2  0
  3  4  1  0
  4  5  1  0
  4  6  2  0
  6  7  1  0
  7  8  1  0
  8  9  2  0
  8 10  1  0
 10 11  1  0
 11 12  1  0
 12 13  1  0
 13 14  1  0
 14 15  1  0
 15 16  1  0
 16 17  1  0
 17 18  1  0
 17 19  2  0
 16 20  1  0
 20 21  1  0
  6 22  1  0
 22 23  1  0
 22 24  2  0
 24  2  1  0
 21 13  1  0
A    1
 C1 
A    2
 C2 
A    3
 C3 
A    4
 C4 
A    5
 C5 
A    6
 C6 
A    7
 N1 
A    8
 C7 
A    9
 O1 
A   10
 C8 
A   11
 C9 
A   12
 C10
A   13
 N2 
A   14
 C11
A   15
 C12
A   16
 C13
A   17
 C14
A   18
 N3 
A   19
 O2 
A   20
 C15
A   21
 C16
A   22
 C17
A   23
 C18
A   24
 C19
M  END
>  <ref_pdb>  (11) 
Ax0310a

>  <ref_mols>  (11) 
Ax0310a,Ax0310a

>  <original SMILES>  (11) 
Cc1cc(C)c(NC(=O)CCCN2CCC(C(N)=O)CC2)c(C)c1

>  <rationale>  (11) 
info hbond:S125+S87+S7; hydroph_interaction:V124+Y90; 

>  <intxn_cluster_10>  (11) 
9

>  <intxn_cluster_rank_10>  (11) 
1

>  <N_interactions>  (11) 
6

>  <∆∆G>  (11) 
-12.0888

>  <$/mg>  (11) 
163.0

>  <comRMSD>  (11) 
0.573397

>  <N_rotatable_bonds>  (11) 
9

>  <deep_P1_sidechain>  (11) 
True

>  <farthest_distance_to_substrate>  (11) 
4.331341

>  <hbond:SER:7>  (11) 
hbond:SER:7    2
hbond:SER:7    2
Name: 9, dtype: object

>  <hydroph_interaction:ASN:19>  (11) 
hydroph_interaction:ASN:19    0
hydroph_interaction:ASN:19    0
Name: 9, dtype: object

>  <halogenbond:ASN:19>  (11) 
halogenbond:ASN:19    0
halogenbond:ASN:19    0
Name: 9, dtype: object

>  <hbond:ARG:20>  (11) 
hbond:ARG:20    0
hbond:ARG:20    0
Name: 9, dtype: object

>  <hydroph_interaction:ARG:20>  (11) 
hydroph_interaction:ARG:20    0
hydroph_interaction:ARG:20    0
Name: 9, dtype: object

>  <hbond:HIS:21>  (11) 
hbond:HIS:21    0
hbond:HIS:21    0
Name: 9, dtype: object

>  <hydroph_interaction:HIS:21>  (11) 
hydroph_interaction:HIS:21    0
hydroph_interaction:HIS:21    0
Name: 9, dtype: object

>  <saltbridge:HIS:21>  (11) 
saltbridge:HIS:21    0
saltbridge:HIS:21    0
Name: 9, dtype: object

>  <pistack:HIS:21>  (11) 
pistack:HIS:21    0
pistack:HIS:21    0
Name: 9, dtype: object

>  <pication:HIS:21>  (11) 
pication:HIS:21    0
pication:HIS:21    0
Name: 9, dtype: object

>  <hydroph_interaction:LEU:22>  (11) 
hydroph_interaction:LEU:22    0
hydroph_interaction:LEU:22    0
Name: 9, dtype: object

>  <hbond:SER:36>  (11) 
hbond:SER:36    0
hbond:SER:36    0
Name: 9, dtype: object

>  <hbond:ASP:39>  (11) 
hbond:ASP:39    0
hbond:ASP:39    0
Name: 9, dtype: object

>  <saltbridge:ASP:39>  (11) 
saltbridge:ASP:39    0
saltbridge:ASP:39    0
Name: 9, dtype: object

>  <hydroph_interaction:ASP:39>  (11) 
hydroph_interaction:ASP:39    0
hydroph_interaction:ASP:39    0
Name: 9, dtype: object

>  <halogenbond:ASP:39>  (11) 
halogenbond:ASP:39    0
halogenbond:ASP:39    0
Name: 9, dtype: object

>  <hydroph_interaction:ILE:82>  (11) 
hydroph_interaction:ILE:82    0
hydroph_interaction:ILE:82    0
Name: 9, dtype: object

>  <hydroph_interaction:PHE:83>  (11) 
hydroph_interaction:PHE:83    0
hydroph_interaction:PHE:83    0
Name: 9, dtype: object

>  <hbond:PHE:83>  (11) 
hbond:PHE:83    0
hbond:PHE:83    0
Name: 9, dtype: object

>  <halogenbond:PHE:83>  (11) 
halogenbond:PHE:83    0
halogenbond:PHE:83    0
Name: 9, dtype: object

>  <hydroph_interaction:VAL:84>  (11) 
hydroph_interaction:VAL:84    0
hydroph_interaction:VAL:84    0
Name: 9, dtype: object

>  <hydroph_interaction:GLU:85>  (11) 
hydroph_interaction:GLU:85    0
hydroph_interaction:GLU:85    0
Name: 9, dtype: object

>  <hbond:GLU:85>  (11) 
hbond:GLU:85    0
hbond:GLU:85    0
Name: 9, dtype: object

>  <halogenbond:GLU:85>  (11) 
halogenbond:GLU:85    0
halogenbond:GLU:85    0
Name: 9, dtype: object

>  <halogenbond:ALA:86>  (11) 
halogenbond:ALA:86    0
halogenbond:ALA:86    0
Name: 9, dtype: object

>  <hbond:SER:87>  (11) 
hbond:SER:87    1
hbond:SER:87    1
Name: 9, dtype: object

>  <halogenbond:SER:87>  (11) 
halogenbond:SER:87    0
halogenbond:SER:87    0
Name: 9, dtype: object

>  <hbond:GLU:88>  (11) 
hbond:GLU:88    0
hbond:GLU:88    0
Name: 9, dtype: object

>  <halogenbond:GLU:88>  (11) 
halogenbond:GLU:88    0
halogenbond:GLU:88    0
Name: 9, dtype: object

>  <hydroph_interaction:TYR:89>  (11) 
hydroph_interaction:TYR:89    0
hydroph_interaction:TYR:89    0
Name: 9, dtype: object

>  <pistack:TYR:89>  (11) 
pistack:TYR:89    0
pistack:TYR:89    0
Name: 9, dtype: object

>  <hbond:TYR:89>  (11) 
hbond:TYR:89    0
hbond:TYR:89    0
Name: 9, dtype: object

>  <hbond:TYR:90>  (11) 
hbond:TYR:90    0
hbond:TYR:90    0
Name: 9, dtype: object

>  <hydroph_interaction:TYR:90>  (11) 
hydroph_interaction:TYR:90    1
hydroph_interaction:TYR:90    1
Name: 9, dtype: object

>  <pistack:TYR:90>  (11) 
pistack:TYR:90    0
pistack:TYR:90    0
Name: 9, dtype: object

>  <hbond:ARG:93>  (11) 
hbond:ARG:93    0
hbond:ARG:93    0
Name: 9, dtype: object

>  <saltbridge:ARG:93>  (11) 
saltbridge:ARG:93    0
saltbridge:ARG:93    0
Name: 9, dtype: object

>  <hydroph_interaction:ARG:93>  (11) 
hydroph_interaction:ARG:93    0
hydroph_interaction:ARG:93    0
Name: 9, dtype: object

>  <halogenbond:GLN:95>  (11) 
halogenbond:GLN:95    0
halogenbond:GLN:95    0
Name: 9, dtype: object

>  <hbond:GLN:95>  (11) 
hbond:GLN:95    0
hbond:GLN:95    0
Name: 9, dtype: object

>  <hydroph_interaction:GLN:95>  (11) 
hydroph_interaction:GLN:95    0
hydroph_interaction:GLN:95    0
Name: 9, dtype: object

>  <hydroph_interaction:LEU:98>  (11) 
hydroph_interaction:LEU:98    0
hydroph_interaction:LEU:98    0
Name: 9, dtype: object

>  <hydroph_interaction:LEU:100>  (11) 
hydroph_interaction:LEU:100    0
hydroph_interaction:LEU:100    0
Name: 9, dtype: object

>  <hbond:SER:105>  (11) 
hbond:SER:105    0
hbond:SER:105    0
Name: 9, dtype: object

>  <halogenbond:SER:105>  (11) 
halogenbond:SER:105    0
halogenbond:SER:105    0
Name: 9, dtype: object

>  <hydroph_interaction:PRO:107>  (11) 
hydroph_interaction:PRO:107    0
hydroph_interaction:PRO:107    0
Name: 9, dtype: object

>  <hbond:PRO:107>  (11) 
hbond:PRO:107    0
hbond:PRO:107    0
Name: 9, dtype: object

>  <halogenbond:PRO:107>  (11) 
halogenbond:PRO:107    0
halogenbond:PRO:107    0
Name: 9, dtype: object

>  <hbond:ASP:109>  (11) 
hbond:ASP:109    0
hbond:ASP:109    0
Name: 9, dtype: object

>  <hbond:CYS:110>  (11) 
hbond:CYS:110    0
hbond:CYS:110    0
Name: 9, dtype: object

>  <halogenbond:CYS:110>  (11) 
halogenbond:CYS:110    0
halogenbond:CYS:110    0
Name: 9, dtype: object

>  <hydroph_interaction:VAL:124>  (11) 
hydroph_interaction:VAL:124    1
hydroph_interaction:VAL:124    1
Name: 9, dtype: object

>  <hbond:SER:125>  (11) 
hbond:SER:125    1
hbond:SER:125    1
Name: 9, dtype: object

>  <halogenbond:SER:125>  (11) 
halogenbond:SER:125    0
halogenbond:SER:125    0
Name: 9, dtype: object

>  <hydroph_interaction:THR:126>  (11) 
hydroph_interaction:THR:126    0
hydroph_interaction:THR:126    0
Name: 9, dtype: object

>  <hbond:THR:126>  (11) 
hbond:THR:126    0
hbond:THR:126    0
Name: 9, dtype: object

>  <halogenbond:THR:126>  (11) 
halogenbond:THR:126    0
halogenbond:THR:126    0
Name: 9, dtype: object

>  <hbond:GLY:127>  (11) 
hbond:GLY:127    0
hbond:GLY:127    0
Name: 9, dtype: object

>  <halogenbond:GLY:127>  (11) 
halogenbond:GLY:127    0
halogenbond:GLY:127    0
Name: 9, dtype: object

>  <hbond:GLY:128>  (11) 
hbond:GLY:128    0
hbond:GLY:128    0
Name: 9, dtype: object

>  <hbond:ASN:129>  (11) 
hbond:ASN:129    0
hbond:ASN:129    0
Name: 9, dtype: object

>  <hydroph_interaction:ASN:129>  (11) 
hydroph_interaction:ASN:129    0
hydroph_interaction:ASN:129    0
Name: 9, dtype: object

>  <halogenbond:ASN:129>  (11) 
halogenbond:ASN:129    0
halogenbond:ASN:129    0
Name: 9, dtype: object

>  <hydroph_interaction:LEU:131>  (11) 
hydroph_interaction:LEU:131    0
hydroph_interaction:LEU:131    0
Name: 9, dtype: object

>  <hbond:LEU:131>  (11) 
hbond:LEU:131    0
hbond:LEU:131    0
Name: 9, dtype: object

>  <halogenbond:LEU:131>  (11) 
halogenbond:LEU:131    0
halogenbond:LEU:131    0
Name: 9, dtype: object

>  <hbond:VAL:132>  (11) 
hbond:VAL:132    0
hbond:VAL:132    0
Name: 9, dtype: object

$$$$
PV_006314244642
     RDKit          3D

 20 21  0  0  0  0  0  0  0  0999 V2000
   27.2978   15.7785    9.5793 C   0  0  0  0  0  0  0  0  0  0  0  0
   28.7024   16.0418    9.0580 C   0  0  0  0  0  0  0  0  0  0  0  0
   29.5489   14.9043    9.6007 C   0  0  0  0  0  0  0  0  0  0  0  0
   29.4552   14.8316   10.9547 F   0  0  0  0  0  0  0  0  0  0  0  0
   30.8628   14.9436    9.2972 F   0  0  0  0  0  0  0  0  0  0  0  0
   28.8201   13.7451    8.9864 C   0  0  0  0  0  0  0  0  0  0  0  0
   29.4588   12.8114    8.6146 O   0  0  0  0  0  0  0  0  0  0  0  0
   29.9496   12.8589    7.3666 C   0  0  0  0  0  0  0  0  0  0  0  0
   29.7258   13.7050    6.5102 O   0  0  0  0  0  0  0  0  0  0  0  0
   30.8272   11.6762    7.1629 C   0  0  0  0  0  0  0  0  0  0  0  0
   30.5636   10.5032    7.7557 C   0  0  0  0  0  0  0  0  0  0  0  0
   29.3638   10.2241    8.6542 C   0  0  0  0  0  0  0  0  0  0  0  0
   31.4451    9.5668    7.4668 N   0  0  0  0  0  0  0  0  0  0  0  0
   31.3354    8.2463    8.0125 C   0  0  0  0  0  0  0  0  0  0  0  0
   32.3827   10.0961    6.5938 C   0  0  0  0  0  0  0  0  0  0  0  0
   33.5821    9.4335    5.9417 C   0  0  0  0  0  0  0  0  0  0  0  0
   34.3403   10.3989    5.0540 C   0  0  0  0  0  0  0  0  0  0  0  0
   33.9012   11.8427    4.8832 C   0  0  0  0  0  0  0  0  0  0  0  0
   32.7824   12.2990    5.5439 C   0  0  0  0  0  0  0  0  0  0  0  0
   32.0158   11.4571    6.3889 C   0  0  0  0  0  0  0  0  0  0  0  0
  1  2  2  0
  2  3  1  0
  3  4  1  0
  3  5  1  0
  3  6  1  0
  6  7  1  0
  7  8  1  0
  8  9  2  0
  8 10  1  0
 10 11  2  0
 11 12  1  0
 11 13  1  0
 13 14  1  0
 13 15  1  0
 15 16  2  0
 16 17  1  0
 17 18  2  0
 18 19  1  0
 19 20  2  0
 20 10  1  0
 20 15  1  0
A    1
 C1 
A    2
 C2 
A    3
 C3 
A    4
 F1 
A    5
 F2 
A    6
 C4 
A    7
 O1 
A    8
 C5 
A    9
 O2 
A   10
 C6 
A   11
 C7 
A   12
 C8 
A   13
 N1 
A   14
 C9 
A   15
 C10
A   16
 C11
A   17
 C12
A   18
 C13
A   19
 C14
A   20
 C15
M  END
>  <ref_pdb>  (12) 
Ax0310a

>  <ref_mols>  (12) 
Ax0416a,Ax0451a,Ax0739a

>  <original SMILES>  (12) 
C=CC(F)(F)COC(=O)c1c(C)n(C)c2ccccc12

>  <rationale>  (12) 
info halogenbond:Q95+S125; hbond:S87; hydroph_interaction:P107+Y89+Y90+H21; saltbridge:H21; 

>  <intxn_cluster_10>  (12) 
2

>  <intxn_cluster_rank_10>  (12) 
2

>  <N_interactions>  (12) 
8

>  <∆∆G>  (12) 
-5.400262

>  <$/mg>  (12) 
0.0

>  <comRMSD>  (12) 
0.750328

>  <N_rotatable_bonds>  (12) 
6

>  <deep_P1_sidechain>  (12) 
False

>  <farthest_distance_to_substrate>  (12) 
2.551162

>  <hbond:SER:7>  (12) 
hbond:SER:7    0
hbond:SER:7    0
Name: 10, dtype: object

>  <hydroph_interaction:ASN:19>  (12) 
hydroph_interaction:ASN:19    0
hydroph_interaction:ASN:19    0
Name: 10, dtype: object

>  <halogenbond:ASN:19>  (12) 
halogenbond:ASN:19    0
halogenbond:ASN:19    0
Name: 10, dtype: object

>  <hbond:ARG:20>  (12) 
hbond:ARG:20    0
hbond:ARG:20    0
Name: 10, dtype: object

>  <hydroph_interaction:ARG:20>  (12) 
hydroph_interaction:ARG:20    0
hydroph_interaction:ARG:20    0
Name: 10, dtype: object

>  <hbond:HIS:21>  (12) 
hbond:HIS:21    0
hbond:HIS:21    0
Name: 10, dtype: object

>  <hydroph_interaction:HIS:21>  (12) 
hydroph_interaction:HIS:21    1
hydroph_interaction:HIS:21    1
Name: 10, dtype: object

>  <saltbridge:HIS:21>  (12) 
saltbridge:HIS:21    1
saltbridge:HIS:21    1
Name: 10, dtype: object

>  <pistack:HIS:21>  (12) 
pistack:HIS:21    0
pistack:HIS:21    0
Name: 10, dtype: object

>  <pication:HIS:21>  (12) 
pication:HIS:21    0
pication:HIS:21    0
Name: 10, dtype: object

>  <hydroph_interaction:LEU:22>  (12) 
hydroph_interaction:LEU:22    0
hydroph_interaction:LEU:22    0
Name: 10, dtype: object

>  <hbond:SER:36>  (12) 
hbond:SER:36    0
hbond:SER:36    0
Name: 10, dtype: object

>  <hbond:ASP:39>  (12) 
hbond:ASP:39    0
hbond:ASP:39    0
Name: 10, dtype: object

>  <saltbridge:ASP:39>  (12) 
saltbridge:ASP:39    0
saltbridge:ASP:39    0
Name: 10, dtype: object

>  <hydroph_interaction:ASP:39>  (12) 
hydroph_interaction:ASP:39    0
hydroph_interaction:ASP:39    0
Name: 10, dtype: object

>  <halogenbond:ASP:39>  (12) 
halogenbond:ASP:39    0
halogenbond:ASP:39    0
Name: 10, dtype: object

>  <hydroph_interaction:ILE:82>  (12) 
hydroph_interaction:ILE:82    0
hydroph_interaction:ILE:82    0
Name: 10, dtype: object

>  <hydroph_interaction:PHE:83>  (12) 
hydroph_interaction:PHE:83    0
hydroph_interaction:PHE:83    0
Name: 10, dtype: object

>  <hbond:PHE:83>  (12) 
hbond:PHE:83    0
hbond:PHE:83    0
Name: 10, dtype: object

>  <halogenbond:PHE:83>  (12) 
halogenbond:PHE:83    0
halogenbond:PHE:83    0
Name: 10, dtype: object

>  <hydroph_interaction:VAL:84>  (12) 
hydroph_interaction:VAL:84    0
hydroph_interaction:VAL:84    0
Name: 10, dtype: object

>  <hydroph_interaction:GLU:85>  (12) 
hydroph_interaction:GLU:85    0
hydroph_interaction:GLU:85    0
Name: 10, dtype: object

>  <hbond:GLU:85>  (12) 
hbond:GLU:85    0
hbond:GLU:85    0
Name: 10, dtype: object

>  <halogenbond:GLU:85>  (12) 
halogenbond:GLU:85    0
halogenbond:GLU:85    0
Name: 10, dtype: object

>  <halogenbond:ALA:86>  (12) 
halogenbond:ALA:86    0
halogenbond:ALA:86    0
Name: 10, dtype: object

>  <hbond:SER:87>  (12) 
hbond:SER:87    1
hbond:SER:87    1
Name: 10, dtype: object

>  <halogenbond:SER:87>  (12) 
halogenbond:SER:87    0
halogenbond:SER:87    0
Name: 10, dtype: object

>  <hbond:GLU:88>  (12) 
hbond:GLU:88    0
hbond:GLU:88    0
Name: 10, dtype: object

>  <halogenbond:GLU:88>  (12) 
halogenbond:GLU:88    0
halogenbond:GLU:88    0
Name: 10, dtype: object

>  <hydroph_interaction:TYR:89>  (12) 
hydroph_interaction:TYR:89    1
hydroph_interaction:TYR:89    1
Name: 10, dtype: object

>  <pistack:TYR:89>  (12) 
pistack:TYR:89    0
pistack:TYR:89    0
Name: 10, dtype: object

>  <hbond:TYR:89>  (12) 
hbond:TYR:89    0
hbond:TYR:89    0
Name: 10, dtype: object

>  <hbond:TYR:90>  (12) 
hbond:TYR:90    0
hbond:TYR:90    0
Name: 10, dtype: object

>  <hydroph_interaction:TYR:90>  (12) 
hydroph_interaction:TYR:90    1
hydroph_interaction:TYR:90    1
Name: 10, dtype: object

>  <pistack:TYR:90>  (12) 
pistack:TYR:90    0
pistack:TYR:90    0
Name: 10, dtype: object

>  <hbond:ARG:93>  (12) 
hbond:ARG:93    0
hbond:ARG:93    0
Name: 10, dtype: object

>  <saltbridge:ARG:93>  (12) 
saltbridge:ARG:93    0
saltbridge:ARG:93    0
Name: 10, dtype: object

>  <hydroph_interaction:ARG:93>  (12) 
hydroph_interaction:ARG:93    0
hydroph_interaction:ARG:93    0
Name: 10, dtype: object

>  <halogenbond:GLN:95>  (12) 
halogenbond:GLN:95    1
halogenbond:GLN:95    1
Name: 10, dtype: object

>  <hbond:GLN:95>  (12) 
hbond:GLN:95    0
hbond:GLN:95    0
Name: 10, dtype: object

>  <hydroph_interaction:GLN:95>  (12) 
hydroph_interaction:GLN:95    0
hydroph_interaction:GLN:95    0
Name: 10, dtype: object

>  <hydroph_interaction:LEU:98>  (12) 
hydroph_interaction:LEU:98    0
hydroph_interaction:LEU:98    0
Name: 10, dtype: object

>  <hydroph_interaction:LEU:100>  (12) 
hydroph_interaction:LEU:100    0
hydroph_interaction:LEU:100    0
Name: 10, dtype: object

>  <hbond:SER:105>  (12) 
hbond:SER:105    0
hbond:SER:105    0
Name: 10, dtype: object

>  <halogenbond:SER:105>  (12) 
halogenbond:SER:105    0
halogenbond:SER:105    0
Name: 10, dtype: object

>  <hydroph_interaction:PRO:107>  (12) 
hydroph_interaction:PRO:107    1
hydroph_interaction:PRO:107    1
Name: 10, dtype: object

>  <hbond:PRO:107>  (12) 
hbond:PRO:107    0
hbond:PRO:107    0
Name: 10, dtype: object

>  <halogenbond:PRO:107>  (12) 
halogenbond:PRO:107    0
halogenbond:PRO:107    0
Name: 10, dtype: object

>  <hbond:ASP:109>  (12) 
hbond:ASP:109    0
hbond:ASP:109    0
Name: 10, dtype: object

>  <hbond:CYS:110>  (12) 
hbond:CYS:110    0
hbond:CYS:110    0
Name: 10, dtype: object

>  <halogenbond:CYS:110>  (12) 
halogenbond:CYS:110    0
halogenbond:CYS:110    0
Name: 10, dtype: object

>  <hydroph_interaction:VAL:124>  (12) 
hydroph_interaction:VAL:124    0
hydroph_interaction:VAL:124    0
Name: 10, dtype: object

>  <hbond:SER:125>  (12) 
hbond:SER:125    0
hbond:SER:125    0
Name: 10, dtype: object

>  <halogenbond:SER:125>  (12) 
halogenbond:SER:125    1
halogenbond:SER:125    1
Name: 10, dtype: object

>  <hydroph_interaction:THR:126>  (12) 
hydroph_interaction:THR:126    0
hydroph_interaction:THR:126    0
Name: 10, dtype: object

>  <hbond:THR:126>  (12) 
hbond:THR:126    0
hbond:THR:126    0
Name: 10, dtype: object

>  <halogenbond:THR:126>  (12) 
halogenbond:THR:126    0
halogenbond:THR:126    0
Name: 10, dtype: object

>  <hbond:GLY:127>  (12) 
hbond:GLY:127    0
hbond:GLY:127    0
Name: 10, dtype: object

>  <halogenbond:GLY:127>  (12) 
halogenbond:GLY:127    0
halogenbond:GLY:127    0
Name: 10, dtype: object

>  <hbond:GLY:128>  (12) 
hbond:GLY:128    0
hbond:GLY:128    0
Name: 10, dtype: object

>  <hbond:ASN:129>  (12) 
hbond:ASN:129    0
hbond:ASN:129    0
Name: 10, dtype: object

>  <hydroph_interaction:ASN:129>  (12) 
hydroph_interaction:ASN:129    0
hydroph_interaction:ASN:129    0
Name: 10, dtype: object

>  <halogenbond:ASN:129>  (12) 
halogenbond:ASN:129    0
halogenbond:ASN:129    0
Name: 10, dtype: object

>  <hydroph_interaction:LEU:131>  (12) 
hydroph_interaction:LEU:131    0
hydroph_interaction:LEU:131    0
Name: 10, dtype: object

>  <hbond:LEU:131>  (12) 
hbond:LEU:131    0
hbond:LEU:131    0
Name: 10, dtype: object

>  <halogenbond:LEU:131>  (12) 
halogenbond:LEU:131    0
halogenbond:LEU:131    0
Name: 10, dtype: object

>  <hbond:VAL:132>  (12) 
hbond:VAL:132    0
hbond:VAL:132    0
Name: 10, dtype: object

$$$$
Z2989386255
     RDKit          3D

 21 22  0  0  0  0  0  0  0  0999 V2000
   25.5340   13.1704    3.7769 C   0  0  0  0  0  0  0  0  0  0  0  0
   25.0514   12.5153    4.9915 N   0  0  0  0  0  0  0  0  0  0  0  0
   24.5719   11.1331    4.8081 C   0  0  0  0  0  0  0  0  0  0  0  0
   23.3719   11.0731    3.9502 C   0  0  0  0  0  0  0  0  0  0  0  0
   22.5051    9.9226    4.3591 C   0  0  0  0  0  0  0  0  0  0  0  0
   22.6464    9.2104    5.3363 O   0  0  0  0  0  0  0  0  0  0  0  0
   21.4777    9.7121    3.5147 O   0  0  0  0  0  0  0  0  0  0  0  0
   25.7207   12.8080    6.1822 C   0  0  0  0  0  0  0  0  0  0  0  0
   27.0481   13.0705    6.1547 C   0  0  0  0  0  0  0  0  0  0  0  0
   27.7581   13.3579    7.3830 C   0  0  0  0  0  0  0  0  0  0  0  0
   29.4919   13.6147    7.1793 S   0  0  0  0  0  0  0  0  0  0  0  0
   30.0217   12.2749    8.2679 C   0  0  0  0  0  0  0  0  0  0  0  0
   30.9252   11.2606    7.6447 C   0  0  0  0  0  0  0  0  0  0  0  0
   30.8047    9.7987    8.0806 C   0  0  0  0  0  0  0  0  0  0  0  0
   31.7553    8.8916    7.3892 C   0  0  0  0  0  0  0  0  0  0  0  0
   32.6615    9.3528    6.4390 C   0  0  0  0  0  0  0  0  0  0  0  0
   32.7195   10.6933    6.0945 C   0  0  0  0  0  0  0  0  0  0  0  0
   31.8692   11.6285    6.6831 C   0  0  0  0  0  0  0  0  0  0  0  0
   27.1327   13.4024    8.5656 N   0  0  0  0  0  0  0  0  0  0  0  0
   25.8114   13.1365    8.4888 C   0  0  0  0  0  0  0  0  0  0  0  0
   25.0939   12.8437    7.3768 N   0  0  0  0  0  0  0  0  0  0  0  0
  1  2  1  0
  2  3  1  0
  3  4  1  0
  4  5  1  0
  5  6  2  0
  5  7  1  0
  2  8  1  0
  8  9  2  0
  9 10  1  0
 10 11  1  0
 11 12  1  0
 12 13  1  0
 13 14  2  0
 14 15  1  0
 15 16  2  0
 16 17  1  0
 17 18  2  0
 10 19  2  0
 19 20  1  0
 20 21  2  0
 21  8  1  0
 18 13  1  0
A    1
 C1 
A    2
 N1 
A    3
 C2 
A    4
 C3 
A    5
 C4 
A    6
 O1 
A    7
 O2 
A    8
 C5 
A    9
 C6 
A   10
 C7 
A   11
 S1 
A   12
 C8 
A   13
 C9 
A   14
 C10
A   15
 C11
A   16
 C12
A   17
 C13
A   18
 C14
A   19
 N2 
A   20
 C15
A   21
 N3 
M  END
>  <ref_pdb>  (13) 
Ax0310a

>  <ref_mols>  (13) 
Ax0554a,Ax0732a

>  <original SMILES>  (13) 
CN(CCC(=O)O)c1cc(SCc2ccccc2)ncn1

>  <rationale>  (13) 
info hbond:S7; hydroph_interaction:P107+Y89+L22; 

>  <intxn_cluster_10>  (13) 
9

>  <intxn_cluster_rank_10>  (13) 
1

>  <N_interactions>  (13) 
5

>  <∆∆G>  (13) 
-10.133928

>  <$/mg>  (13) 
0.0

>  <comRMSD>  (13) 
0.929321

>  <N_rotatable_bonds>  (13) 
8

>  <deep_P1_sidechain>  (13) 
False

>  <farthest_distance_to_substrate>  (13) 
4.553077

>  <hbond:SER:7>  (13) 
hbond:SER:7    1
hbond:SER:7    1
Name: 11, dtype: object

>  <hydroph_interaction:ASN:19>  (13) 
hydroph_interaction:ASN:19    0
hydroph_interaction:ASN:19    0
Name: 11, dtype: object

>  <halogenbond:ASN:19>  (13) 
halogenbond:ASN:19    0
halogenbond:ASN:19    0
Name: 11, dtype: object

>  <hbond:ARG:20>  (13) 
hbond:ARG:20    0
hbond:ARG:20    0
Name: 11, dtype: object

>  <hydroph_interaction:ARG:20>  (13) 
hydroph_interaction:ARG:20    0
hydroph_interaction:ARG:20    0
Name: 11, dtype: object

>  <hbond:HIS:21>  (13) 
hbond:HIS:21    0
hbond:HIS:21    0
Name: 11, dtype: object

>  <hydroph_interaction:HIS:21>  (13) 
hydroph_interaction:HIS:21    0
hydroph_interaction:HIS:21    0
Name: 11, dtype: object

>  <saltbridge:HIS:21>  (13) 
saltbridge:HIS:21    0
saltbridge:HIS:21    0
Name: 11, dtype: object

>  <pistack:HIS:21>  (13) 
pistack:HIS:21    0
pistack:HIS:21    0
Name: 11, dtype: object

>  <pication:HIS:21>  (13) 
pication:HIS:21    0
pication:HIS:21    0
Name: 11, dtype: object

>  <hydroph_interaction:LEU:22>  (13) 
hydroph_interaction:LEU:22    1
hydroph_interaction:LEU:22    1
Name: 11, dtype: object

>  <hbond:SER:36>  (13) 
hbond:SER:36    0
hbond:SER:36    0
Name: 11, dtype: object

>  <hbond:ASP:39>  (13) 
hbond:ASP:39    0
hbond:ASP:39    0
Name: 11, dtype: object

>  <saltbridge:ASP:39>  (13) 
saltbridge:ASP:39    0
saltbridge:ASP:39    0
Name: 11, dtype: object

>  <hydroph_interaction:ASP:39>  (13) 
hydroph_interaction:ASP:39    0
hydroph_interaction:ASP:39    0
Name: 11, dtype: object

>  <halogenbond:ASP:39>  (13) 
halogenbond:ASP:39    0
halogenbond:ASP:39    0
Name: 11, dtype: object

>  <hydroph_interaction:ILE:82>  (13) 
hydroph_interaction:ILE:82    0
hydroph_interaction:ILE:82    0
Name: 11, dtype: object

>  <hydroph_interaction:PHE:83>  (13) 
hydroph_interaction:PHE:83    0
hydroph_interaction:PHE:83    0
Name: 11, dtype: object

>  <hbond:PHE:83>  (13) 
hbond:PHE:83    0
hbond:PHE:83    0
Name: 11, dtype: object

>  <halogenbond:PHE:83>  (13) 
halogenbond:PHE:83    0
halogenbond:PHE:83    0
Name: 11, dtype: object

>  <hydroph_interaction:VAL:84>  (13) 
hydroph_interaction:VAL:84    0
hydroph_interaction:VAL:84    0
Name: 11, dtype: object

>  <hydroph_interaction:GLU:85>  (13) 
hydroph_interaction:GLU:85    0
hydroph_interaction:GLU:85    0
Name: 11, dtype: object

>  <hbond:GLU:85>  (13) 
hbond:GLU:85    0
hbond:GLU:85    0
Name: 11, dtype: object

>  <halogenbond:GLU:85>  (13) 
halogenbond:GLU:85    0
halogenbond:GLU:85    0
Name: 11, dtype: object

>  <halogenbond:ALA:86>  (13) 
halogenbond:ALA:86    0
halogenbond:ALA:86    0
Name: 11, dtype: object

>  <hbond:SER:87>  (13) 
hbond:SER:87    0
hbond:SER:87    0
Name: 11, dtype: object

>  <halogenbond:SER:87>  (13) 
halogenbond:SER:87    0
halogenbond:SER:87    0
Name: 11, dtype: object

>  <hbond:GLU:88>  (13) 
hbond:GLU:88    0
hbond:GLU:88    0
Name: 11, dtype: object

>  <halogenbond:GLU:88>  (13) 
halogenbond:GLU:88    0
halogenbond:GLU:88    0
Name: 11, dtype: object

>  <hydroph_interaction:TYR:89>  (13) 
hydroph_interaction:TYR:89    1
hydroph_interaction:TYR:89    1
Name: 11, dtype: object

>  <pistack:TYR:89>  (13) 
pistack:TYR:89    0
pistack:TYR:89    0
Name: 11, dtype: object

>  <hbond:TYR:89>  (13) 
hbond:TYR:89    0
hbond:TYR:89    0
Name: 11, dtype: object

>  <hbond:TYR:90>  (13) 
hbond:TYR:90    0
hbond:TYR:90    0
Name: 11, dtype: object

>  <hydroph_interaction:TYR:90>  (13) 
hydroph_interaction:TYR:90    0
hydroph_interaction:TYR:90    0
Name: 11, dtype: object

>  <pistack:TYR:90>  (13) 
pistack:TYR:90    0
pistack:TYR:90    0
Name: 11, dtype: object

>  <hbond:ARG:93>  (13) 
hbond:ARG:93    0
hbond:ARG:93    0
Name: 11, dtype: object

>  <saltbridge:ARG:93>  (13) 
saltbridge:ARG:93    0
saltbridge:ARG:93    0
Name: 11, dtype: object

>  <hydroph_interaction:ARG:93>  (13) 
hydroph_interaction:ARG:93    0
hydroph_interaction:ARG:93    0
Name: 11, dtype: object

>  <halogenbond:GLN:95>  (13) 
halogenbond:GLN:95    0
halogenbond:GLN:95    0
Name: 11, dtype: object

>  <hbond:GLN:95>  (13) 
hbond:GLN:95    0
hbond:GLN:95    0
Name: 11, dtype: object

>  <hydroph_interaction:GLN:95>  (13) 
hydroph_interaction:GLN:95    0
hydroph_interaction:GLN:95    0
Name: 11, dtype: object

>  <hydroph_interaction:LEU:98>  (13) 
hydroph_interaction:LEU:98    0
hydroph_interaction:LEU:98    0
Name: 11, dtype: object

>  <hydroph_interaction:LEU:100>  (13) 
hydroph_interaction:LEU:100    0
hydroph_interaction:LEU:100    0
Name: 11, dtype: object

>  <hbond:SER:105>  (13) 
hbond:SER:105    0
hbond:SER:105    0
Name: 11, dtype: object

>  <halogenbond:SER:105>  (13) 
halogenbond:SER:105    0
halogenbond:SER:105    0
Name: 11, dtype: object

>  <hydroph_interaction:PRO:107>  (13) 
hydroph_interaction:PRO:107    2
hydroph_interaction:PRO:107    2
Name: 11, dtype: object

>  <hbond:PRO:107>  (13) 
hbond:PRO:107    0
hbond:PRO:107    0
Name: 11, dtype: object

>  <halogenbond:PRO:107>  (13) 
halogenbond:PRO:107    0
halogenbond:PRO:107    0
Name: 11, dtype: object

>  <hbond:ASP:109>  (13) 
hbond:ASP:109    0
hbond:ASP:109    0
Name: 11, dtype: object

>  <hbond:CYS:110>  (13) 
hbond:CYS:110    0
hbond:CYS:110    0
Name: 11, dtype: object

>  <halogenbond:CYS:110>  (13) 
halogenbond:CYS:110    0
halogenbond:CYS:110    0
Name: 11, dtype: object

>  <hydroph_interaction:VAL:124>  (13) 
hydroph_interaction:VAL:124    0
hydroph_interaction:VAL:124    0
Name: 11, dtype: object

>  <hbond:SER:125>  (13) 
hbond:SER:125    0
hbond:SER:125    0
Name: 11, dtype: object

>  <halogenbond:SER:125>  (13) 
halogenbond:SER:125    0
halogenbond:SER:125    0
Name: 11, dtype: object

>  <hydroph_interaction:THR:126>  (13) 
hydroph_interaction:THR:126    0
hydroph_interaction:THR:126    0
Name: 11, dtype: object

>  <hbond:THR:126>  (13) 
hbond:THR:126    0
hbond:THR:126    0
Name: 11, dtype: object

>  <halogenbond:THR:126>  (13) 
halogenbond:THR:126    0
halogenbond:THR:126    0
Name: 11, dtype: object

>  <hbond:GLY:127>  (13) 
hbond:GLY:127    0
hbond:GLY:127    0
Name: 11, dtype: object

>  <halogenbond:GLY:127>  (13) 
halogenbond:GLY:127    0
halogenbond:GLY:127    0
Name: 11, dtype: object

>  <hbond:GLY:128>  (13) 
hbond:GLY:128    0
hbond:GLY:128    0
Name: 11, dtype: object

>  <hbond:ASN:129>  (13) 
hbond:ASN:129    0
hbond:ASN:129    0
Name: 11, dtype: object

>  <hydroph_interaction:ASN:129>  (13) 
hydroph_interaction:ASN:129    0
hydroph_interaction:ASN:129    0
Name: 11, dtype: object

>  <halogenbond:ASN:129>  (13) 
halogenbond:ASN:129    0
halogenbond:ASN:129    0
Name: 11, dtype: object

>  <hydroph_interaction:LEU:131>  (13) 
hydroph_interaction:LEU:131    0
hydroph_interaction:LEU:131    0
Name: 11, dtype: object

>  <hbond:LEU:131>  (13) 
hbond:LEU:131    0
hbond:LEU:131    0
Name: 11, dtype: object

>  <halogenbond:LEU:131>  (13) 
halogenbond:LEU:131    0
halogenbond:LEU:131    0
Name: 11, dtype: object

>  <hbond:VAL:132>  (13) 
hbond:VAL:132    0
hbond:VAL:132    0
Name: 11, dtype: object

$$$$
Z2645531041
     RDKit          3D

 24 25  0  0  0  0  0  0  0  0999 V2000
   27.4874   21.9997   12.2671 C   0  0  0  0  0  0  0  0  0  0  0  0
   27.6218   20.8830   12.9968 C   0  0  0  0  0  0  0  0  0  0  0  0
   26.8325   19.6434   12.6564 C   0  0  1  0  0  0  0  0  0  0  0  0
   26.0383   19.3040   13.7696 O   0  0  0  0  0  0  0  0  0  0  0  0
   26.0242   19.4163   11.5716 C   0  0  0  0  0  0  0  0  0  0  0  0
   26.6321   18.4352   10.8241 N   0  0  0  0  0  0  0  0  0  0  0  0
   26.5928   17.1133   11.1781 C   0  0  0  0  0  0  0  0  0  0  0  0
   25.9044   16.6715   12.0806 O   0  0  0  0  0  0  0  0  0  0  0  0
   27.2887   16.0467   10.3908 C   0  0  0  0  0  0  0  0  0  0  0  0
   27.2209   14.7130   10.7422 C   0  0  0  0  0  0  0  0  0  0  0  0
   27.8194   13.7195    9.9716 C   0  0  0  0  0  0  0  0  0  0  0  0
   28.5270   14.0413    8.8103 C   0  0  0  0  0  0  0  0  0  0  0  0
   29.2305   13.2593    7.8274 C   0  0  0  0  0  0  0  0  0  0  0  0
   28.7334   13.1397    6.7088 O   0  0  0  0  0  0  0  0  0  0  0  0
   30.4388   12.7145    8.2518 N   0  0  0  0  0  0  0  0  0  0  0  0
   31.2907   13.6312    8.9785 C   0  0  0  0  0  0  0  0  0  0  0  0
   31.0281   11.4854    7.7692 C   0  0  0  0  0  0  0  0  0  0  0  0
   30.6429   10.2385    8.2803 C   0  0  0  0  0  0  0  0  0  0  0  0
   31.2194    9.0716    7.8211 C   0  0  0  0  0  0  0  0  0  0  0  0
   32.1948    9.1440    6.8411 C   0  0  0  0  0  0  0  0  0  0  0  0
   32.6036   10.3487    6.3066 C   0  0  0  0  0  0  0  0  0  0  0  0
   32.0152   11.5207    6.7739 C   0  0  0  0  0  0  0  0  0  0  0  0
   28.6043   15.3925    8.4870 C   0  0  0  0  0  0  0  0  0  0  0  0
   28.0050   16.3914    9.2596 C   0  0  0  0  0  0  0  0  0  0  0  0
  1  2  1  0
  2  3  1  0
  3  4  1  1
  3  5  1  0
  5  6  1  0
  6  7  1  0
  7  8  2  0
  7  9  1  0
  9 10  2  0
 10 11  1  0
 11 12  2  0
 12 13  1  0
 13 14  2  0
 13 15  1  0
 15 16  1  0
 15 17  1  0
 17 18  2  0
 18 19  1  0
 19 20  2  0
 20 21  1  0
 21 22  2  0
 12 23  1  0
 23 24  2  0
 24  9  1  0
 22 17  1  0
A    1
 C1 
A    2
 C2 
A    3
 C3 
A    4
 O1 
A    5
 C4 
A    6
 N1 
A    7
 C5 
A    8
 O2 
A    9
 C6 
A   10
 C7 
A   11
 C8 
A   12
 C9 
A   13
 C10
A   14
 O3 
A   15
 N2 
A   16
 C11
A   17
 C12
A   18
 C13
A   19
 C14
A   20
 C15
A   21
 C16
A   22
 C17
A   23
 C18
A   24
 C19
M  END
>  <ref_pdb>  (14) 
Ax0310a

>  <ref_mols>  (14) 
Ax0554a,Ax0310a

>  <original SMILES>  (14) 
CC[C@@H](O)CNC(=O)c1ccc(C(=O)N(C)c2ccccc2)cc1

>  <rationale>  (14) 
info hbond:S87+H21+D39+Y89+S36; hydroph_interaction:P107+Y89+Y90+H21+D39; 

>  <intxn_cluster_10>  (14) 
1

>  <intxn_cluster_rank_10>  (14) 
2

>  <N_interactions>  (14) 
11

>  <∆∆G>  (14) 
-9.948493

>  <$/mg>  (14) 
163.0

>  <comRMSD>  (14) 
0.797582

>  <N_rotatable_bonds>  (14) 
9

>  <deep_P1_sidechain>  (14) 
False

>  <farthest_distance_to_substrate>  (14) 
4.57157

>  <hbond:SER:7>  (14) 
hbond:SER:7    0
hbond:SER:7    0
Name: 12, dtype: object

>  <hydroph_interaction:ASN:19>  (14) 
hydroph_interaction:ASN:19    0
hydroph_interaction:ASN:19    0
Name: 12, dtype: object

>  <halogenbond:ASN:19>  (14) 
halogenbond:ASN:19    0
halogenbond:ASN:19    0
Name: 12, dtype: object

>  <hbond:ARG:20>  (14) 
hbond:ARG:20    0
hbond:ARG:20    0
Name: 12, dtype: object

>  <hydroph_interaction:ARG:20>  (14) 
hydroph_interaction:ARG:20    0
hydroph_interaction:ARG:20    0
Name: 12, dtype: object

>  <hbond:HIS:21>  (14) 
hbond:HIS:21    1
hbond:HIS:21    1
Name: 12, dtype: object

>  <hydroph_interaction:HIS:21>  (14) 
hydroph_interaction:HIS:21    1
hydroph_interaction:HIS:21    1
Name: 12, dtype: object

>  <saltbridge:HIS:21>  (14) 
saltbridge:HIS:21    0
saltbridge:HIS:21    0
Name: 12, dtype: object

>  <pistack:HIS:21>  (14) 
pistack:HIS:21    0
pistack:HIS:21    0
Name: 12, dtype: object

>  <pication:HIS:21>  (14) 
pication:HIS:21    0
pication:HIS:21    0
Name: 12, dtype: object

>  <hydroph_interaction:LEU:22>  (14) 
hydroph_interaction:LEU:22    0
hydroph_interaction:LEU:22    0
Name: 12, dtype: object

>  <hbond:SER:36>  (14) 
hbond:SER:36    1
hbond:SER:36    1
Name: 12, dtype: object

>  <hbond:ASP:39>  (14) 
hbond:ASP:39    1
hbond:ASP:39    1
Name: 12, dtype: object

>  <saltbridge:ASP:39>  (14) 
saltbridge:ASP:39    0
saltbridge:ASP:39    0
Name: 12, dtype: object

>  <hydroph_interaction:ASP:39>  (14) 
hydroph_interaction:ASP:39    1
hydroph_interaction:ASP:39    1
Name: 12, dtype: object

>  <halogenbond:ASP:39>  (14) 
halogenbond:ASP:39    0
halogenbond:ASP:39    0
Name: 12, dtype: object

>  <hydroph_interaction:ILE:82>  (14) 
hydroph_interaction:ILE:82    0
hydroph_interaction:ILE:82    0
Name: 12, dtype: object

>  <hydroph_interaction:PHE:83>  (14) 
hydroph_interaction:PHE:83    0
hydroph_interaction:PHE:83    0
Name: 12, dtype: object

>  <hbond:PHE:83>  (14) 
hbond:PHE:83    0
hbond:PHE:83    0
Name: 12, dtype: object

>  <halogenbond:PHE:83>  (14) 
halogenbond:PHE:83    0
halogenbond:PHE:83    0
Name: 12, dtype: object

>  <hydroph_interaction:VAL:84>  (14) 
hydroph_interaction:VAL:84    0
hydroph_interaction:VAL:84    0
Name: 12, dtype: object

>  <hydroph_interaction:GLU:85>  (14) 
hydroph_interaction:GLU:85    0
hydroph_interaction:GLU:85    0
Name: 12, dtype: object

>  <hbond:GLU:85>  (14) 
hbond:GLU:85    0
hbond:GLU:85    0
Name: 12, dtype: object

>  <halogenbond:GLU:85>  (14) 
halogenbond:GLU:85    0
halogenbond:GLU:85    0
Name: 12, dtype: object

>  <halogenbond:ALA:86>  (14) 
halogenbond:ALA:86    0
halogenbond:ALA:86    0
Name: 12, dtype: object

>  <hbond:SER:87>  (14) 
hbond:SER:87    1
hbond:SER:87    1
Name: 12, dtype: object

>  <halogenbond:SER:87>  (14) 
halogenbond:SER:87    0
halogenbond:SER:87    0
Name: 12, dtype: object

>  <hbond:GLU:88>  (14) 
hbond:GLU:88    0
hbond:GLU:88    0
Name: 12, dtype: object

>  <halogenbond:GLU:88>  (14) 
halogenbond:GLU:88    0
halogenbond:GLU:88    0
Name: 12, dtype: object

>  <hydroph_interaction:TYR:89>  (14) 
hydroph_interaction:TYR:89    1
hydroph_interaction:TYR:89    1
Name: 12, dtype: object

>  <pistack:TYR:89>  (14) 
pistack:TYR:89    0
pistack:TYR:89    0
Name: 12, dtype: object

>  <hbond:TYR:89>  (14) 
hbond:TYR:89    1
hbond:TYR:89    1
Name: 12, dtype: object

>  <hbond:TYR:90>  (14) 
hbond:TYR:90    0
hbond:TYR:90    0
Name: 12, dtype: object

>  <hydroph_interaction:TYR:90>  (14) 
hydroph_interaction:TYR:90    2
hydroph_interaction:TYR:90    2
Name: 12, dtype: object

>  <pistack:TYR:90>  (14) 
pistack:TYR:90    0
pistack:TYR:90    0
Name: 12, dtype: object

>  <hbond:ARG:93>  (14) 
hbond:ARG:93    0
hbond:ARG:93    0
Name: 12, dtype: object

>  <saltbridge:ARG:93>  (14) 
saltbridge:ARG:93    0
saltbridge:ARG:93    0
Name: 12, dtype: object

>  <hydroph_interaction:ARG:93>  (14) 
hydroph_interaction:ARG:93    0
hydroph_interaction:ARG:93    0
Name: 12, dtype: object

>  <halogenbond:GLN:95>  (14) 
halogenbond:GLN:95    0
halogenbond:GLN:95    0
Name: 12, dtype: object

>  <hbond:GLN:95>  (14) 
hbond:GLN:95    0
hbond:GLN:95    0
Name: 12, dtype: object

>  <hydroph_interaction:GLN:95>  (14) 
hydroph_interaction:GLN:95    0
hydroph_interaction:GLN:95    0
Name: 12, dtype: object

>  <hydroph_interaction:LEU:98>  (14) 
hydroph_interaction:LEU:98    0
hydroph_interaction:LEU:98    0
Name: 12, dtype: object

>  <hydroph_interaction:LEU:100>  (14) 
hydroph_interaction:LEU:100    0
hydroph_interaction:LEU:100    0
Name: 12, dtype: object

>  <hbond:SER:105>  (14) 
hbond:SER:105    0
hbond:SER:105    0
Name: 12, dtype: object

>  <halogenbond:SER:105>  (14) 
halogenbond:SER:105    0
halogenbond:SER:105    0
Name: 12, dtype: object

>  <hydroph_interaction:PRO:107>  (14) 
hydroph_interaction:PRO:107    1
hydroph_interaction:PRO:107    1
Name: 12, dtype: object

>  <hbond:PRO:107>  (14) 
hbond:PRO:107    0
hbond:PRO:107    0
Name: 12, dtype: object

>  <halogenbond:PRO:107>  (14) 
halogenbond:PRO:107    0
halogenbond:PRO:107    0
Name: 12, dtype: object

>  <hbond:ASP:109>  (14) 
hbond:ASP:109    0
hbond:ASP:109    0
Name: 12, dtype: object

>  <hbond:CYS:110>  (14) 
hbond:CYS:110    0
hbond:CYS:110    0
Name: 12, dtype: object

>  <halogenbond:CYS:110>  (14) 
halogenbond:CYS:110    0
halogenbond:CYS:110    0
Name: 12, dtype: object

>  <hydroph_interaction:VAL:124>  (14) 
hydroph_interaction:VAL:124    0
hydroph_interaction:VAL:124    0
Name: 12, dtype: object

>  <hbond:SER:125>  (14) 
hbond:SER:125    0
hbond:SER:125    0
Name: 12, dtype: object

>  <halogenbond:SER:125>  (14) 
halogenbond:SER:125    0
halogenbond:SER:125    0
Name: 12, dtype: object

>  <hydroph_interaction:THR:126>  (14) 
hydroph_interaction:THR:126    0
hydroph_interaction:THR:126    0
Name: 12, dtype: object

>  <hbond:THR:126>  (14) 
hbond:THR:126    0
hbond:THR:126    0
Name: 12, dtype: object

>  <halogenbond:THR:126>  (14) 
halogenbond:THR:126    0
halogenbond:THR:126    0
Name: 12, dtype: object

>  <hbond:GLY:127>  (14) 
hbond:GLY:127    0
hbond:GLY:127    0
Name: 12, dtype: object

>  <halogenbond:GLY:127>  (14) 
halogenbond:GLY:127    0
halogenbond:GLY:127    0
Name: 12, dtype: object

>  <hbond:GLY:128>  (14) 
hbond:GLY:128    0
hbond:GLY:128    0
Name: 12, dtype: object

>  <hbond:ASN:129>  (14) 
hbond:ASN:129    0
hbond:ASN:129    0
Name: 12, dtype: object

>  <hydroph_interaction:ASN:129>  (14) 
hydroph_interaction:ASN:129    0
hydroph_interaction:ASN:129    0
Name: 12, dtype: object

>  <halogenbond:ASN:129>  (14) 
halogenbond:ASN:129    0
halogenbond:ASN:129    0
Name: 12, dtype: object

>  <hydroph_interaction:LEU:131>  (14) 
hydroph_interaction:LEU:131    0
hydroph_interaction:LEU:131    0
Name: 12, dtype: object

>  <hbond:LEU:131>  (14) 
hbond:LEU:131    0
hbond:LEU:131    0
Name: 12, dtype: object

>  <halogenbond:LEU:131>  (14) 
halogenbond:LEU:131    0
halogenbond:LEU:131    0
Name: 12, dtype: object

>  <hbond:VAL:132>  (14) 
hbond:VAL:132    0
hbond:VAL:132    0
Name: 12, dtype: object

$$$$
Z3953577013
     RDKit          3D

 12 12  0  0  0  0  0  0  0  0999 V2000
   29.1435   13.6110    8.5413 C   0  0  0  0  0  0  0  0  0  0  0  0
   29.9887   13.2484    7.3428 C   0  0  0  0  0  0  0  0  0  0  0  0
   29.5092   13.1463    6.2176 O   0  0  0  0  0  0  0  0  0  0  0  0
   31.3430   13.0520    7.5848 N   0  0  0  0  0  0  0  0  0  0  0  0
   32.0185   11.9032    6.9922 C   0  0  0  0  0  0  0  0  0  0  0  0
   33.1050   12.1706    6.0079 C   0  0  0  0  0  0  0  0  0  0  0  0
   33.7669   11.0628    5.4297 C   0  0  0  0  0  0  0  0  0  0  0  0
   33.4022    9.7619    5.7791 C   0  0  0  0  0  0  0  0  0  0  0  0
   32.3879    9.5510    6.7010 C   0  0  0  0  0  0  0  0  0  0  0  0
   32.0088    8.2963    7.0750 O   0  0  0  0  0  0  0  0  0  0  0  0
   31.7239   10.5743    7.2795 C   0  0  0  0  0  0  0  0  0  0  0  0
   30.4103   10.0133    8.4714 Br  0  0  0  0  0  0  0  0  0  0  0  0
  1  2  1  0
  2  3  2  0
  2  4  1  0
  4  5  1  0
  5  6  2  0
  6  7  1  0
  7  8  2  0
  8  9  1  0
  9 10  1  0
  9 11  2  0
 11 12  1  0
 11  5  1  0
A    1
 C1 
A    2
 C2 
A    3
 O1 
A    4
 N1 
A    5
 C3 
A    6
 C4 
A    7
 C5 
A    8
 C6 
A    9
 C7 
A   10
 O2 
A   11
 C8 
A   12
BR1 
M  END
>  <ref_pdb>  (15) 
Ax0310a

>  <ref_mols>  (15) 
Ax0554a,Ax0351a

>  <original SMILES>  (15) 
CC(=O)Nc1cccc(O)c1Br

>  <rationale>  (15) 
info halogenbond:C110; hbond:S105+S87; 

>  <intxn_cluster_10>  (15) 
4

>  <intxn_cluster_rank_10>  (15) 
2

>  <N_interactions>  (15) 
4

>  <∆∆G>  (15) 
-4.828815

>  <$/mg>  (15) 
0.0

>  <comRMSD>  (15) 
0.956167

>  <N_rotatable_bonds>  (15) 
3

>  <deep_P1_sidechain>  (15) 
True

>  <farthest_distance_to_substrate>  (15) 
2.487918

>  <hbond:SER:7>  (15) 
hbond:SER:7    0
hbond:SER:7    0
Name: 13, dtype: object

>  <hydroph_interaction:ASN:19>  (15) 
hydroph_interaction:ASN:19    0
hydroph_interaction:ASN:19    0
Name: 13, dtype: object

>  <halogenbond:ASN:19>  (15) 
halogenbond:ASN:19    0
halogenbond:ASN:19    0
Name: 13, dtype: object

>  <hbond:ARG:20>  (15) 
hbond:ARG:20    0
hbond:ARG:20    0
Name: 13, dtype: object

>  <hydroph_interaction:ARG:20>  (15) 
hydroph_interaction:ARG:20    0
hydroph_interaction:ARG:20    0
Name: 13, dtype: object

>  <hbond:HIS:21>  (15) 
hbond:HIS:21    0
hbond:HIS:21    0
Name: 13, dtype: object

>  <hydroph_interaction:HIS:21>  (15) 
hydroph_interaction:HIS:21    0
hydroph_interaction:HIS:21    0
Name: 13, dtype: object

>  <saltbridge:HIS:21>  (15) 
saltbridge:HIS:21    0
saltbridge:HIS:21    0
Name: 13, dtype: object

>  <pistack:HIS:21>  (15) 
pistack:HIS:21    0
pistack:HIS:21    0
Name: 13, dtype: object

>  <pication:HIS:21>  (15) 
pication:HIS:21    0
pication:HIS:21    0
Name: 13, dtype: object

>  <hydroph_interaction:LEU:22>  (15) 
hydroph_interaction:LEU:22    0
hydroph_interaction:LEU:22    0
Name: 13, dtype: object

>  <hbond:SER:36>  (15) 
hbond:SER:36    0
hbond:SER:36    0
Name: 13, dtype: object

>  <hbond:ASP:39>  (15) 
hbond:ASP:39    0
hbond:ASP:39    0
Name: 13, dtype: object

>  <saltbridge:ASP:39>  (15) 
saltbridge:ASP:39    0
saltbridge:ASP:39    0
Name: 13, dtype: object

>  <hydroph_interaction:ASP:39>  (15) 
hydroph_interaction:ASP:39    0
hydroph_interaction:ASP:39    0
Name: 13, dtype: object

>  <halogenbond:ASP:39>  (15) 
halogenbond:ASP:39    0
halogenbond:ASP:39    0
Name: 13, dtype: object

>  <hydroph_interaction:ILE:82>  (15) 
hydroph_interaction:ILE:82    0
hydroph_interaction:ILE:82    0
Name: 13, dtype: object

>  <hydroph_interaction:PHE:83>  (15) 
hydroph_interaction:PHE:83    0
hydroph_interaction:PHE:83    0
Name: 13, dtype: object

>  <hbond:PHE:83>  (15) 
hbond:PHE:83    0
hbond:PHE:83    0
Name: 13, dtype: object

>  <halogenbond:PHE:83>  (15) 
halogenbond:PHE:83    0
halogenbond:PHE:83    0
Name: 13, dtype: object

>  <hydroph_interaction:VAL:84>  (15) 
hydroph_interaction:VAL:84    0
hydroph_interaction:VAL:84    0
Name: 13, dtype: object

>  <hydroph_interaction:GLU:85>  (15) 
hydroph_interaction:GLU:85    0
hydroph_interaction:GLU:85    0
Name: 13, dtype: object

>  <hbond:GLU:85>  (15) 
hbond:GLU:85    0
hbond:GLU:85    0
Name: 13, dtype: object

>  <halogenbond:GLU:85>  (15) 
halogenbond:GLU:85    0
halogenbond:GLU:85    0
Name: 13, dtype: object

>  <halogenbond:ALA:86>  (15) 
halogenbond:ALA:86    0
halogenbond:ALA:86    0
Name: 13, dtype: object

>  <hbond:SER:87>  (15) 
hbond:SER:87    2
hbond:SER:87    2
Name: 13, dtype: object

>  <halogenbond:SER:87>  (15) 
halogenbond:SER:87    0
halogenbond:SER:87    0
Name: 13, dtype: object

>  <hbond:GLU:88>  (15) 
hbond:GLU:88    0
hbond:GLU:88    0
Name: 13, dtype: object

>  <halogenbond:GLU:88>  (15) 
halogenbond:GLU:88    0
halogenbond:GLU:88    0
Name: 13, dtype: object

>  <hydroph_interaction:TYR:89>  (15) 
hydroph_interaction:TYR:89    0
hydroph_interaction:TYR:89    0
Name: 13, dtype: object

>  <pistack:TYR:89>  (15) 
pistack:TYR:89    0
pistack:TYR:89    0
Name: 13, dtype: object

>  <hbond:TYR:89>  (15) 
hbond:TYR:89    0
hbond:TYR:89    0
Name: 13, dtype: object

>  <hbond:TYR:90>  (15) 
hbond:TYR:90    0
hbond:TYR:90    0
Name: 13, dtype: object

>  <hydroph_interaction:TYR:90>  (15) 
hydroph_interaction:TYR:90    0
hydroph_interaction:TYR:90    0
Name: 13, dtype: object

>  <pistack:TYR:90>  (15) 
pistack:TYR:90    0
pistack:TYR:90    0
Name: 13, dtype: object

>  <hbond:ARG:93>  (15) 
hbond:ARG:93    0
hbond:ARG:93    0
Name: 13, dtype: object

>  <saltbridge:ARG:93>  (15) 
saltbridge:ARG:93    0
saltbridge:ARG:93    0
Name: 13, dtype: object

>  <hydroph_interaction:ARG:93>  (15) 
hydroph_interaction:ARG:93    0
hydroph_interaction:ARG:93    0
Name: 13, dtype: object

>  <halogenbond:GLN:95>  (15) 
halogenbond:GLN:95    0
halogenbond:GLN:95    0
Name: 13, dtype: object

>  <hbond:GLN:95>  (15) 
hbond:GLN:95    0
hbond:GLN:95    0
Name: 13, dtype: object

>  <hydroph_interaction:GLN:95>  (15) 
hydroph_interaction:GLN:95    0
hydroph_interaction:GLN:95    0
Name: 13, dtype: object

>  <hydroph_interaction:LEU:98>  (15) 
hydroph_interaction:LEU:98    0
hydroph_interaction:LEU:98    0
Name: 13, dtype: object

>  <hydroph_interaction:LEU:100>  (15) 
hydroph_interaction:LEU:100    0
hydroph_interaction:LEU:100    0
Name: 13, dtype: object

>  <hbond:SER:105>  (15) 
hbond:SER:105    1
hbond:SER:105    1
Name: 13, dtype: object

>  <halogenbond:SER:105>  (15) 
halogenbond:SER:105    0
halogenbond:SER:105    0
Name: 13, dtype: object

>  <hydroph_interaction:PRO:107>  (15) 
hydroph_interaction:PRO:107    0
hydroph_interaction:PRO:107    0
Name: 13, dtype: object

>  <hbond:PRO:107>  (15) 
hbond:PRO:107    0
hbond:PRO:107    0
Name: 13, dtype: object

>  <halogenbond:PRO:107>  (15) 
halogenbond:PRO:107    0
halogenbond:PRO:107    0
Name: 13, dtype: object

>  <hbond:ASP:109>  (15) 
hbond:ASP:109    0
hbond:ASP:109    0
Name: 13, dtype: object

>  <hbond:CYS:110>  (15) 
hbond:CYS:110    0
hbond:CYS:110    0
Name: 13, dtype: object

>  <halogenbond:CYS:110>  (15) 
halogenbond:CYS:110    1
halogenbond:CYS:110    1
Name: 13, dtype: object

>  <hydroph_interaction:VAL:124>  (15) 
hydroph_interaction:VAL:124    0
hydroph_interaction:VAL:124    0
Name: 13, dtype: object

>  <hbond:SER:125>  (15) 
hbond:SER:125    0
hbond:SER:125    0
Name: 13, dtype: object

>  <halogenbond:SER:125>  (15) 
halogenbond:SER:125    0
halogenbond:SER:125    0
Name: 13, dtype: object

>  <hydroph_interaction:THR:126>  (15) 
hydroph_interaction:THR:126    0
hydroph_interaction:THR:126    0
Name: 13, dtype: object

>  <hbond:THR:126>  (15) 
hbond:THR:126    0
hbond:THR:126    0
Name: 13, dtype: object

>  <halogenbond:THR:126>  (15) 
halogenbond:THR:126    0
halogenbond:THR:126    0
Name: 13, dtype: object

>  <hbond:GLY:127>  (15) 
hbond:GLY:127    0
hbond:GLY:127    0
Name: 13, dtype: object

>  <halogenbond:GLY:127>  (15) 
halogenbond:GLY:127    0
halogenbond:GLY:127    0
Name: 13, dtype: object

>  <hbond:GLY:128>  (15) 
hbond:GLY:128    0
hbond:GLY:128    0
Name: 13, dtype: object

>  <hbond:ASN:129>  (15) 
hbond:ASN:129    0
hbond:ASN:129    0
Name: 13, dtype: object

>  <hydroph_interaction:ASN:129>  (15) 
hydroph_interaction:ASN:129    0
hydroph_interaction:ASN:129    0
Name: 13, dtype: object

>  <halogenbond:ASN:129>  (15) 
halogenbond:ASN:129    0
halogenbond:ASN:129    0
Name: 13, dtype: object

>  <hydroph_interaction:LEU:131>  (15) 
hydroph_interaction:LEU:131    0
hydroph_interaction:LEU:131    0
Name: 13, dtype: object

>  <hbond:LEU:131>  (15) 
hbond:LEU:131    0
hbond:LEU:131    0
Name: 13, dtype: object

>  <halogenbond:LEU:131>  (15) 
halogenbond:LEU:131    0
halogenbond:LEU:131    0
Name: 13, dtype: object

>  <hbond:VAL:132>  (15) 
hbond:VAL:132    0
hbond:VAL:132    0
Name: 13, dtype: object

$$$$
PV_006297527551
     RDKit          3D

 23 25  0  0  0  0  0  0  0  0999 V2000
   28.4314   17.4624    8.9714 O   0  0  0  0  0  0  0  0  0  0  0  0
   27.9539   16.6708    9.7471 C   0  0  0  0  0  0  0  0  0  0  0  0
   27.2029   17.0140   11.0407 C   0  0  0  0  0  0  0  0  0  0  0  0
   26.2295   18.0013   11.1458 N   0  0  0  0  0  0  0  0  0  0  0  0
   26.6071   19.3660   11.4391 C   0  0  0  0  0  0  0  0  0  0  0  0
   25.2506   20.0170   11.4389 C   0  0  0  0  0  0  0  0  0  0  0  0
   24.6404   19.1388   12.4809 C   0  0  0  0  0  0  0  0  0  0  0  0
   25.3557   17.8150   12.2914 C   0  0  0  0  0  0  0  0  0  0  0  0
   28.1760   15.3390    9.4210 N   0  0  0  0  0  0  0  0  0  0  0  0
   27.9650   14.7872    8.0711 C   0  0  0  0  0  0  0  0  0  0  0  0
   28.5949   13.4004    7.9556 C   0  0  0  0  0  0  0  0  0  0  0  0
   30.0486   13.4877    8.1026 N   0  0  0  0  0  0  0  0  0  0  0  0
   30.8553   12.9280    7.0979 C   0  0  0  0  0  0  0  0  0  0  0  0
   31.2181   13.5500    6.1075 O   0  0  0  0  0  0  0  0  0  0  0  0
   31.2605   11.4561    7.1867 C   0  0  0  0  0  0  0  0  0  0  0  0
   30.5243   10.5948    7.9804 C   0  0  0  0  0  0  0  0  0  0  0  0
   30.9687    9.1502    7.9822 C   0  0  0  0  0  0  0  0  0  0  0  0
   32.0197    8.7795    7.2418 N   0  0  0  0  0  0  0  0  0  0  0  0
   32.7090    9.7010    6.4915 N   0  0  0  0  0  0  0  0  0  0  0  0
   32.3523   10.9956    6.4638 C   0  0  0  0  0  0  0  0  0  0  0  0
   33.3809   12.0184    5.4515 S   0  0  0  0  0  0  0  0  0  0  0  0
   30.4971   14.3148    9.2474 C   0  0  0  0  0  0  0  0  0  0  0  0
   29.3225   14.7644   10.1277 C   0  0  0  0  0  0  0  0  0  0  0  0
  1  2  2  0
  2  3  1  0
  3  4  1  0
  4  5  1  0
  5  6  1  0
  6  7  1  0
  7  8  1  0
  2  9  1  0
  9 10  1  0
 10 11  1  0
 11 12  1  0
 12 13  1  0
 13 14  2  0
 13 15  1  0
 15 16  2  0
 16 17  1  0
 17 18  2  0
 18 19  1  0
 19 20  2  0
 20 21  1  0
 12 22  1  0
 22 23  1  0
  8  4  1  0
 23  9  1  0
 20 15  1  0
A    1
 O1 
A    2
 C1 
A    3
 C2 
A    4
 N1 
A    5
 C3 
A    6
 C4 
A    7
 C5 
A    8
 C6 
A    9
 N2 
A   10
 C7 
A   11
 C8 
A   12
 N3 
A   13
 C9 
A   14
 O2 
A   15
 C10
A   16
 C11
A   17
 C12
A   18
 N4 
A   19
 N5 
A   20
 C13
A   21
 S1 
A   22
 C14
A   23
 C15
M  END
>  <ref_pdb>  (16) 
Ax0310a

>  <ref_mols>  (16) 
Ax0528a,Ax0375a

>  <original SMILES>  (16) 
O=C(CN1CCCC1)N1CCN(C(=O)c2ccnnc2S)CC1

>  <rationale>  (16) 
info hbond:S105; hydroph_interaction:R20; saltbridge:D39; 

>  <intxn_cluster_10>  (16) 
2

>  <intxn_cluster_rank_10>  (16) 
2

>  <N_interactions>  (16) 
3

>  <∆∆G>  (16) 
-6.924535

>  <$/mg>  (16) 
244.5

>  <comRMSD>  (16) 
0.945618

>  <N_rotatable_bonds>  (16) 
4

>  <deep_P1_sidechain>  (16) 
True

>  <farthest_distance_to_substrate>  (16) 
4.500185

>  <hbond:SER:7>  (16) 
hbond:SER:7    0
hbond:SER:7    0
Name: 14, dtype: object

>  <hydroph_interaction:ASN:19>  (16) 
hydroph_interaction:ASN:19    0
hydroph_interaction:ASN:19    0
Name: 14, dtype: object

>  <halogenbond:ASN:19>  (16) 
halogenbond:ASN:19    0
halogenbond:ASN:19    0
Name: 14, dtype: object

>  <hbond:ARG:20>  (16) 
hbond:ARG:20    0
hbond:ARG:20    0
Name: 14, dtype: object

>  <hydroph_interaction:ARG:20>  (16) 
hydroph_interaction:ARG:20    1
hydroph_interaction:ARG:20    1
Name: 14, dtype: object

>  <hbond:HIS:21>  (16) 
hbond:HIS:21    0
hbond:HIS:21    0
Name: 14, dtype: object

>  <hydroph_interaction:HIS:21>  (16) 
hydroph_interaction:HIS:21    0
hydroph_interaction:HIS:21    0
Name: 14, dtype: object

>  <saltbridge:HIS:21>  (16) 
saltbridge:HIS:21    0
saltbridge:HIS:21    0
Name: 14, dtype: object

>  <pistack:HIS:21>  (16) 
pistack:HIS:21    0
pistack:HIS:21    0
Name: 14, dtype: object

>  <pication:HIS:21>  (16) 
pication:HIS:21    0
pication:HIS:21    0
Name: 14, dtype: object

>  <hydroph_interaction:LEU:22>  (16) 
hydroph_interaction:LEU:22    0
hydroph_interaction:LEU:22    0
Name: 14, dtype: object

>  <hbond:SER:36>  (16) 
hbond:SER:36    0
hbond:SER:36    0
Name: 14, dtype: object

>  <hbond:ASP:39>  (16) 
hbond:ASP:39    0
hbond:ASP:39    0
Name: 14, dtype: object

>  <saltbridge:ASP:39>  (16) 
saltbridge:ASP:39    1
saltbridge:ASP:39    1
Name: 14, dtype: object

>  <hydroph_interaction:ASP:39>  (16) 
hydroph_interaction:ASP:39    0
hydroph_interaction:ASP:39    0
Name: 14, dtype: object

>  <halogenbond:ASP:39>  (16) 
halogenbond:ASP:39    0
halogenbond:ASP:39    0
Name: 14, dtype: object

>  <hydroph_interaction:ILE:82>  (16) 
hydroph_interaction:ILE:82    0
hydroph_interaction:ILE:82    0
Name: 14, dtype: object

>  <hydroph_interaction:PHE:83>  (16) 
hydroph_interaction:PHE:83    0
hydroph_interaction:PHE:83    0
Name: 14, dtype: object

>  <hbond:PHE:83>  (16) 
hbond:PHE:83    0
hbond:PHE:83    0
Name: 14, dtype: object

>  <halogenbond:PHE:83>  (16) 
halogenbond:PHE:83    0
halogenbond:PHE:83    0
Name: 14, dtype: object

>  <hydroph_interaction:VAL:84>  (16) 
hydroph_interaction:VAL:84    0
hydroph_interaction:VAL:84    0
Name: 14, dtype: object

>  <hydroph_interaction:GLU:85>  (16) 
hydroph_interaction:GLU:85    0
hydroph_interaction:GLU:85    0
Name: 14, dtype: object

>  <hbond:GLU:85>  (16) 
hbond:GLU:85    0
hbond:GLU:85    0
Name: 14, dtype: object

>  <halogenbond:GLU:85>  (16) 
halogenbond:GLU:85    0
halogenbond:GLU:85    0
Name: 14, dtype: object

>  <halogenbond:ALA:86>  (16) 
halogenbond:ALA:86    0
halogenbond:ALA:86    0
Name: 14, dtype: object

>  <hbond:SER:87>  (16) 
hbond:SER:87    0
hbond:SER:87    0
Name: 14, dtype: object

>  <halogenbond:SER:87>  (16) 
halogenbond:SER:87    0
halogenbond:SER:87    0
Name: 14, dtype: object

>  <hbond:GLU:88>  (16) 
hbond:GLU:88    0
hbond:GLU:88    0
Name: 14, dtype: object

>  <halogenbond:GLU:88>  (16) 
halogenbond:GLU:88    0
halogenbond:GLU:88    0
Name: 14, dtype: object

>  <hydroph_interaction:TYR:89>  (16) 
hydroph_interaction:TYR:89    0
hydroph_interaction:TYR:89    0
Name: 14, dtype: object

>  <pistack:TYR:89>  (16) 
pistack:TYR:89    0
pistack:TYR:89    0
Name: 14, dtype: object

>  <hbond:TYR:89>  (16) 
hbond:TYR:89    0
hbond:TYR:89    0
Name: 14, dtype: object

>  <hbond:TYR:90>  (16) 
hbond:TYR:90    0
hbond:TYR:90    0
Name: 14, dtype: object

>  <hydroph_interaction:TYR:90>  (16) 
hydroph_interaction:TYR:90    0
hydroph_interaction:TYR:90    0
Name: 14, dtype: object

>  <pistack:TYR:90>  (16) 
pistack:TYR:90    0
pistack:TYR:90    0
Name: 14, dtype: object

>  <hbond:ARG:93>  (16) 
hbond:ARG:93    0
hbond:ARG:93    0
Name: 14, dtype: object

>  <saltbridge:ARG:93>  (16) 
saltbridge:ARG:93    0
saltbridge:ARG:93    0
Name: 14, dtype: object

>  <hydroph_interaction:ARG:93>  (16) 
hydroph_interaction:ARG:93    0
hydroph_interaction:ARG:93    0
Name: 14, dtype: object

>  <halogenbond:GLN:95>  (16) 
halogenbond:GLN:95    0
halogenbond:GLN:95    0
Name: 14, dtype: object

>  <hbond:GLN:95>  (16) 
hbond:GLN:95    0
hbond:GLN:95    0
Name: 14, dtype: object

>  <hydroph_interaction:GLN:95>  (16) 
hydroph_interaction:GLN:95    0
hydroph_interaction:GLN:95    0
Name: 14, dtype: object

>  <hydroph_interaction:LEU:98>  (16) 
hydroph_interaction:LEU:98    0
hydroph_interaction:LEU:98    0
Name: 14, dtype: object

>  <hydroph_interaction:LEU:100>  (16) 
hydroph_interaction:LEU:100    0
hydroph_interaction:LEU:100    0
Name: 14, dtype: object

>  <hbond:SER:105>  (16) 
hbond:SER:105    1
hbond:SER:105    1
Name: 14, dtype: object

>  <halogenbond:SER:105>  (16) 
halogenbond:SER:105    0
halogenbond:SER:105    0
Name: 14, dtype: object

>  <hydroph_interaction:PRO:107>  (16) 
hydroph_interaction:PRO:107    0
hydroph_interaction:PRO:107    0
Name: 14, dtype: object

>  <hbond:PRO:107>  (16) 
hbond:PRO:107    0
hbond:PRO:107    0
Name: 14, dtype: object

>  <halogenbond:PRO:107>  (16) 
halogenbond:PRO:107    0
halogenbond:PRO:107    0
Name: 14, dtype: object

>  <hbond:ASP:109>  (16) 
hbond:ASP:109    0
hbond:ASP:109    0
Name: 14, dtype: object

>  <hbond:CYS:110>  (16) 
hbond:CYS:110    0
hbond:CYS:110    0
Name: 14, dtype: object

>  <halogenbond:CYS:110>  (16) 
halogenbond:CYS:110    0
halogenbond:CYS:110    0
Name: 14, dtype: object

>  <hydroph_interaction:VAL:124>  (16) 
hydroph_interaction:VAL:124    0
hydroph_interaction:VAL:124    0
Name: 14, dtype: object

>  <hbond:SER:125>  (16) 
hbond:SER:125    0
hbond:SER:125    0
Name: 14, dtype: object

>  <halogenbond:SER:125>  (16) 
halogenbond:SER:125    0
halogenbond:SER:125    0
Name: 14, dtype: object

>  <hydroph_interaction:THR:126>  (16) 
hydroph_interaction:THR:126    0
hydroph_interaction:THR:126    0
Name: 14, dtype: object

>  <hbond:THR:126>  (16) 
hbond:THR:126    0
hbond:THR:126    0
Name: 14, dtype: object

>  <halogenbond:THR:126>  (16) 
halogenbond:THR:126    0
halogenbond:THR:126    0
Name: 14, dtype: object

>  <hbond:GLY:127>  (16) 
hbond:GLY:127    0
hbond:GLY:127    0
Name: 14, dtype: object

>  <halogenbond:GLY:127>  (16) 
halogenbond:GLY:127    0
halogenbond:GLY:127    0
Name: 14, dtype: object

>  <hbond:GLY:128>  (16) 
hbond:GLY:128    0
hbond:GLY:128    0
Name: 14, dtype: object

>  <hbond:ASN:129>  (16) 
hbond:ASN:129    0
hbond:ASN:129    0
Name: 14, dtype: object

>  <hydroph_interaction:ASN:129>  (16) 
hydroph_interaction:ASN:129    0
hydroph_interaction:ASN:129    0
Name: 14, dtype: object

>  <halogenbond:ASN:129>  (16) 
halogenbond:ASN:129    0
halogenbond:ASN:129    0
Name: 14, dtype: object

>  <hydroph_interaction:LEU:131>  (16) 
hydroph_interaction:LEU:131    0
hydroph_interaction:LEU:131    0
Name: 14, dtype: object

>  <hbond:LEU:131>  (16) 
hbond:LEU:131    0
hbond:LEU:131    0
Name: 14, dtype: object

>  <halogenbond:LEU:131>  (16) 
halogenbond:LEU:131    0
halogenbond:LEU:131    0
Name: 14, dtype: object

>  <hbond:VAL:132>  (16) 
hbond:VAL:132    0
hbond:VAL:132    0
Name: 14, dtype: object

$$$$
PV_006825438282
     RDKit          3D

 24 26  0  0  0  0  0  0  0  0999 V2000
   34.4206   12.4676    5.5273 C   0  0  0  0  0  0  0  0  0  0  0  0
   33.9634   11.3436    4.8517 N   0  0  0  0  0  0  0  0  0  0  0  0
   33.4368   10.1750    5.4541 C   0  0  0  0  0  0  0  0  0  0  0  0
   33.8170    9.0464    5.2309 O   0  0  0  0  0  0  0  0  0  0  0  0
   32.4117   10.2215    6.3814 C   0  0  0  0  0  0  0  0  0  0  0  0
   31.9934    9.0801    7.3031 C   0  0  0  0  0  0  0  0  0  0  0  0
   30.9553    9.3187    8.1988 C   0  0  0  0  0  0  0  0  0  0  0  0
   30.4567    8.4219    9.1094 C   0  0  0  0  0  0  0  0  0  0  0  0
   30.3603   10.5279    8.2114 C   0  0  0  0  0  0  0  0  0  0  0  0
   30.6883   11.5565    7.3889 C   0  0  0  0  0  0  0  0  0  0  0  0
   30.0093   12.7439    7.4980 N   0  0  0  0  0  0  0  0  0  0  0  0
   30.7082   13.5312    8.3008 C   0  0  0  0  0  0  0  0  0  0  0  0
   32.1867   13.3913    8.0602 C   0  0  0  0  0  0  0  0  0  0  0  0
   33.0187   14.1809    8.8885 C   0  0  0  0  0  0  0  0  0  0  0  0
   32.4319   14.9477    9.7790 N   0  0  0  0  0  0  0  0  0  0  0  0
   31.1150   15.0133    9.9569 C   0  0  0  0  0  0  0  0  0  0  0  0
   30.8323   15.9632   11.1290 C   0  0  0  0  0  0  0  0  0  0  0  0
   31.9575   16.9380   11.3670 C   0  0  0  0  0  0  0  0  0  0  0  0
   31.9758   17.8709   12.3636 C   0  0  0  0  0  0  0  0  0  0  0  0
   30.8345   17.8765   13.1864 C   0  0  0  0  0  0  0  0  0  0  0  0
   29.7638   17.0038   13.0055 C   0  0  0  0  0  0  0  0  0  0  0  0
   29.7434   16.0377   11.9849 C   0  0  0  0  0  0  0  0  0  0  0  0
   30.1768   14.3408    9.2428 N   0  0  0  0  0  0  0  0  0  0  0  0
   31.7199   11.4149    6.4721 C   0  0  0  0  0  0  0  0  0  0  0  0
  1  2  1  0
  2  3  1  0
  3  4  2  0
  3  5  1  0
  5  6  2  0
  6  7  1  0
  7  8  1  0
  7  9  2  0
  9 10  1  0
 10 11  1  0
 11 12  1  0
 12 13  2  0
 13 14  1  0
 14 15  2  0
 15 16  1  0
 16 17  1  0
 17 18  2  0
 18 19  1  0
 19 20  2  0
 20 21  1  0
 21 22  2  0
 16 23  2  0
 10 24  2  0
 24  5  1  0
 23 12  1  0
 22 17  1  0
A    1
 C1 
A    2
 N1 
A    3
 C2 
A    4
 O1 
A    5
 C3 
A    6
 C4 
A    7
 C5 
A    8
 C6 
A    9
 C7 
A   10
 C8 
A   11
 N2 
A   12
 C9 
A   13
 C10
A   14
 C11
A   15
 N3 
A   16
 C12
A   17
 C13
A   18
 C14
A   19
 C15
A   20
 C16
A   21
 C17
A   22
 C18
A   23
 N4 
A   24
 C19
M  END
>  <ref_pdb>  (17) 
Ax0310a

>  <ref_mols>  (17) 
Ax0554a,Ax0739a

>  <original SMILES>  (17) 
CNC(=O)c1cc(C)cc(Nc2ccnc(-c3ccccc3)n2)c1

>  <rationale>  (17) 
info hbond:S87; hydroph_interaction:P107+V124+Y90+T126+V84+D39+Q95+R93; 

>  <intxn_cluster_10>  (17) 
4

>  <intxn_cluster_rank_10>  (17) 
2

>  <N_interactions>  (17) 
12

>  <∆∆G>  (17) 
-11.564674

>  <$/mg>  (17) 
163.0

>  <comRMSD>  (17) 
0.727574

>  <N_rotatable_bonds>  (17) 
6

>  <deep_P1_sidechain>  (17) 
True

>  <farthest_distance_to_substrate>  (17) 
3.16584

>  <hbond:SER:7>  (17) 
hbond:SER:7    0
hbond:SER:7    0
Name: 15, dtype: object

>  <hydroph_interaction:ASN:19>  (17) 
hydroph_interaction:ASN:19    0
hydroph_interaction:ASN:19    0
Name: 15, dtype: object

>  <halogenbond:ASN:19>  (17) 
halogenbond:ASN:19    0
halogenbond:ASN:19    0
Name: 15, dtype: object

>  <hbond:ARG:20>  (17) 
hbond:ARG:20    0
hbond:ARG:20    0
Name: 15, dtype: object

>  <hydroph_interaction:ARG:20>  (17) 
hydroph_interaction:ARG:20    0
hydroph_interaction:ARG:20    0
Name: 15, dtype: object

>  <hbond:HIS:21>  (17) 
hbond:HIS:21    0
hbond:HIS:21    0
Name: 15, dtype: object

>  <hydroph_interaction:HIS:21>  (17) 
hydroph_interaction:HIS:21    0
hydroph_interaction:HIS:21    0
Name: 15, dtype: object

>  <saltbridge:HIS:21>  (17) 
saltbridge:HIS:21    0
saltbridge:HIS:21    0
Name: 15, dtype: object

>  <pistack:HIS:21>  (17) 
pistack:HIS:21    0
pistack:HIS:21    0
Name: 15, dtype: object

>  <pication:HIS:21>  (17) 
pication:HIS:21    0
pication:HIS:21    0
Name: 15, dtype: object

>  <hydroph_interaction:LEU:22>  (17) 
hydroph_interaction:LEU:22    0
hydroph_interaction:LEU:22    0
Name: 15, dtype: object

>  <hbond:SER:36>  (17) 
hbond:SER:36    0
hbond:SER:36    0
Name: 15, dtype: object

>  <hbond:ASP:39>  (17) 
hbond:ASP:39    0
hbond:ASP:39    0
Name: 15, dtype: object

>  <saltbridge:ASP:39>  (17) 
saltbridge:ASP:39    0
saltbridge:ASP:39    0
Name: 15, dtype: object

>  <hydroph_interaction:ASP:39>  (17) 
hydroph_interaction:ASP:39    1
hydroph_interaction:ASP:39    1
Name: 15, dtype: object

>  <halogenbond:ASP:39>  (17) 
halogenbond:ASP:39    0
halogenbond:ASP:39    0
Name: 15, dtype: object

>  <hydroph_interaction:ILE:82>  (17) 
hydroph_interaction:ILE:82    0
hydroph_interaction:ILE:82    0
Name: 15, dtype: object

>  <hydroph_interaction:PHE:83>  (17) 
hydroph_interaction:PHE:83    0
hydroph_interaction:PHE:83    0
Name: 15, dtype: object

>  <hbond:PHE:83>  (17) 
hbond:PHE:83    0
hbond:PHE:83    0
Name: 15, dtype: object

>  <halogenbond:PHE:83>  (17) 
halogenbond:PHE:83    0
halogenbond:PHE:83    0
Name: 15, dtype: object

>  <hydroph_interaction:VAL:84>  (17) 
hydroph_interaction:VAL:84    2
hydroph_interaction:VAL:84    2
Name: 15, dtype: object

>  <hydroph_interaction:GLU:85>  (17) 
hydroph_interaction:GLU:85    0
hydroph_interaction:GLU:85    0
Name: 15, dtype: object

>  <hbond:GLU:85>  (17) 
hbond:GLU:85    0
hbond:GLU:85    0
Name: 15, dtype: object

>  <halogenbond:GLU:85>  (17) 
halogenbond:GLU:85    0
halogenbond:GLU:85    0
Name: 15, dtype: object

>  <halogenbond:ALA:86>  (17) 
halogenbond:ALA:86    0
halogenbond:ALA:86    0
Name: 15, dtype: object

>  <hbond:SER:87>  (17) 
hbond:SER:87    1
hbond:SER:87    1
Name: 15, dtype: object

>  <halogenbond:SER:87>  (17) 
halogenbond:SER:87    0
halogenbond:SER:87    0
Name: 15, dtype: object

>  <hbond:GLU:88>  (17) 
hbond:GLU:88    0
hbond:GLU:88    0
Name: 15, dtype: object

>  <halogenbond:GLU:88>  (17) 
halogenbond:GLU:88    0
halogenbond:GLU:88    0
Name: 15, dtype: object

>  <hydroph_interaction:TYR:89>  (17) 
hydroph_interaction:TYR:89    0
hydroph_interaction:TYR:89    0
Name: 15, dtype: object

>  <pistack:TYR:89>  (17) 
pistack:TYR:89    0
pistack:TYR:89    0
Name: 15, dtype: object

>  <hbond:TYR:89>  (17) 
hbond:TYR:89    0
hbond:TYR:89    0
Name: 15, dtype: object

>  <hbond:TYR:90>  (17) 
hbond:TYR:90    0
hbond:TYR:90    0
Name: 15, dtype: object

>  <hydroph_interaction:TYR:90>  (17) 
hydroph_interaction:TYR:90    3
hydroph_interaction:TYR:90    3
Name: 15, dtype: object

>  <pistack:TYR:90>  (17) 
pistack:TYR:90    0
pistack:TYR:90    0
Name: 15, dtype: object

>  <hbond:ARG:93>  (17) 
hbond:ARG:93    0
hbond:ARG:93    0
Name: 15, dtype: object

>  <saltbridge:ARG:93>  (17) 
saltbridge:ARG:93    0
saltbridge:ARG:93    0
Name: 15, dtype: object

>  <hydroph_interaction:ARG:93>  (17) 
hydroph_interaction:ARG:93    1
hydroph_interaction:ARG:93    1
Name: 15, dtype: object

>  <halogenbond:GLN:95>  (17) 
halogenbond:GLN:95    0
halogenbond:GLN:95    0
Name: 15, dtype: object

>  <hbond:GLN:95>  (17) 
hbond:GLN:95    0
hbond:GLN:95    0
Name: 15, dtype: object

>  <hydroph_interaction:GLN:95>  (17) 
hydroph_interaction:GLN:95    1
hydroph_interaction:GLN:95    1
Name: 15, dtype: object

>  <hydroph_interaction:LEU:98>  (17) 
hydroph_interaction:LEU:98    0
hydroph_interaction:LEU:98    0
Name: 15, dtype: object

>  <hydroph_interaction:LEU:100>  (17) 
hydroph_interaction:LEU:100    0
hydroph_interaction:LEU:100    0
Name: 15, dtype: object

>  <hbond:SER:105>  (17) 
hbond:SER:105    0
hbond:SER:105    0
Name: 15, dtype: object

>  <halogenbond:SER:105>  (17) 
halogenbond:SER:105    0
halogenbond:SER:105    0
Name: 15, dtype: object

>  <hydroph_interaction:PRO:107>  (17) 
hydroph_interaction:PRO:107    1
hydroph_interaction:PRO:107    1
Name: 15, dtype: object

>  <hbond:PRO:107>  (17) 
hbond:PRO:107    0
hbond:PRO:107    0
Name: 15, dtype: object

>  <halogenbond:PRO:107>  (17) 
halogenbond:PRO:107    0
halogenbond:PRO:107    0
Name: 15, dtype: object

>  <hbond:ASP:109>  (17) 
hbond:ASP:109    0
hbond:ASP:109    0
Name: 15, dtype: object

>  <hbond:CYS:110>  (17) 
hbond:CYS:110    0
hbond:CYS:110    0
Name: 15, dtype: object

>  <halogenbond:CYS:110>  (17) 
halogenbond:CYS:110    0
halogenbond:CYS:110    0
Name: 15, dtype: object

>  <hydroph_interaction:VAL:124>  (17) 
hydroph_interaction:VAL:124    1
hydroph_interaction:VAL:124    1
Name: 15, dtype: object

>  <hbond:SER:125>  (17) 
hbond:SER:125    0
hbond:SER:125    0
Name: 15, dtype: object

>  <halogenbond:SER:125>  (17) 
halogenbond:SER:125    0
halogenbond:SER:125    0
Name: 15, dtype: object

>  <hydroph_interaction:THR:126>  (17) 
hydroph_interaction:THR:126    1
hydroph_interaction:THR:126    1
Name: 15, dtype: object

>  <hbond:THR:126>  (17) 
hbond:THR:126    0
hbond:THR:126    0
Name: 15, dtype: object

>  <halogenbond:THR:126>  (17) 
halogenbond:THR:126    0
halogenbond:THR:126    0
Name: 15, dtype: object

>  <hbond:GLY:127>  (17) 
hbond:GLY:127    0
hbond:GLY:127    0
Name: 15, dtype: object

>  <halogenbond:GLY:127>  (17) 
halogenbond:GLY:127    0
halogenbond:GLY:127    0
Name: 15, dtype: object

>  <hbond:GLY:128>  (17) 
hbond:GLY:128    0
hbond:GLY:128    0
Name: 15, dtype: object

>  <hbond:ASN:129>  (17) 
hbond:ASN:129    0
hbond:ASN:129    0
Name: 15, dtype: object

>  <hydroph_interaction:ASN:129>  (17) 
hydroph_interaction:ASN:129    0
hydroph_interaction:ASN:129    0
Name: 15, dtype: object

>  <halogenbond:ASN:129>  (17) 
halogenbond:ASN:129    0
halogenbond:ASN:129    0
Name: 15, dtype: object

>  <hydroph_interaction:LEU:131>  (17) 
hydroph_interaction:LEU:131    0
hydroph_interaction:LEU:131    0
Name: 15, dtype: object

>  <hbond:LEU:131>  (17) 
hbond:LEU:131    0
hbond:LEU:131    0
Name: 15, dtype: object

>  <halogenbond:LEU:131>  (17) 
halogenbond:LEU:131    0
halogenbond:LEU:131    0
Name: 15, dtype: object

>  <hbond:VAL:132>  (17) 
hbond:VAL:132    0
hbond:VAL:132    0
Name: 15, dtype: object

$$$$
PV_005597406472
     RDKit          3D

 17 18  0  0  0  0  0  0  0  0999 V2000
   30.7530    8.4055    8.8013 C   0  0  0  0  0  0  0  0  0  0  0  0
   31.0824    9.5587    8.0113 N   0  0  0  0  0  0  0  0  0  0  0  0
   32.0124    9.6459    7.0153 C   0  0  0  0  0  0  0  0  0  0  0  0
   31.9898   10.9373    6.5413 C   0  0  0  0  0  0  0  0  0  0  0  0
   31.0110   11.6746    7.2663 C   0  0  0  0  0  0  0  0  0  0  0  0
   30.5964   12.9959    7.1826 C   0  0  0  0  0  0  0  0  0  0  0  0
   29.5085   13.3705    7.9102 N   0  0  0  0  0  0  0  0  0  0  0  0
   29.6903   14.0471    9.0858 C   0  0  0  0  0  0  0  0  0  0  0  0
   28.6428   14.4917    9.8809 N   0  0  0  0  0  0  0  0  0  0  0  0
   30.9082   14.3631    9.6415 N   0  0  0  0  0  0  0  0  0  0  0  0
   31.3640   15.5318   10.2950 C   0  0  0  0  0  0  0  0  0  0  0  0
   30.8106   15.8554   11.5050 C   0  0  0  0  0  0  0  0  0  0  0  0
   31.2803   16.9925   12.1402 C   0  0  0  0  0  0  0  0  0  0  0  0
   32.2547   17.7871   11.6011 C   0  0  0  0  0  0  0  0  0  0  0  0
   32.7680   17.4321   10.3904 C   0  0  0  0  0  0  0  0  0  0  0  0
   32.3211   16.3182    9.7729 N   0  0  0  0  0  0  0  0  0  0  0  0
   30.4891   10.7676    8.1576 C   0  0  0  0  0  0  0  0  0  0  0  0
  1  2  1  0
  2  3  1  0
  3  4  2  0
  4  5  1  0
  5  6  1  0
  6  7  1  0
  7  8  2  3
  8  9  1  0
  8 10  1  0
 10 11  1  0
 11 12  2  0
 12 13  1  0
 13 14  2  0
 14 15  1  0
 15 16  2  0
  5 17  2  0
 17  2  1  0
 16 11  1  0
A    1
 C1 
A    2
 N1 
A    3
 C2 
A    4
 C3 
A    5
 C4 
A    6
 C5 
A    7
 N2 
A    8
 C6 
A    9
 N3 
A   10
 N4 
A   11
 C7 
A   12
 C8 
A   13
 C9 
A   14
 C10
A   15
 C11
A   16
 N5 
A   17
 C12
M  END
>  <ref_pdb>  (18) 
Ax0310a

>  <ref_mols>  (18) 
Ax0451a,Ax0416a

>  <original SMILES>  (18) 
Cn1ccc(CN=C(N)Nc2ccccn2)c1

>  <rationale>  (18) 
info hbond:S87+D39; hydroph_interaction:P107+Y90+T126+V84+R93; pication:H21; 

>  <intxn_cluster_10>  (18) 
4

>  <intxn_cluster_rank_10>  (18) 
2

>  <N_interactions>  (18) 
9

>  <∆∆G>  (18) 
-9.493793

>  <$/mg>  (18) 
163.0

>  <comRMSD>  (18) 
0.860075

>  <N_rotatable_bonds>  (18) 
4

>  <deep_P1_sidechain>  (18) 
False

>  <farthest_distance_to_substrate>  (18) 
2.310476

>  <hbond:SER:7>  (18) 
hbond:SER:7    0
hbond:SER:7    0
Name: 16, dtype: object

>  <hydroph_interaction:ASN:19>  (18) 
hydroph_interaction:ASN:19    0
hydroph_interaction:ASN:19    0
Name: 16, dtype: object

>  <halogenbond:ASN:19>  (18) 
halogenbond:ASN:19    0
halogenbond:ASN:19    0
Name: 16, dtype: object

>  <hbond:ARG:20>  (18) 
hbond:ARG:20    0
hbond:ARG:20    0
Name: 16, dtype: object

>  <hydroph_interaction:ARG:20>  (18) 
hydroph_interaction:ARG:20    0
hydroph_interaction:ARG:20    0
Name: 16, dtype: object

>  <hbond:HIS:21>  (18) 
hbond:HIS:21    0
hbond:HIS:21    0
Name: 16, dtype: object

>  <hydroph_interaction:HIS:21>  (18) 
hydroph_interaction:HIS:21    0
hydroph_interaction:HIS:21    0
Name: 16, dtype: object

>  <saltbridge:HIS:21>  (18) 
saltbridge:HIS:21    0
saltbridge:HIS:21    0
Name: 16, dtype: object

>  <pistack:HIS:21>  (18) 
pistack:HIS:21    0
pistack:HIS:21    0
Name: 16, dtype: object

>  <pication:HIS:21>  (18) 
pication:HIS:21    1
pication:HIS:21    1
Name: 16, dtype: object

>  <hydroph_interaction:LEU:22>  (18) 
hydroph_interaction:LEU:22    0
hydroph_interaction:LEU:22    0
Name: 16, dtype: object

>  <hbond:SER:36>  (18) 
hbond:SER:36    0
hbond:SER:36    0
Name: 16, dtype: object

>  <hbond:ASP:39>  (18) 
hbond:ASP:39    1
hbond:ASP:39    1
Name: 16, dtype: object

>  <saltbridge:ASP:39>  (18) 
saltbridge:ASP:39    0
saltbridge:ASP:39    0
Name: 16, dtype: object

>  <hydroph_interaction:ASP:39>  (18) 
hydroph_interaction:ASP:39    0
hydroph_interaction:ASP:39    0
Name: 16, dtype: object

>  <halogenbond:ASP:39>  (18) 
halogenbond:ASP:39    0
halogenbond:ASP:39    0
Name: 16, dtype: object

>  <hydroph_interaction:ILE:82>  (18) 
hydroph_interaction:ILE:82    0
hydroph_interaction:ILE:82    0
Name: 16, dtype: object

>  <hydroph_interaction:PHE:83>  (18) 
hydroph_interaction:PHE:83    0
hydroph_interaction:PHE:83    0
Name: 16, dtype: object

>  <hbond:PHE:83>  (18) 
hbond:PHE:83    0
hbond:PHE:83    0
Name: 16, dtype: object

>  <halogenbond:PHE:83>  (18) 
halogenbond:PHE:83    0
halogenbond:PHE:83    0
Name: 16, dtype: object

>  <hydroph_interaction:VAL:84>  (18) 
hydroph_interaction:VAL:84    1
hydroph_interaction:VAL:84    1
Name: 16, dtype: object

>  <hydroph_interaction:GLU:85>  (18) 
hydroph_interaction:GLU:85    0
hydroph_interaction:GLU:85    0
Name: 16, dtype: object

>  <hbond:GLU:85>  (18) 
hbond:GLU:85    0
hbond:GLU:85    0
Name: 16, dtype: object

>  <halogenbond:GLU:85>  (18) 
halogenbond:GLU:85    0
halogenbond:GLU:85    0
Name: 16, dtype: object

>  <halogenbond:ALA:86>  (18) 
halogenbond:ALA:86    0
halogenbond:ALA:86    0
Name: 16, dtype: object

>  <hbond:SER:87>  (18) 
hbond:SER:87    1
hbond:SER:87    1
Name: 16, dtype: object

>  <halogenbond:SER:87>  (18) 
halogenbond:SER:87    0
halogenbond:SER:87    0
Name: 16, dtype: object

>  <hbond:GLU:88>  (18) 
hbond:GLU:88    0
hbond:GLU:88    0
Name: 16, dtype: object

>  <halogenbond:GLU:88>  (18) 
halogenbond:GLU:88    0
halogenbond:GLU:88    0
Name: 16, dtype: object

>  <hydroph_interaction:TYR:89>  (18) 
hydroph_interaction:TYR:89    0
hydroph_interaction:TYR:89    0
Name: 16, dtype: object

>  <pistack:TYR:89>  (18) 
pistack:TYR:89    0
pistack:TYR:89    0
Name: 16, dtype: object

>  <hbond:TYR:89>  (18) 
hbond:TYR:89    0
hbond:TYR:89    0
Name: 16, dtype: object

>  <hbond:TYR:90>  (18) 
hbond:TYR:90    0
hbond:TYR:90    0
Name: 16, dtype: object

>  <hydroph_interaction:TYR:90>  (18) 
hydroph_interaction:TYR:90    2
hydroph_interaction:TYR:90    2
Name: 16, dtype: object

>  <pistack:TYR:90>  (18) 
pistack:TYR:90    0
pistack:TYR:90    0
Name: 16, dtype: object

>  <hbond:ARG:93>  (18) 
hbond:ARG:93    0
hbond:ARG:93    0
Name: 16, dtype: object

>  <saltbridge:ARG:93>  (18) 
saltbridge:ARG:93    0
saltbridge:ARG:93    0
Name: 16, dtype: object

>  <hydroph_interaction:ARG:93>  (18) 
hydroph_interaction:ARG:93    1
hydroph_interaction:ARG:93    1
Name: 16, dtype: object

>  <halogenbond:GLN:95>  (18) 
halogenbond:GLN:95    0
halogenbond:GLN:95    0
Name: 16, dtype: object

>  <hbond:GLN:95>  (18) 
hbond:GLN:95    0
hbond:GLN:95    0
Name: 16, dtype: object

>  <hydroph_interaction:GLN:95>  (18) 
hydroph_interaction:GLN:95    0
hydroph_interaction:GLN:95    0
Name: 16, dtype: object

>  <hydroph_interaction:LEU:98>  (18) 
hydroph_interaction:LEU:98    0
hydroph_interaction:LEU:98    0
Name: 16, dtype: object

>  <hydroph_interaction:LEU:100>  (18) 
hydroph_interaction:LEU:100    0
hydroph_interaction:LEU:100    0
Name: 16, dtype: object

>  <hbond:SER:105>  (18) 
hbond:SER:105    0
hbond:SER:105    0
Name: 16, dtype: object

>  <halogenbond:SER:105>  (18) 
halogenbond:SER:105    0
halogenbond:SER:105    0
Name: 16, dtype: object

>  <hydroph_interaction:PRO:107>  (18) 
hydroph_interaction:PRO:107    1
hydroph_interaction:PRO:107    1
Name: 16, dtype: object

>  <hbond:PRO:107>  (18) 
hbond:PRO:107    0
hbond:PRO:107    0
Name: 16, dtype: object

>  <halogenbond:PRO:107>  (18) 
halogenbond:PRO:107    0
halogenbond:PRO:107    0
Name: 16, dtype: object

>  <hbond:ASP:109>  (18) 
hbond:ASP:109    0
hbond:ASP:109    0
Name: 16, dtype: object

>  <hbond:CYS:110>  (18) 
hbond:CYS:110    0
hbond:CYS:110    0
Name: 16, dtype: object

>  <halogenbond:CYS:110>  (18) 
halogenbond:CYS:110    0
halogenbond:CYS:110    0
Name: 16, dtype: object

>  <hydroph_interaction:VAL:124>  (18) 
hydroph_interaction:VAL:124    0
hydroph_interaction:VAL:124    0
Name: 16, dtype: object

>  <hbond:SER:125>  (18) 
hbond:SER:125    0
hbond:SER:125    0
Name: 16, dtype: object

>  <halogenbond:SER:125>  (18) 
halogenbond:SER:125    0
halogenbond:SER:125    0
Name: 16, dtype: object

>  <hydroph_interaction:THR:126>  (18) 
hydroph_interaction:THR:126    1
hydroph_interaction:THR:126    1
Name: 16, dtype: object

>  <hbond:THR:126>  (18) 
hbond:THR:126    0
hbond:THR:126    0
Name: 16, dtype: object

>  <halogenbond:THR:126>  (18) 
halogenbond:THR:126    0
halogenbond:THR:126    0
Name: 16, dtype: object

>  <hbond:GLY:127>  (18) 
hbond:GLY:127    0
hbond:GLY:127    0
Name: 16, dtype: object

>  <halogenbond:GLY:127>  (18) 
halogenbond:GLY:127    0
halogenbond:GLY:127    0
Name: 16, dtype: object

>  <hbond:GLY:128>  (18) 
hbond:GLY:128    0
hbond:GLY:128    0
Name: 16, dtype: object

>  <hbond:ASN:129>  (18) 
hbond:ASN:129    0
hbond:ASN:129    0
Name: 16, dtype: object

>  <hydroph_interaction:ASN:129>  (18) 
hydroph_interaction:ASN:129    0
hydroph_interaction:ASN:129    0
Name: 16, dtype: object

>  <halogenbond:ASN:129>  (18) 
halogenbond:ASN:129    0
halogenbond:ASN:129    0
Name: 16, dtype: object

>  <hydroph_interaction:LEU:131>  (18) 
hydroph_interaction:LEU:131    0
hydroph_interaction:LEU:131    0
Name: 16, dtype: object

>  <hbond:LEU:131>  (18) 
hbond:LEU:131    0
hbond:LEU:131    0
Name: 16, dtype: object

>  <halogenbond:LEU:131>  (18) 
halogenbond:LEU:131    0
halogenbond:LEU:131    0
Name: 16, dtype: object

>  <hbond:VAL:132>  (18) 
hbond:VAL:132    0
hbond:VAL:132    0
Name: 16, dtype: object

$$$$
Z1144629191
     RDKit          3D

 16 17  0  0  0  0  0  0  0  0999 V2000
   27.1210   17.1604   11.5464 C   0  0  0  0  0  0  0  0  0  0  0  0
   28.1195   16.0115   11.4740 C   0  0  0  0  0  0  0  0  0  0  0  0
   28.9149   15.8119   12.3788 O   0  0  0  0  0  0  0  0  0  0  0  0
   28.1515   15.2054   10.1883 C   0  0  0  0  0  0  0  0  0  0  0  0
   27.2106   15.4683    9.1586 C   0  0  0  0  0  0  0  0  0  0  0  0
   27.4404   14.5108    7.7825 S   0  0  0  0  0  0  0  0  0  0  0  0
   28.7645   13.7247    8.4790 C   0  0  0  0  0  0  0  0  0  0  0  0
   29.4336   12.7158    7.6377 C   0  0  0  0  0  0  0  0  0  0  0  0
   29.3436   12.7544    6.4188 O   0  0  0  0  0  0  0  0  0  0  0  0
   30.1547   11.8030    8.3458 N   0  0  0  0  0  0  0  0  0  0  0  0
   30.9489   10.8671    7.7638 C   0  0  0  0  0  0  0  0  0  0  0  0
   31.8513   11.1102    6.8137 N   0  0  0  0  0  0  0  0  0  0  0  0
   32.3908    9.9268    6.5384 N   0  0  0  0  0  0  0  0  0  0  0  0
   31.8626    8.9214    7.2860 C   0  0  0  0  0  0  0  0  0  0  0  0
   30.9080    9.5017    8.1039 C   0  0  0  0  0  0  0  0  0  0  0  0
   29.0291   14.1799    9.7621 C   0  0  0  0  0  0  0  0  0  0  0  0
  1  2  1  0
  2  3  2  0
  2  4  1  0
  4  5  2  0
  5  6  1  0
  6  7  1  0
  7  8  1  0
  8  9  2  0
  8 10  1  0
 10 11  1  0
 11 12  2  0
 12 13  1  0
 13 14  1  0
 14 15  2  0
  7 16  2  0
 16  4  1  0
 15 11  1  0
A    1
 C1 
A    2
 C2 
A    3
 O1 
A    4
 C3 
A    5
 C4 
A    6
 S1 
A    7
 C5 
A    8
 C6 
A    9
 O2 
A   10
 N1 
A   11
 C7 
A   12
 N2 
A   13
 N3 
A   14
 C8 
A   15
 C9 
A   16
 C10
M  END
>  <ref_pdb>  (19) 
Ax0310a

>  <ref_mols>  (19) 
Ax0554a,Ax0732a

>  <original SMILES>  (19) 
CC(=O)c1csc(C(=O)Nc2cc[nH]n2)c1

>  <rationale>  (19) 
info hbond:S125+G127+S87+R93+Q95; hydroph_interaction:Y90+D39; pistack:H21; 

>  <intxn_cluster_10>  (19) 
4

>  <intxn_cluster_rank_10>  (19) 
3

>  <N_interactions>  (19) 
8

>  <∆∆G>  (19) 
-7.579757

>  <$/mg>  (19) 
163.0

>  <comRMSD>  (19) 
0.651949

>  <N_rotatable_bonds>  (19) 
4

>  <deep_P1_sidechain>  (19) 
False

>  <farthest_distance_to_substrate>  (19) 
2.266155

>  <hbond:SER:7>  (19) 
hbond:SER:7    0
hbond:SER:7    0
Name: 17, dtype: object

>  <hydroph_interaction:ASN:19>  (19) 
hydroph_interaction:ASN:19    0
hydroph_interaction:ASN:19    0
Name: 17, dtype: object

>  <halogenbond:ASN:19>  (19) 
halogenbond:ASN:19    0
halogenbond:ASN:19    0
Name: 17, dtype: object

>  <hbond:ARG:20>  (19) 
hbond:ARG:20    0
hbond:ARG:20    0
Name: 17, dtype: object

>  <hydroph_interaction:ARG:20>  (19) 
hydroph_interaction:ARG:20    0
hydroph_interaction:ARG:20    0
Name: 17, dtype: object

>  <hbond:HIS:21>  (19) 
hbond:HIS:21    0
hbond:HIS:21    0
Name: 17, dtype: object

>  <hydroph_interaction:HIS:21>  (19) 
hydroph_interaction:HIS:21    0
hydroph_interaction:HIS:21    0
Name: 17, dtype: object

>  <saltbridge:HIS:21>  (19) 
saltbridge:HIS:21    0
saltbridge:HIS:21    0
Name: 17, dtype: object

>  <pistack:HIS:21>  (19) 
pistack:HIS:21    1
pistack:HIS:21    1
Name: 17, dtype: object

>  <pication:HIS:21>  (19) 
pication:HIS:21    0
pication:HIS:21    0
Name: 17, dtype: object

>  <hydroph_interaction:LEU:22>  (19) 
hydroph_interaction:LEU:22    0
hydroph_interaction:LEU:22    0
Name: 17, dtype: object

>  <hbond:SER:36>  (19) 
hbond:SER:36    0
hbond:SER:36    0
Name: 17, dtype: object

>  <hbond:ASP:39>  (19) 
hbond:ASP:39    0
hbond:ASP:39    0
Name: 17, dtype: object

>  <saltbridge:ASP:39>  (19) 
saltbridge:ASP:39    0
saltbridge:ASP:39    0
Name: 17, dtype: object

>  <hydroph_interaction:ASP:39>  (19) 
hydroph_interaction:ASP:39    1
hydroph_interaction:ASP:39    1
Name: 17, dtype: object

>  <halogenbond:ASP:39>  (19) 
halogenbond:ASP:39    0
halogenbond:ASP:39    0
Name: 17, dtype: object

>  <hydroph_interaction:ILE:82>  (19) 
hydroph_interaction:ILE:82    0
hydroph_interaction:ILE:82    0
Name: 17, dtype: object

>  <hydroph_interaction:PHE:83>  (19) 
hydroph_interaction:PHE:83    0
hydroph_interaction:PHE:83    0
Name: 17, dtype: object

>  <hbond:PHE:83>  (19) 
hbond:PHE:83    0
hbond:PHE:83    0
Name: 17, dtype: object

>  <halogenbond:PHE:83>  (19) 
halogenbond:PHE:83    0
halogenbond:PHE:83    0
Name: 17, dtype: object

>  <hydroph_interaction:VAL:84>  (19) 
hydroph_interaction:VAL:84    0
hydroph_interaction:VAL:84    0
Name: 17, dtype: object

>  <hydroph_interaction:GLU:85>  (19) 
hydroph_interaction:GLU:85    0
hydroph_interaction:GLU:85    0
Name: 17, dtype: object

>  <hbond:GLU:85>  (19) 
hbond:GLU:85    0
hbond:GLU:85    0
Name: 17, dtype: object

>  <halogenbond:GLU:85>  (19) 
halogenbond:GLU:85    0
halogenbond:GLU:85    0
Name: 17, dtype: object

>  <halogenbond:ALA:86>  (19) 
halogenbond:ALA:86    0
halogenbond:ALA:86    0
Name: 17, dtype: object

>  <hbond:SER:87>  (19) 
hbond:SER:87    1
hbond:SER:87    1
Name: 17, dtype: object

>  <halogenbond:SER:87>  (19) 
halogenbond:SER:87    0
halogenbond:SER:87    0
Name: 17, dtype: object

>  <hbond:GLU:88>  (19) 
hbond:GLU:88    0
hbond:GLU:88    0
Name: 17, dtype: object

>  <halogenbond:GLU:88>  (19) 
halogenbond:GLU:88    0
halogenbond:GLU:88    0
Name: 17, dtype: object

>  <hydroph_interaction:TYR:89>  (19) 
hydroph_interaction:TYR:89    0
hydroph_interaction:TYR:89    0
Name: 17, dtype: object

>  <pistack:TYR:89>  (19) 
pistack:TYR:89    0
pistack:TYR:89    0
Name: 17, dtype: object

>  <hbond:TYR:89>  (19) 
hbond:TYR:89    0
hbond:TYR:89    0
Name: 17, dtype: object

>  <hbond:TYR:90>  (19) 
hbond:TYR:90    0
hbond:TYR:90    0
Name: 17, dtype: object

>  <hydroph_interaction:TYR:90>  (19) 
hydroph_interaction:TYR:90    1
hydroph_interaction:TYR:90    1
Name: 17, dtype: object

>  <pistack:TYR:90>  (19) 
pistack:TYR:90    0
pistack:TYR:90    0
Name: 17, dtype: object

>  <hbond:ARG:93>  (19) 
hbond:ARG:93    1
hbond:ARG:93    1
Name: 17, dtype: object

>  <saltbridge:ARG:93>  (19) 
saltbridge:ARG:93    0
saltbridge:ARG:93    0
Name: 17, dtype: object

>  <hydroph_interaction:ARG:93>  (19) 
hydroph_interaction:ARG:93    0
hydroph_interaction:ARG:93    0
Name: 17, dtype: object

>  <halogenbond:GLN:95>  (19) 
halogenbond:GLN:95    0
halogenbond:GLN:95    0
Name: 17, dtype: object

>  <hbond:GLN:95>  (19) 
hbond:GLN:95    1
hbond:GLN:95    1
Name: 17, dtype: object

>  <hydroph_interaction:GLN:95>  (19) 
hydroph_interaction:GLN:95    0
hydroph_interaction:GLN:95    0
Name: 17, dtype: object

>  <hydroph_interaction:LEU:98>  (19) 
hydroph_interaction:LEU:98    0
hydroph_interaction:LEU:98    0
Name: 17, dtype: object

>  <hydroph_interaction:LEU:100>  (19) 
hydroph_interaction:LEU:100    0
hydroph_interaction:LEU:100    0
Name: 17, dtype: object

>  <hbond:SER:105>  (19) 
hbond:SER:105    0
hbond:SER:105    0
Name: 17, dtype: object

>  <halogenbond:SER:105>  (19) 
halogenbond:SER:105    0
halogenbond:SER:105    0
Name: 17, dtype: object

>  <hydroph_interaction:PRO:107>  (19) 
hydroph_interaction:PRO:107    0
hydroph_interaction:PRO:107    0
Name: 17, dtype: object

>  <hbond:PRO:107>  (19) 
hbond:PRO:107    0
hbond:PRO:107    0
Name: 17, dtype: object

>  <halogenbond:PRO:107>  (19) 
halogenbond:PRO:107    0
halogenbond:PRO:107    0
Name: 17, dtype: object

>  <hbond:ASP:109>  (19) 
hbond:ASP:109    0
hbond:ASP:109    0
Name: 17, dtype: object

>  <hbond:CYS:110>  (19) 
hbond:CYS:110    0
hbond:CYS:110    0
Name: 17, dtype: object

>  <halogenbond:CYS:110>  (19) 
halogenbond:CYS:110    0
halogenbond:CYS:110    0
Name: 17, dtype: object

>  <hydroph_interaction:VAL:124>  (19) 
hydroph_interaction:VAL:124    0
hydroph_interaction:VAL:124    0
Name: 17, dtype: object

>  <hbond:SER:125>  (19) 
hbond:SER:125    1
hbond:SER:125    1
Name: 17, dtype: object

>  <halogenbond:SER:125>  (19) 
halogenbond:SER:125    0
halogenbond:SER:125    0
Name: 17, dtype: object

>  <hydroph_interaction:THR:126>  (19) 
hydroph_interaction:THR:126    0
hydroph_interaction:THR:126    0
Name: 17, dtype: object

>  <hbond:THR:126>  (19) 
hbond:THR:126    0
hbond:THR:126    0
Name: 17, dtype: object

>  <halogenbond:THR:126>  (19) 
halogenbond:THR:126    0
halogenbond:THR:126    0
Name: 17, dtype: object

>  <hbond:GLY:127>  (19) 
hbond:GLY:127    1
hbond:GLY:127    1
Name: 17, dtype: object

>  <halogenbond:GLY:127>  (19) 
halogenbond:GLY:127    0
halogenbond:GLY:127    0
Name: 17, dtype: object

>  <hbond:GLY:128>  (19) 
hbond:GLY:128    0
hbond:GLY:128    0
Name: 17, dtype: object

>  <hbond:ASN:129>  (19) 
hbond:ASN:129    0
hbond:ASN:129    0
Name: 17, dtype: object

>  <hydroph_interaction:ASN:129>  (19) 
hydroph_interaction:ASN:129    0
hydroph_interaction:ASN:129    0
Name: 17, dtype: object

>  <halogenbond:ASN:129>  (19) 
halogenbond:ASN:129    0
halogenbond:ASN:129    0
Name: 17, dtype: object

>  <hydroph_interaction:LEU:131>  (19) 
hydroph_interaction:LEU:131    0
hydroph_interaction:LEU:131    0
Name: 17, dtype: object

>  <hbond:LEU:131>  (19) 
hbond:LEU:131    0
hbond:LEU:131    0
Name: 17, dtype: object

>  <halogenbond:LEU:131>  (19) 
halogenbond:LEU:131    0
halogenbond:LEU:131    0
Name: 17, dtype: object

>  <hbond:VAL:132>  (19) 
hbond:VAL:132    0
hbond:VAL:132    0
Name: 17, dtype: object

$$$$
Z1503451859
     RDKit          3D

 18 18  0  0  0  0  0  0  0  0999 V2000
   30.3958    8.5115    8.6936 C   0  0  0  0  0  0  0  0  0  0  0  0
   31.3149    9.2204    7.7710 C   0  0  0  0  0  0  0  0  0  0  0  0
   32.2069    8.5712    7.0210 N   0  0  0  0  0  0  0  0  0  0  0  0
   32.8538    9.5456    6.3451 N   0  0  0  0  0  0  0  0  0  0  0  0
   33.9282    9.2309    5.4275 C   0  0  0  0  0  0  0  0  0  0  0  0
   32.3965   10.7898    6.6335 C   0  0  0  0  0  0  0  0  0  0  0  0
   32.9678   11.9999    6.0014 C   0  0  0  0  0  0  0  0  0  0  0  0
   31.3993   10.6069    7.5559 C   0  0  0  0  0  0  0  0  0  0  0  0
   30.6333   11.5484    8.1561 N   0  0  0  0  0  0  0  0  0  0  0  0
   29.9191   12.4326    7.4547 C   0  0  0  0  0  0  0  0  0  0  0  0
   30.0545   12.7286    6.2788 O   0  0  0  0  0  0  0  0  0  0  0  0
   28.9882   12.9758    8.2645 N   0  0  0  0  0  0  0  0  0  0  0  0
   27.7996   13.3855    7.6138 C   0  0  2  0  0  0  0  0  0  0  0  0
   28.0510   14.5618    6.7350 C   0  0  0  0  0  0  0  0  0  0  0  0
   26.6244   13.6253    8.5263 C   0  0  0  0  0  0  0  0  0  0  0  0
   25.3649   12.8347    8.2252 C   0  0  0  0  0  0  0  0  0  0  0  0
   24.4373   13.5844    7.3035 C   0  0  0  0  0  0  0  0  0  0  0  0
   24.7881   12.4626    9.5904 C   0  0  0  0  0  0  0  0  0  0  0  0
  1  2  1  0
  2  3  2  0
  3  4  1  0
  4  5  1  0
  4  6  1  0
  6  7  1  0
  6  8  2  0
  8  9  1  0
  9 10  1  0
 10 11  2  0
 10 12  1  0
 12 13  1  0
 13 14  1  1
 13 15  1  0
 15 16  1  0
 16 17  1  0
 16 18  1  0
  8  2  1  0
A    1
 C1 
A    2
 C2 
A    3
 N1 
A    4
 N2 
A    5
 C3 
A    6
 C4 
A    7
 C5 
A    8
 C6 
A    9
 N3 
A   10
 C7 
A   11
 O1 
A   12
 N4 
A   13
 C8 
A   14
 C9 
A   15
 C10
A   16
 C11
A   17
 C12
A   18
 C13
M  END
>  <ref_pdb>  (20) 
Ax0310a

>  <ref_mols>  (20) 
Ax0310a,Ax0451a,Ax0365a

>  <original SMILES>  (20) 
Cc1nn(C)c(C)c1NC(=O)NC(C)CC(C)C

>  <rationale>  (20) 
info hbond:S125+G127+S87; hydroph_interaction:V124+Y89+Y90+H21+L22+N19; 

>  <intxn_cluster_10>  (20) 
2

>  <intxn_cluster_rank_10>  (20) 
3

>  <N_interactions>  (20) 
11

>  <∆∆G>  (20) 
-13.21951

>  <$/mg>  (20) 
163.0

>  <comRMSD>  (20) 
0.792851

>  <N_rotatable_bonds>  (20) 
10

>  <deep_P1_sidechain>  (20) 
True

>  <farthest_distance_to_substrate>  (20) 
3.158825

>  <hbond:SER:7>  (20) 
hbond:SER:7    0
hbond:SER:7    0
Name: 18, dtype: object

>  <hydroph_interaction:ASN:19>  (20) 
hydroph_interaction:ASN:19    1
hydroph_interaction:ASN:19    1
Name: 18, dtype: object

>  <halogenbond:ASN:19>  (20) 
halogenbond:ASN:19    0
halogenbond:ASN:19    0
Name: 18, dtype: object

>  <hbond:ARG:20>  (20) 
hbond:ARG:20    0
hbond:ARG:20    0
Name: 18, dtype: object

>  <hydroph_interaction:ARG:20>  (20) 
hydroph_interaction:ARG:20    0
hydroph_interaction:ARG:20    0
Name: 18, dtype: object

>  <hbond:HIS:21>  (20) 
hbond:HIS:21    0
hbond:HIS:21    0
Name: 18, dtype: object

>  <hydroph_interaction:HIS:21>  (20) 
hydroph_interaction:HIS:21    1
hydroph_interaction:HIS:21    1
Name: 18, dtype: object

>  <saltbridge:HIS:21>  (20) 
saltbridge:HIS:21    0
saltbridge:HIS:21    0
Name: 18, dtype: object

>  <pistack:HIS:21>  (20) 
pistack:HIS:21    0
pistack:HIS:21    0
Name: 18, dtype: object

>  <pication:HIS:21>  (20) 
pication:HIS:21    0
pication:HIS:21    0
Name: 18, dtype: object

>  <hydroph_interaction:LEU:22>  (20) 
hydroph_interaction:LEU:22    2
hydroph_interaction:LEU:22    2
Name: 18, dtype: object

>  <hbond:SER:36>  (20) 
hbond:SER:36    0
hbond:SER:36    0
Name: 18, dtype: object

>  <hbond:ASP:39>  (20) 
hbond:ASP:39    0
hbond:ASP:39    0
Name: 18, dtype: object

>  <saltbridge:ASP:39>  (20) 
saltbridge:ASP:39    0
saltbridge:ASP:39    0
Name: 18, dtype: object

>  <hydroph_interaction:ASP:39>  (20) 
hydroph_interaction:ASP:39    0
hydroph_interaction:ASP:39    0
Name: 18, dtype: object

>  <halogenbond:ASP:39>  (20) 
halogenbond:ASP:39    0
halogenbond:ASP:39    0
Name: 18, dtype: object

>  <hydroph_interaction:ILE:82>  (20) 
hydroph_interaction:ILE:82    0
hydroph_interaction:ILE:82    0
Name: 18, dtype: object

>  <hydroph_interaction:PHE:83>  (20) 
hydroph_interaction:PHE:83    0
hydroph_interaction:PHE:83    0
Name: 18, dtype: object

>  <hbond:PHE:83>  (20) 
hbond:PHE:83    0
hbond:PHE:83    0
Name: 18, dtype: object

>  <halogenbond:PHE:83>  (20) 
halogenbond:PHE:83    0
halogenbond:PHE:83    0
Name: 18, dtype: object

>  <hydroph_interaction:VAL:84>  (20) 
hydroph_interaction:VAL:84    0
hydroph_interaction:VAL:84    0
Name: 18, dtype: object

>  <hydroph_interaction:GLU:85>  (20) 
hydroph_interaction:GLU:85    0
hydroph_interaction:GLU:85    0
Name: 18, dtype: object

>  <hbond:GLU:85>  (20) 
hbond:GLU:85    0
hbond:GLU:85    0
Name: 18, dtype: object

>  <halogenbond:GLU:85>  (20) 
halogenbond:GLU:85    0
halogenbond:GLU:85    0
Name: 18, dtype: object

>  <halogenbond:ALA:86>  (20) 
halogenbond:ALA:86    0
halogenbond:ALA:86    0
Name: 18, dtype: object

>  <hbond:SER:87>  (20) 
hbond:SER:87    1
hbond:SER:87    1
Name: 18, dtype: object

>  <halogenbond:SER:87>  (20) 
halogenbond:SER:87    0
halogenbond:SER:87    0
Name: 18, dtype: object

>  <hbond:GLU:88>  (20) 
hbond:GLU:88    0
hbond:GLU:88    0
Name: 18, dtype: object

>  <halogenbond:GLU:88>  (20) 
halogenbond:GLU:88    0
halogenbond:GLU:88    0
Name: 18, dtype: object

>  <hydroph_interaction:TYR:89>  (20) 
hydroph_interaction:TYR:89    1
hydroph_interaction:TYR:89    1
Name: 18, dtype: object

>  <pistack:TYR:89>  (20) 
pistack:TYR:89    0
pistack:TYR:89    0
Name: 18, dtype: object

>  <hbond:TYR:89>  (20) 
hbond:TYR:89    0
hbond:TYR:89    0
Name: 18, dtype: object

>  <hbond:TYR:90>  (20) 
hbond:TYR:90    0
hbond:TYR:90    0
Name: 18, dtype: object

>  <hydroph_interaction:TYR:90>  (20) 
hydroph_interaction:TYR:90    1
hydroph_interaction:TYR:90    1
Name: 18, dtype: object

>  <pistack:TYR:90>  (20) 
pistack:TYR:90    0
pistack:TYR:90    0
Name: 18, dtype: object

>  <hbond:ARG:93>  (20) 
hbond:ARG:93    0
hbond:ARG:93    0
Name: 18, dtype: object

>  <saltbridge:ARG:93>  (20) 
saltbridge:ARG:93    0
saltbridge:ARG:93    0
Name: 18, dtype: object

>  <hydroph_interaction:ARG:93>  (20) 
hydroph_interaction:ARG:93    0
hydroph_interaction:ARG:93    0
Name: 18, dtype: object

>  <halogenbond:GLN:95>  (20) 
halogenbond:GLN:95    0
halogenbond:GLN:95    0
Name: 18, dtype: object

>  <hbond:GLN:95>  (20) 
hbond:GLN:95    0
hbond:GLN:95    0
Name: 18, dtype: object

>  <hydroph_interaction:GLN:95>  (20) 
hydroph_interaction:GLN:95    0
hydroph_interaction:GLN:95    0
Name: 18, dtype: object

>  <hydroph_interaction:LEU:98>  (20) 
hydroph_interaction:LEU:98    0
hydroph_interaction:LEU:98    0
Name: 18, dtype: object

>  <hydroph_interaction:LEU:100>  (20) 
hydroph_interaction:LEU:100    0
hydroph_interaction:LEU:100    0
Name: 18, dtype: object

>  <hbond:SER:105>  (20) 
hbond:SER:105    0
hbond:SER:105    0
Name: 18, dtype: object

>  <halogenbond:SER:105>  (20) 
halogenbond:SER:105    0
halogenbond:SER:105    0
Name: 18, dtype: object

>  <hydroph_interaction:PRO:107>  (20) 
hydroph_interaction:PRO:107    0
hydroph_interaction:PRO:107    0
Name: 18, dtype: object

>  <hbond:PRO:107>  (20) 
hbond:PRO:107    0
hbond:PRO:107    0
Name: 18, dtype: object

>  <halogenbond:PRO:107>  (20) 
halogenbond:PRO:107    0
halogenbond:PRO:107    0
Name: 18, dtype: object

>  <hbond:ASP:109>  (20) 
hbond:ASP:109    0
hbond:ASP:109    0
Name: 18, dtype: object

>  <hbond:CYS:110>  (20) 
hbond:CYS:110    0
hbond:CYS:110    0
Name: 18, dtype: object

>  <halogenbond:CYS:110>  (20) 
halogenbond:CYS:110    0
halogenbond:CYS:110    0
Name: 18, dtype: object

>  <hydroph_interaction:VAL:124>  (20) 
hydroph_interaction:VAL:124    1
hydroph_interaction:VAL:124    1
Name: 18, dtype: object

>  <hbond:SER:125>  (20) 
hbond:SER:125    2
hbond:SER:125    2
Name: 18, dtype: object

>  <halogenbond:SER:125>  (20) 
halogenbond:SER:125    0
halogenbond:SER:125    0
Name: 18, dtype: object

>  <hydroph_interaction:THR:126>  (20) 
hydroph_interaction:THR:126    0
hydroph_interaction:THR:126    0
Name: 18, dtype: object

>  <hbond:THR:126>  (20) 
hbond:THR:126    0
hbond:THR:126    0
Name: 18, dtype: object

>  <halogenbond:THR:126>  (20) 
halogenbond:THR:126    0
halogenbond:THR:126    0
Name: 18, dtype: object

>  <hbond:GLY:127>  (20) 
hbond:GLY:127    1
hbond:GLY:127    1
Name: 18, dtype: object

>  <halogenbond:GLY:127>  (20) 
halogenbond:GLY:127    0
halogenbond:GLY:127    0
Name: 18, dtype: object

>  <hbond:GLY:128>  (20) 
hbond:GLY:128    0
hbond:GLY:128    0
Name: 18, dtype: object

>  <hbond:ASN:129>  (20) 
hbond:ASN:129    0
hbond:ASN:129    0
Name: 18, dtype: object

>  <hydroph_interaction:ASN:129>  (20) 
hydroph_interaction:ASN:129    0
hydroph_interaction:ASN:129    0
Name: 18, dtype: object

>  <halogenbond:ASN:129>  (20) 
halogenbond:ASN:129    0
halogenbond:ASN:129    0
Name: 18, dtype: object

>  <hydroph_interaction:LEU:131>  (20) 
hydroph_interaction:LEU:131    0
hydroph_interaction:LEU:131    0
Name: 18, dtype: object

>  <hbond:LEU:131>  (20) 
hbond:LEU:131    0
hbond:LEU:131    0
Name: 18, dtype: object

>  <halogenbond:LEU:131>  (20) 
halogenbond:LEU:131    0
halogenbond:LEU:131    0
Name: 18, dtype: object

>  <hbond:VAL:132>  (20) 
hbond:VAL:132    0
hbond:VAL:132    0
Name: 18, dtype: object

$$$$
Z4210739355
     RDKit          3D

 24 26  0  0  0  0  0  0  0  0999 V2000
   27.0703   14.1154    7.1823 C   0  0  0  0  0  0  0  0  0  0  0  0
   28.3707   14.2842    7.8552 C   0  0  0  0  0  0  0  0  0  0  0  0
   29.3100   13.5467    7.3129 N   0  0  0  0  0  0  0  0  0  0  0  0
   30.3786   13.8379    8.0209 N   0  0  0  0  0  0  0  0  0  0  0  0
   31.6123   13.1980    7.6302 C   0  0  0  0  0  0  0  0  0  0  0  0
   31.6123   11.6851    7.4722 C   0  0  0  0  0  0  0  0  0  0  0  0
   32.6489   11.1506    6.5185 C   0  0  0  0  0  0  0  0  0  0  0  0
   32.7325    9.7909    6.3514 C   0  0  0  0  0  0  0  0  0  0  0  0
   31.8628    8.9665    7.0641 C   0  0  0  0  0  0  0  0  0  0  0  0
   30.8918    9.4557    7.9347 C   0  0  0  0  0  0  0  0  0  0  0  0
   30.7612   10.8201    8.1378 C   0  0  0  0  0  0  0  0  0  0  0  0
   30.1529   14.7479    9.0374 C   0  0  0  0  0  0  0  0  0  0  0  0
   31.2133   15.2158    9.9574 C   0  0  0  0  0  0  0  0  0  0  0  0
   28.8240   15.0770    8.9557 C   0  0  0  0  0  0  0  0  0  0  0  0
   28.2428   15.9984    9.8300 N   0  0  0  0  0  0  0  0  0  0  0  0
   28.5551   16.3346   11.1597 C   0  0  0  0  0  0  0  0  0  0  0  0
   29.4632   15.9188   11.8578 O   0  0  0  0  0  0  0  0  0  0  0  0
   27.5982   17.3289   11.6251 C   0  0  0  0  0  0  0  0  0  0  0  0
   26.5316   17.5629   10.8555 C   0  0  0  0  0  0  0  0  0  0  0  0
   25.6302   18.6033   11.3992 C   0  0  1  0  0  0  0  0  0  0  0  0
   24.5976   18.0722   12.2251 O   0  0  0  0  0  0  0  0  0  0  0  0
   26.6231   19.3595   12.2587 C   0  0  1  0  0  0  0  0  0  0  0  0
   25.9985   20.1443   13.3008 N   0  0  0  0  0  0  0  0  0  0  0  0
   27.5486   18.2505   12.8107 C   0  0  0  0  0  0  0  0  0  0  0  0
  1  2  1  0
  2  3  2  0
  3  4  1  0
  4  5  1  0
  5  6  1  0
  6  7  2  0
  7  8  1  0
  8  9  2  0
  9 10  1  0
 10 11  2  0
  4 12  1  0
 12 13  1  0
 12 14  2  0
 14 15  1  0
 15 16  1  0
 16 17  2  0
 16 18  1  0
 18 19  2  0
 19 20  1  0
 20 21  1  1
 20 22  1  0
 22 23  1  1
 22 24  1  0
 14  2  1  0
 11  6  1  0
 24 18  1  0
A    1
 C1 
A    2
 C2 
A    3
 N1 
A    4
 N2 
A    5
 C3 
A    6
 C4 
A    7
 C5 
A    8
 C6 
A    9
 C7 
A   10
 C8 
A   11
 C9 
A   12
 C10
A   13
 C11
A   14
 C12
A   15
 N3 
A   16
 C13
A   17
 O1 
A   18
 C14
A   19
 C15
A   20
 C16
A   21
 O2 
A   22
 C17
A   23
 N4 
A   24
 C18
M  END
>  <ref_pdb>  (21) 
Ax0310a

>  <ref_mols>  (21) 
Ax0365a,Ax0528a

>  <original SMILES>  (21) 
Cc1nn(Cc2ccccc2)c(C)c1NC(=O)C1=C[C@@H](O)[C@@H](N)C1

>  <rationale>  (21) 
info hbond:S36; hydroph_interaction:Y89+Y90+H21+V84+D39; 

>  <intxn_cluster_10>  (21) 
1

>  <intxn_cluster_rank_10>  (21) 
3

>  <N_interactions>  (21) 
8

>  <∆∆G>  (21) 
-8.536307

>  <$/mg>  (21) 
0.0

>  <comRMSD>  (21) 
0.757528

>  <N_rotatable_bonds>  (21) 
8

>  <deep_P1_sidechain>  (21) 
False

>  <farthest_distance_to_substrate>  (21) 
4.203024

>  <hbond:SER:7>  (21) 
hbond:SER:7    0
hbond:SER:7    0
Name: 19, dtype: object

>  <hydroph_interaction:ASN:19>  (21) 
hydroph_interaction:ASN:19    0
hydroph_interaction:ASN:19    0
Name: 19, dtype: object

>  <halogenbond:ASN:19>  (21) 
halogenbond:ASN:19    0
halogenbond:ASN:19    0
Name: 19, dtype: object

>  <hbond:ARG:20>  (21) 
hbond:ARG:20    0
hbond:ARG:20    0
Name: 19, dtype: object

>  <hydroph_interaction:ARG:20>  (21) 
hydroph_interaction:ARG:20    0
hydroph_interaction:ARG:20    0
Name: 19, dtype: object

>  <hbond:HIS:21>  (21) 
hbond:HIS:21    0
hbond:HIS:21    0
Name: 19, dtype: object

>  <hydroph_interaction:HIS:21>  (21) 
hydroph_interaction:HIS:21    1
hydroph_interaction:HIS:21    1
Name: 19, dtype: object

>  <saltbridge:HIS:21>  (21) 
saltbridge:HIS:21    0
saltbridge:HIS:21    0
Name: 19, dtype: object

>  <pistack:HIS:21>  (21) 
pistack:HIS:21    0
pistack:HIS:21    0
Name: 19, dtype: object

>  <pication:HIS:21>  (21) 
pication:HIS:21    0
pication:HIS:21    0
Name: 19, dtype: object

>  <hydroph_interaction:LEU:22>  (21) 
hydroph_interaction:LEU:22    0
hydroph_interaction:LEU:22    0
Name: 19, dtype: object

>  <hbond:SER:36>  (21) 
hbond:SER:36    1
hbond:SER:36    1
Name: 19, dtype: object

>  <hbond:ASP:39>  (21) 
hbond:ASP:39    0
hbond:ASP:39    0
Name: 19, dtype: object

>  <saltbridge:ASP:39>  (21) 
saltbridge:ASP:39    0
saltbridge:ASP:39    0
Name: 19, dtype: object

>  <hydroph_interaction:ASP:39>  (21) 
hydroph_interaction:ASP:39    1
hydroph_interaction:ASP:39    1
Name: 19, dtype: object

>  <halogenbond:ASP:39>  (21) 
halogenbond:ASP:39    0
halogenbond:ASP:39    0
Name: 19, dtype: object

>  <hydroph_interaction:ILE:82>  (21) 
hydroph_interaction:ILE:82    0
hydroph_interaction:ILE:82    0
Name: 19, dtype: object

>  <hydroph_interaction:PHE:83>  (21) 
hydroph_interaction:PHE:83    0
hydroph_interaction:PHE:83    0
Name: 19, dtype: object

>  <hbond:PHE:83>  (21) 
hbond:PHE:83    0
hbond:PHE:83    0
Name: 19, dtype: object

>  <halogenbond:PHE:83>  (21) 
halogenbond:PHE:83    0
halogenbond:PHE:83    0
Name: 19, dtype: object

>  <hydroph_interaction:VAL:84>  (21) 
hydroph_interaction:VAL:84    1
hydroph_interaction:VAL:84    1
Name: 19, dtype: object

>  <hydroph_interaction:GLU:85>  (21) 
hydroph_interaction:GLU:85    0
hydroph_interaction:GLU:85    0
Name: 19, dtype: object

>  <hbond:GLU:85>  (21) 
hbond:GLU:85    0
hbond:GLU:85    0
Name: 19, dtype: object

>  <halogenbond:GLU:85>  (21) 
halogenbond:GLU:85    0
halogenbond:GLU:85    0
Name: 19, dtype: object

>  <halogenbond:ALA:86>  (21) 
halogenbond:ALA:86    0
halogenbond:ALA:86    0
Name: 19, dtype: object

>  <hbond:SER:87>  (21) 
hbond:SER:87    0
hbond:SER:87    0
Name: 19, dtype: object

>  <halogenbond:SER:87>  (21) 
halogenbond:SER:87    0
halogenbond:SER:87    0
Name: 19, dtype: object

>  <hbond:GLU:88>  (21) 
hbond:GLU:88    0
hbond:GLU:88    0
Name: 19, dtype: object

>  <halogenbond:GLU:88>  (21) 
halogenbond:GLU:88    0
halogenbond:GLU:88    0
Name: 19, dtype: object

>  <hydroph_interaction:TYR:89>  (21) 
hydroph_interaction:TYR:89    2
hydroph_interaction:TYR:89    2
Name: 19, dtype: object

>  <pistack:TYR:89>  (21) 
pistack:TYR:89    0
pistack:TYR:89    0
Name: 19, dtype: object

>  <hbond:TYR:89>  (21) 
hbond:TYR:89    0
hbond:TYR:89    0
Name: 19, dtype: object

>  <hbond:TYR:90>  (21) 
hbond:TYR:90    0
hbond:TYR:90    0
Name: 19, dtype: object

>  <hydroph_interaction:TYR:90>  (21) 
hydroph_interaction:TYR:90    2
hydroph_interaction:TYR:90    2
Name: 19, dtype: object

>  <pistack:TYR:90>  (21) 
pistack:TYR:90    0
pistack:TYR:90    0
Name: 19, dtype: object

>  <hbond:ARG:93>  (21) 
hbond:ARG:93    0
hbond:ARG:93    0
Name: 19, dtype: object

>  <saltbridge:ARG:93>  (21) 
saltbridge:ARG:93    0
saltbridge:ARG:93    0
Name: 19, dtype: object

>  <hydroph_interaction:ARG:93>  (21) 
hydroph_interaction:ARG:93    0
hydroph_interaction:ARG:93    0
Name: 19, dtype: object

>  <halogenbond:GLN:95>  (21) 
halogenbond:GLN:95    0
halogenbond:GLN:95    0
Name: 19, dtype: object

>  <hbond:GLN:95>  (21) 
hbond:GLN:95    0
hbond:GLN:95    0
Name: 19, dtype: object

>  <hydroph_interaction:GLN:95>  (21) 
hydroph_interaction:GLN:95    0
hydroph_interaction:GLN:95    0
Name: 19, dtype: object

>  <hydroph_interaction:LEU:98>  (21) 
hydroph_interaction:LEU:98    0
hydroph_interaction:LEU:98    0
Name: 19, dtype: object

>  <hydroph_interaction:LEU:100>  (21) 
hydroph_interaction:LEU:100    0
hydroph_interaction:LEU:100    0
Name: 19, dtype: object

>  <hbond:SER:105>  (21) 
hbond:SER:105    0
hbond:SER:105    0
Name: 19, dtype: object

>  <halogenbond:SER:105>  (21) 
halogenbond:SER:105    0
halogenbond:SER:105    0
Name: 19, dtype: object

>  <hydroph_interaction:PRO:107>  (21) 
hydroph_interaction:PRO:107    0
hydroph_interaction:PRO:107    0
Name: 19, dtype: object

>  <hbond:PRO:107>  (21) 
hbond:PRO:107    0
hbond:PRO:107    0
Name: 19, dtype: object

>  <halogenbond:PRO:107>  (21) 
halogenbond:PRO:107    0
halogenbond:PRO:107    0
Name: 19, dtype: object

>  <hbond:ASP:109>  (21) 
hbond:ASP:109    0
hbond:ASP:109    0
Name: 19, dtype: object

>  <hbond:CYS:110>  (21) 
hbond:CYS:110    0
hbond:CYS:110    0
Name: 19, dtype: object

>  <halogenbond:CYS:110>  (21) 
halogenbond:CYS:110    0
halogenbond:CYS:110    0
Name: 19, dtype: object

>  <hydroph_interaction:VAL:124>  (21) 
hydroph_interaction:VAL:124    0
hydroph_interaction:VAL:124    0
Name: 19, dtype: object

>  <hbond:SER:125>  (21) 
hbond:SER:125    0
hbond:SER:125    0
Name: 19, dtype: object

>  <halogenbond:SER:125>  (21) 
halogenbond:SER:125    0
halogenbond:SER:125    0
Name: 19, dtype: object

>  <hydroph_interaction:THR:126>  (21) 
hydroph_interaction:THR:126    0
hydroph_interaction:THR:126    0
Name: 19, dtype: object

>  <hbond:THR:126>  (21) 
hbond:THR:126    0
hbond:THR:126    0
Name: 19, dtype: object

>  <halogenbond:THR:126>  (21) 
halogenbond:THR:126    0
halogenbond:THR:126    0
Name: 19, dtype: object

>  <hbond:GLY:127>  (21) 
hbond:GLY:127    0
hbond:GLY:127    0
Name: 19, dtype: object

>  <halogenbond:GLY:127>  (21) 
halogenbond:GLY:127    0
halogenbond:GLY:127    0
Name: 19, dtype: object

>  <hbond:GLY:128>  (21) 
hbond:GLY:128    0
hbond:GLY:128    0
Name: 19, dtype: object

>  <hbond:ASN:129>  (21) 
hbond:ASN:129    0
hbond:ASN:129    0
Name: 19, dtype: object

>  <hydroph_interaction:ASN:129>  (21) 
hydroph_interaction:ASN:129    0
hydroph_interaction:ASN:129    0
Name: 19, dtype: object

>  <halogenbond:ASN:129>  (21) 
halogenbond:ASN:129    0
halogenbond:ASN:129    0
Name: 19, dtype: object

>  <hydroph_interaction:LEU:131>  (21) 
hydroph_interaction:LEU:131    0
hydroph_interaction:LEU:131    0
Name: 19, dtype: object

>  <hbond:LEU:131>  (21) 
hbond:LEU:131    0
hbond:LEU:131    0
Name: 19, dtype: object

>  <halogenbond:LEU:131>  (21) 
halogenbond:LEU:131    0
halogenbond:LEU:131    0
Name: 19, dtype: object

>  <hbond:VAL:132>  (21) 
hbond:VAL:132    0
hbond:VAL:132    0
Name: 19, dtype: object

$$$$
Z1303811698
     RDKit          3D

 15 15  0  0  0  0  0  0  0  0999 V2000
   30.2006    8.5453    8.4045 C   0  0  0  0  0  0  0  0  0  0  0  0
   30.9799    9.6450    7.8247 C   0  0  0  0  0  0  0  0  0  0  0  0
   32.0302    9.3857    6.9503 C   0  0  0  0  0  0  0  0  0  0  0  0
   32.7683   10.4284    6.4052 C   0  0  0  0  0  0  0  0  0  0  0  0
   33.8085   10.1375    5.5290 C   0  0  0  0  0  0  0  0  0  0  0  0
   32.4441   11.7573    6.7548 C   0  0  0  0  0  0  0  0  0  0  0  0
   33.1933   12.8304    6.2211 N   0  0  0  0  0  0  0  0  0  0  0  0
   31.3843   11.9758    7.6271 C   0  0  0  0  0  0  0  0  0  0  0  0
   30.9467   13.3299    8.0579 C   0  0  0  0  0  0  0  0  0  0  0  0
   31.5703   13.9720    8.8907 O   0  0  0  0  0  0  0  0  0  0  0  0
   29.9284   13.7255    7.5223 O   0  0  0  0  0  0  0  0  0  0  0  0
   28.7194   13.3995    8.2171 C   0  0  0  0  0  0  0  0  0  0  0  0
   27.8624   14.4604    7.9983 C   0  0  0  0  0  0  0  0  0  0  0  0
   28.5641   15.4949    7.4927 F   0  0  0  0  0  0  0  0  0  0  0  0
   30.6639   10.9256    8.1481 C   0  0  0  0  0  0  0  0  0  0  0  0
  1  2  1  0
  2  3  2  0
  3  4  1  0
  4  5  1  0
  4  6  2  0
  6  7  1  0
  6  8  1  0
  8  9  1  0
  9 10  2  0
  9 11  1  0
 11 12  1  0
 12 13  1  0
 13 14  1  0
  8 15  2  0
 15  2  1  0
A    1
 C1 
A    2
 C2 
A    3
 C3 
A    4
 C4 
A    5
 C5 
A    6
 C6 
A    7
 N1 
A    8
 C7 
A    9
 C8 
A   10
 O1 
A   11
 O2 
A   12
 C9 
A   13
 C10
A   14
 F1 
A   15
 C11
M  END
>  <ref_pdb>  (22) 
Ax0310a

>  <ref_mols>  (22) 
Ax0310a,Ax0732a

>  <original SMILES>  (22) 
Cc1cc(C)c(N)c(C(=O)OCCF)c1

>  <rationale>  (22) 
info halogenbond:S87; hbond:S87; hydroph_interaction:V124; 

>  <intxn_cluster_10>  (22) 
2

>  <intxn_cluster_rank_10>  (22) 
2

>  <N_interactions>  (22) 
3

>  <∆∆G>  (22) 
-8.770637

>  <$/mg>  (22) 
163.0

>  <comRMSD>  (22) 
0.510271

>  <N_rotatable_bonds>  (22) 
6

>  <deep_P1_sidechain>  (22) 
True

>  <farthest_distance_to_substrate>  (22) 
2.120709

>  <hbond:SER:7>  (22) 
hbond:SER:7    0
hbond:SER:7    0
Name: 20, dtype: object

>  <hydroph_interaction:ASN:19>  (22) 
hydroph_interaction:ASN:19    0
hydroph_interaction:ASN:19    0
Name: 20, dtype: object

>  <halogenbond:ASN:19>  (22) 
halogenbond:ASN:19    0
halogenbond:ASN:19    0
Name: 20, dtype: object

>  <hbond:ARG:20>  (22) 
hbond:ARG:20    0
hbond:ARG:20    0
Name: 20, dtype: object

>  <hydroph_interaction:ARG:20>  (22) 
hydroph_interaction:ARG:20    0
hydroph_interaction:ARG:20    0
Name: 20, dtype: object

>  <hbond:HIS:21>  (22) 
hbond:HIS:21    0
hbond:HIS:21    0
Name: 20, dtype: object

>  <hydroph_interaction:HIS:21>  (22) 
hydroph_interaction:HIS:21    0
hydroph_interaction:HIS:21    0
Name: 20, dtype: object

>  <saltbridge:HIS:21>  (22) 
saltbridge:HIS:21    0
saltbridge:HIS:21    0
Name: 20, dtype: object

>  <pistack:HIS:21>  (22) 
pistack:HIS:21    0
pistack:HIS:21    0
Name: 20, dtype: object

>  <pication:HIS:21>  (22) 
pication:HIS:21    0
pication:HIS:21    0
Name: 20, dtype: object

>  <hydroph_interaction:LEU:22>  (22) 
hydroph_interaction:LEU:22    0
hydroph_interaction:LEU:22    0
Name: 20, dtype: object

>  <hbond:SER:36>  (22) 
hbond:SER:36    0
hbond:SER:36    0
Name: 20, dtype: object

>  <hbond:ASP:39>  (22) 
hbond:ASP:39    0
hbond:ASP:39    0
Name: 20, dtype: object

>  <saltbridge:ASP:39>  (22) 
saltbridge:ASP:39    0
saltbridge:ASP:39    0
Name: 20, dtype: object

>  <hydroph_interaction:ASP:39>  (22) 
hydroph_interaction:ASP:39    0
hydroph_interaction:ASP:39    0
Name: 20, dtype: object

>  <halogenbond:ASP:39>  (22) 
halogenbond:ASP:39    0
halogenbond:ASP:39    0
Name: 20, dtype: object

>  <hydroph_interaction:ILE:82>  (22) 
hydroph_interaction:ILE:82    0
hydroph_interaction:ILE:82    0
Name: 20, dtype: object

>  <hydroph_interaction:PHE:83>  (22) 
hydroph_interaction:PHE:83    0
hydroph_interaction:PHE:83    0
Name: 20, dtype: object

>  <hbond:PHE:83>  (22) 
hbond:PHE:83    0
hbond:PHE:83    0
Name: 20, dtype: object

>  <halogenbond:PHE:83>  (22) 
halogenbond:PHE:83    0
halogenbond:PHE:83    0
Name: 20, dtype: object

>  <hydroph_interaction:VAL:84>  (22) 
hydroph_interaction:VAL:84    0
hydroph_interaction:VAL:84    0
Name: 20, dtype: object

>  <hydroph_interaction:GLU:85>  (22) 
hydroph_interaction:GLU:85    0
hydroph_interaction:GLU:85    0
Name: 20, dtype: object

>  <hbond:GLU:85>  (22) 
hbond:GLU:85    0
hbond:GLU:85    0
Name: 20, dtype: object

>  <halogenbond:GLU:85>  (22) 
halogenbond:GLU:85    0
halogenbond:GLU:85    0
Name: 20, dtype: object

>  <halogenbond:ALA:86>  (22) 
halogenbond:ALA:86    0
halogenbond:ALA:86    0
Name: 20, dtype: object

>  <hbond:SER:87>  (22) 
hbond:SER:87    1
hbond:SER:87    1
Name: 20, dtype: object

>  <halogenbond:SER:87>  (22) 
halogenbond:SER:87    1
halogenbond:SER:87    1
Name: 20, dtype: object

>  <hbond:GLU:88>  (22) 
hbond:GLU:88    0
hbond:GLU:88    0
Name: 20, dtype: object

>  <halogenbond:GLU:88>  (22) 
halogenbond:GLU:88    0
halogenbond:GLU:88    0
Name: 20, dtype: object

>  <hydroph_interaction:TYR:89>  (22) 
hydroph_interaction:TYR:89    0
hydroph_interaction:TYR:89    0
Name: 20, dtype: object

>  <pistack:TYR:89>  (22) 
pistack:TYR:89    0
pistack:TYR:89    0
Name: 20, dtype: object

>  <hbond:TYR:89>  (22) 
hbond:TYR:89    0
hbond:TYR:89    0
Name: 20, dtype: object

>  <hbond:TYR:90>  (22) 
hbond:TYR:90    0
hbond:TYR:90    0
Name: 20, dtype: object

>  <hydroph_interaction:TYR:90>  (22) 
hydroph_interaction:TYR:90    0
hydroph_interaction:TYR:90    0
Name: 20, dtype: object

>  <pistack:TYR:90>  (22) 
pistack:TYR:90    0
pistack:TYR:90    0
Name: 20, dtype: object

>  <hbond:ARG:93>  (22) 
hbond:ARG:93    0
hbond:ARG:93    0
Name: 20, dtype: object

>  <saltbridge:ARG:93>  (22) 
saltbridge:ARG:93    0
saltbridge:ARG:93    0
Name: 20, dtype: object

>  <hydroph_interaction:ARG:93>  (22) 
hydroph_interaction:ARG:93    0
hydroph_interaction:ARG:93    0
Name: 20, dtype: object

>  <halogenbond:GLN:95>  (22) 
halogenbond:GLN:95    0
halogenbond:GLN:95    0
Name: 20, dtype: object

>  <hbond:GLN:95>  (22) 
hbond:GLN:95    0
hbond:GLN:95    0
Name: 20, dtype: object

>  <hydroph_interaction:GLN:95>  (22) 
hydroph_interaction:GLN:95    0
hydroph_interaction:GLN:95    0
Name: 20, dtype: object

>  <hydroph_interaction:LEU:98>  (22) 
hydroph_interaction:LEU:98    0
hydroph_interaction:LEU:98    0
Name: 20, dtype: object

>  <hydroph_interaction:LEU:100>  (22) 
hydroph_interaction:LEU:100    0
hydroph_interaction:LEU:100    0
Name: 20, dtype: object

>  <hbond:SER:105>  (22) 
hbond:SER:105    0
hbond:SER:105    0
Name: 20, dtype: object

>  <halogenbond:SER:105>  (22) 
halogenbond:SER:105    0
halogenbond:SER:105    0
Name: 20, dtype: object

>  <hydroph_interaction:PRO:107>  (22) 
hydroph_interaction:PRO:107    0
hydroph_interaction:PRO:107    0
Name: 20, dtype: object

>  <hbond:PRO:107>  (22) 
hbond:PRO:107    0
hbond:PRO:107    0
Name: 20, dtype: object

>  <halogenbond:PRO:107>  (22) 
halogenbond:PRO:107    0
halogenbond:PRO:107    0
Name: 20, dtype: object

>  <hbond:ASP:109>  (22) 
hbond:ASP:109    0
hbond:ASP:109    0
Name: 20, dtype: object

>  <hbond:CYS:110>  (22) 
hbond:CYS:110    0
hbond:CYS:110    0
Name: 20, dtype: object

>  <halogenbond:CYS:110>  (22) 
halogenbond:CYS:110    0
halogenbond:CYS:110    0
Name: 20, dtype: object

>  <hydroph_interaction:VAL:124>  (22) 
hydroph_interaction:VAL:124    1
hydroph_interaction:VAL:124    1
Name: 20, dtype: object

>  <hbond:SER:125>  (22) 
hbond:SER:125    0
hbond:SER:125    0
Name: 20, dtype: object

>  <halogenbond:SER:125>  (22) 
halogenbond:SER:125    0
halogenbond:SER:125    0
Name: 20, dtype: object

>  <hydroph_interaction:THR:126>  (22) 
hydroph_interaction:THR:126    0
hydroph_interaction:THR:126    0
Name: 20, dtype: object

>  <hbond:THR:126>  (22) 
hbond:THR:126    0
hbond:THR:126    0
Name: 20, dtype: object

>  <halogenbond:THR:126>  (22) 
halogenbond:THR:126    0
halogenbond:THR:126    0
Name: 20, dtype: object

>  <hbond:GLY:127>  (22) 
hbond:GLY:127    0
hbond:GLY:127    0
Name: 20, dtype: object

>  <halogenbond:GLY:127>  (22) 
halogenbond:GLY:127    0
halogenbond:GLY:127    0
Name: 20, dtype: object

>  <hbond:GLY:128>  (22) 
hbond:GLY:128    0
hbond:GLY:128    0
Name: 20, dtype: object

>  <hbond:ASN:129>  (22) 
hbond:ASN:129    0
hbond:ASN:129    0
Name: 20, dtype: object

>  <hydroph_interaction:ASN:129>  (22) 
hydroph_interaction:ASN:129    0
hydroph_interaction:ASN:129    0
Name: 20, dtype: object

>  <halogenbond:ASN:129>  (22) 
halogenbond:ASN:129    0
halogenbond:ASN:129    0
Name: 20, dtype: object

>  <hydroph_interaction:LEU:131>  (22) 
hydroph_interaction:LEU:131    0
hydroph_interaction:LEU:131    0
Name: 20, dtype: object

>  <hbond:LEU:131>  (22) 
hbond:LEU:131    0
hbond:LEU:131    0
Name: 20, dtype: object

>  <halogenbond:LEU:131>  (22) 
halogenbond:LEU:131    0
halogenbond:LEU:131    0
Name: 20, dtype: object

>  <hbond:VAL:132>  (22) 
hbond:VAL:132    0
hbond:VAL:132    0
Name: 20, dtype: object

$$$$
Z4830349001
     RDKit          3D

 13 13  0  0  0  0  0  0  0  0999 V2000
   40.9860   12.6711   14.1185 C   0  0  0  0  0  0  0  0  0  0  0  0
   41.4443   13.1735   12.7924 C   0  0  0  0  0  0  0  0  0  0  0  0
   42.6927   12.6331   12.3555 O   0  0  0  0  0  0  0  0  0  0  0  0
   40.6346   14.0765   12.1529 N   0  0  0  0  0  0  0  0  0  0  0  0
   39.8558   13.6348   11.0297 C   0  0  0  0  0  0  0  0  0  0  0  0
   38.8821   12.7108   11.4037 C   0  0  0  0  0  0  0  0  0  0  0  0
   38.1489   12.8740   12.5839 C   0  0  0  0  0  0  0  0  0  0  0  0
   37.1051   11.8665   12.9665 C   0  0  0  0  0  0  0  0  0  0  0  0
   36.3981   12.0939   14.1931 C   0  0  0  0  0  0  0  0  0  0  0  0
   36.8636   10.7763   12.1609 C   0  0  0  0  0  0  0  0  0  0  0  0
   37.6947   10.6560   10.9005 C   0  0  0  0  0  0  0  0  0  0  0  0
   38.6475   11.6183   10.5822 C   0  0  0  0  0  0  0  0  0  0  0  0
   39.5933   11.5332    9.1645 Cl  0  0  0  0  0  0  0  0  0  0  0  0
  1  2  1  0
  2  3  2  0
  2  4  1  0
  4  5  1  0
  5  6  1  0
  6  7  2  0
  7  8  1  0
  8  9  1  0
  8 10  2  0
 10 11  1  0
 11 12  2  0
 12 13  1  0
 12  6  1  0
A    1
 C1 
A    2
 C2 
A    3
 O1 
A    4
 N1 
A    5
 C3 
A    6
 C4 
A    7
 C5 
A    8
 C6 
A    9
 C7 
A   10
 C8 
A   11
 C9 
A   12
 C10
A   13
CL1 
M  END
>  <ref_pdb>  (23) 
Ax0310a

>  <ref_mols>  (23) 
Ax0473a,Ax0416a

>  <original SMILES>  (23) 
CC(=O)NCc1cc(C)ccc1Cl

>  <rationale>  (23) 
info halogenbond:N129; hbond:F83; hydroph_interaction:V84+I82+L100+L131+L98; 

>  <intxn_cluster_10>  (23) 
4

>  <intxn_cluster_rank_10>  (23) 
1

>  <N_interactions>  (23) 
7

>  <∆∆G>  (23) 
-10.225712

>  <$/mg>  (23) 
163.0

>  <comRMSD>  (23) 
0.829099

>  <N_rotatable_bonds>  (23) 
4

>  <deep_P1_sidechain>  (23) 
False

>  <farthest_distance_to_substrate>  (23) 
4.963245

>  <hbond:SER:7>  (23) 
hbond:SER:7    0
hbond:SER:7    0
Name: 21, dtype: object

>  <hydroph_interaction:ASN:19>  (23) 
hydroph_interaction:ASN:19    0
hydroph_interaction:ASN:19    0
Name: 21, dtype: object

>  <halogenbond:ASN:19>  (23) 
halogenbond:ASN:19    0
halogenbond:ASN:19    0
Name: 21, dtype: object

>  <hbond:ARG:20>  (23) 
hbond:ARG:20    0
hbond:ARG:20    0
Name: 21, dtype: object

>  <hydroph_interaction:ARG:20>  (23) 
hydroph_interaction:ARG:20    0
hydroph_interaction:ARG:20    0
Name: 21, dtype: object

>  <hbond:HIS:21>  (23) 
hbond:HIS:21    0
hbond:HIS:21    0
Name: 21, dtype: object

>  <hydroph_interaction:HIS:21>  (23) 
hydroph_interaction:HIS:21    0
hydroph_interaction:HIS:21    0
Name: 21, dtype: object

>  <saltbridge:HIS:21>  (23) 
saltbridge:HIS:21    0
saltbridge:HIS:21    0
Name: 21, dtype: object

>  <pistack:HIS:21>  (23) 
pistack:HIS:21    0
pistack:HIS:21    0
Name: 21, dtype: object

>  <pication:HIS:21>  (23) 
pication:HIS:21    0
pication:HIS:21    0
Name: 21, dtype: object

>  <hydroph_interaction:LEU:22>  (23) 
hydroph_interaction:LEU:22    0
hydroph_interaction:LEU:22    0
Name: 21, dtype: object

>  <hbond:SER:36>  (23) 
hbond:SER:36    0
hbond:SER:36    0
Name: 21, dtype: object

>  <hbond:ASP:39>  (23) 
hbond:ASP:39    0
hbond:ASP:39    0
Name: 21, dtype: object

>  <saltbridge:ASP:39>  (23) 
saltbridge:ASP:39    0
saltbridge:ASP:39    0
Name: 21, dtype: object

>  <hydroph_interaction:ASP:39>  (23) 
hydroph_interaction:ASP:39    0
hydroph_interaction:ASP:39    0
Name: 21, dtype: object

>  <halogenbond:ASP:39>  (23) 
halogenbond:ASP:39    0
halogenbond:ASP:39    0
Name: 21, dtype: object

>  <hydroph_interaction:ILE:82>  (23) 
hydroph_interaction:ILE:82    1
hydroph_interaction:ILE:82    1
Name: 21, dtype: object

>  <hydroph_interaction:PHE:83>  (23) 
hydroph_interaction:PHE:83    0
hydroph_interaction:PHE:83    0
Name: 21, dtype: object

>  <hbond:PHE:83>  (23) 
hbond:PHE:83    1
hbond:PHE:83    1
Name: 21, dtype: object

>  <halogenbond:PHE:83>  (23) 
halogenbond:PHE:83    0
halogenbond:PHE:83    0
Name: 21, dtype: object

>  <hydroph_interaction:VAL:84>  (23) 
hydroph_interaction:VAL:84    1
hydroph_interaction:VAL:84    1
Name: 21, dtype: object

>  <hydroph_interaction:GLU:85>  (23) 
hydroph_interaction:GLU:85    0
hydroph_interaction:GLU:85    0
Name: 21, dtype: object

>  <hbond:GLU:85>  (23) 
hbond:GLU:85    0
hbond:GLU:85    0
Name: 21, dtype: object

>  <halogenbond:GLU:85>  (23) 
halogenbond:GLU:85    0
halogenbond:GLU:85    0
Name: 21, dtype: object

>  <halogenbond:ALA:86>  (23) 
halogenbond:ALA:86    0
halogenbond:ALA:86    0
Name: 21, dtype: object

>  <hbond:SER:87>  (23) 
hbond:SER:87    0
hbond:SER:87    0
Name: 21, dtype: object

>  <halogenbond:SER:87>  (23) 
halogenbond:SER:87    0
halogenbond:SER:87    0
Name: 21, dtype: object

>  <hbond:GLU:88>  (23) 
hbond:GLU:88    0
hbond:GLU:88    0
Name: 21, dtype: object

>  <halogenbond:GLU:88>  (23) 
halogenbond:GLU:88    0
halogenbond:GLU:88    0
Name: 21, dtype: object

>  <hydroph_interaction:TYR:89>  (23) 
hydroph_interaction:TYR:89    0
hydroph_interaction:TYR:89    0
Name: 21, dtype: object

>  <pistack:TYR:89>  (23) 
pistack:TYR:89    0
pistack:TYR:89    0
Name: 21, dtype: object

>  <hbond:TYR:89>  (23) 
hbond:TYR:89    0
hbond:TYR:89    0
Name: 21, dtype: object

>  <hbond:TYR:90>  (23) 
hbond:TYR:90    0
hbond:TYR:90    0
Name: 21, dtype: object

>  <hydroph_interaction:TYR:90>  (23) 
hydroph_interaction:TYR:90    0
hydroph_interaction:TYR:90    0
Name: 21, dtype: object

>  <pistack:TYR:90>  (23) 
pistack:TYR:90    0
pistack:TYR:90    0
Name: 21, dtype: object

>  <hbond:ARG:93>  (23) 
hbond:ARG:93    0
hbond:ARG:93    0
Name: 21, dtype: object

>  <saltbridge:ARG:93>  (23) 
saltbridge:ARG:93    0
saltbridge:ARG:93    0
Name: 21, dtype: object

>  <hydroph_interaction:ARG:93>  (23) 
hydroph_interaction:ARG:93    0
hydroph_interaction:ARG:93    0
Name: 21, dtype: object

>  <halogenbond:GLN:95>  (23) 
halogenbond:GLN:95    0
halogenbond:GLN:95    0
Name: 21, dtype: object

>  <hbond:GLN:95>  (23) 
hbond:GLN:95    0
hbond:GLN:95    0
Name: 21, dtype: object

>  <hydroph_interaction:GLN:95>  (23) 
hydroph_interaction:GLN:95    0
hydroph_interaction:GLN:95    0
Name: 21, dtype: object

>  <hydroph_interaction:LEU:98>  (23) 
hydroph_interaction:LEU:98    1
hydroph_interaction:LEU:98    1
Name: 21, dtype: object

>  <hydroph_interaction:LEU:100>  (23) 
hydroph_interaction:LEU:100    1
hydroph_interaction:LEU:100    1
Name: 21, dtype: object

>  <hbond:SER:105>  (23) 
hbond:SER:105    0
hbond:SER:105    0
Name: 21, dtype: object

>  <halogenbond:SER:105>  (23) 
halogenbond:SER:105    0
halogenbond:SER:105    0
Name: 21, dtype: object

>  <hydroph_interaction:PRO:107>  (23) 
hydroph_interaction:PRO:107    0
hydroph_interaction:PRO:107    0
Name: 21, dtype: object

>  <hbond:PRO:107>  (23) 
hbond:PRO:107    0
hbond:PRO:107    0
Name: 21, dtype: object

>  <halogenbond:PRO:107>  (23) 
halogenbond:PRO:107    0
halogenbond:PRO:107    0
Name: 21, dtype: object

>  <hbond:ASP:109>  (23) 
hbond:ASP:109    0
hbond:ASP:109    0
Name: 21, dtype: object

>  <hbond:CYS:110>  (23) 
hbond:CYS:110    0
hbond:CYS:110    0
Name: 21, dtype: object

>  <halogenbond:CYS:110>  (23) 
halogenbond:CYS:110    0
halogenbond:CYS:110    0
Name: 21, dtype: object

>  <hydroph_interaction:VAL:124>  (23) 
hydroph_interaction:VAL:124    0
hydroph_interaction:VAL:124    0
Name: 21, dtype: object

>  <hbond:SER:125>  (23) 
hbond:SER:125    0
hbond:SER:125    0
Name: 21, dtype: object

>  <halogenbond:SER:125>  (23) 
halogenbond:SER:125    0
halogenbond:SER:125    0
Name: 21, dtype: object

>  <hydroph_interaction:THR:126>  (23) 
hydroph_interaction:THR:126    0
hydroph_interaction:THR:126    0
Name: 21, dtype: object

>  <hbond:THR:126>  (23) 
hbond:THR:126    0
hbond:THR:126    0
Name: 21, dtype: object

>  <halogenbond:THR:126>  (23) 
halogenbond:THR:126    0
halogenbond:THR:126    0
Name: 21, dtype: object

>  <hbond:GLY:127>  (23) 
hbond:GLY:127    0
hbond:GLY:127    0
Name: 21, dtype: object

>  <halogenbond:GLY:127>  (23) 
halogenbond:GLY:127    0
halogenbond:GLY:127    0
Name: 21, dtype: object

>  <hbond:GLY:128>  (23) 
hbond:GLY:128    0
hbond:GLY:128    0
Name: 21, dtype: object

>  <hbond:ASN:129>  (23) 
hbond:ASN:129    0
hbond:ASN:129    0
Name: 21, dtype: object

>  <hydroph_interaction:ASN:129>  (23) 
hydroph_interaction:ASN:129    0
hydroph_interaction:ASN:129    0
Name: 21, dtype: object

>  <halogenbond:ASN:129>  (23) 
halogenbond:ASN:129    1
halogenbond:ASN:129    1
Name: 21, dtype: object

>  <hydroph_interaction:LEU:131>  (23) 
hydroph_interaction:LEU:131    1
hydroph_interaction:LEU:131    1
Name: 21, dtype: object

>  <hbond:LEU:131>  (23) 
hbond:LEU:131    0
hbond:LEU:131    0
Name: 21, dtype: object

>  <halogenbond:LEU:131>  (23) 
halogenbond:LEU:131    0
halogenbond:LEU:131    0
Name: 21, dtype: object

>  <hbond:VAL:132>  (23) 
hbond:VAL:132    0
hbond:VAL:132    0
Name: 21, dtype: object

$$$$
PV_002869276346
     RDKit          3D

 25 26  0  0  0  0  0  0  0  0999 V2000
   33.9919   11.2007    3.2398 C   0  0  0  0  0  0  0  0  0  0  0  0
   33.7089   11.5408    4.5940 O   0  0  0  0  0  0  0  0  0  0  0  0
   33.6615   10.4675    5.4118 C   0  0  0  0  0  0  0  0  0  0  0  0
   34.3870    9.4901    5.3417 O   0  0  0  0  0  0  0  0  0  0  0  0
   32.5825   10.6317    6.4191 C   0  0  0  0  0  0  0  0  0  0  0  0
   32.0355    9.4807    6.9937 C   0  0  0  0  0  0  0  0  0  0  0  0
   31.0197    9.5904    7.9381 C   0  0  0  0  0  0  0  0  0  0  0  0
   30.4263    8.3776    8.5679 C   0  0  0  0  0  0  0  0  0  0  0  0
   30.5639   10.8534    8.2912 C   0  0  0  0  0  0  0  0  0  0  0  0
   31.0926   12.0252    7.7462 C   0  0  0  0  0  0  0  0  0  0  0  0
   30.5650   13.2723    8.2026 N   0  0  0  0  0  0  0  0  0  0  0  0
   29.2475   13.7069    8.3273 C   0  0  0  0  0  0  0  0  0  0  0  0
   28.3827   13.6472    7.4657 O   0  0  0  0  0  0  0  0  0  0  0  0
   29.0050   14.2505    9.5985 N   0  0  0  0  0  0  0  0  0  0  0  0
   27.6616   14.7798    9.8372 C   0  0  0  0  0  0  0  0  0  0  0  0
   27.3968   15.9127   10.8753 C   0  0  0  0  0  0  0  0  0  0  0  0
   27.0573   17.2867   10.2958 C   0  0  2  0  0  0  0  0  0  0  0  0
   28.0770   17.6806    9.4235 O   0  0  0  0  0  0  0  0  0  0  0  0
   26.1736   18.4432   11.0285 C   0  0  0  0  0  0  0  0  0  0  0  0
   25.3484   17.9947   12.1929 C   0  0  0  0  0  0  0  0  0  0  0  0
   24.2114   18.9730   12.3362 C   0  0  0  0  0  0  0  0  0  0  0  0
   24.2222   20.0411   11.2832 C   0  0  0  0  0  0  0  0  0  0  0  0
   25.4547   20.8319   11.5854 C   0  0  0  0  0  0  0  0  0  0  0  0
   26.6304   19.8774   11.4974 C   0  0  0  0  0  0  0  0  0  0  0  0
   32.1110   11.9026    6.7992 C   0  0  0  0  0  0  0  0  0  0  0  0
  1  2  1  0
  2  3  1  0
  3  4  2  0
  3  5  1  0
  5  6  2  0
  6  7  1  0
  7  8  1  0
  7  9  2  0
  9 10  1  0
 10 11  1  0
 11 12  1  0
 12 13  2  0
 12 14  1  0
 14 15  1  0
 15 16  1  0
 16 17  1  0
 17 18  1  1
 17 19  1  0
 19 20  1  0
 20 21  1  0
 21 22  1  0
 22 23  1  0
 23 24  1  0
 10 25  2  0
 25  5  1  0
 24 19  1  0
A    1
 C1 
A    2
 O1 
A    3
 C2 
A    4
 O2 
A    5
 C3 
A    6
 C4 
A    7
 C5 
A    8
 C6 
A    9
 C7 
A   10
 C8 
A   11
 N1 
A   12
 C9 
A   13
 O3 
A   14
 N2 
A   15
 C10
A   16
 C11
A   17
 C12
A   18
 O4 
A   19
 C13
A   20
 C14
A   21
 C15
A   22
 C16
A   23
 C17
A   24
 C18
A   25
 C19
M  END
>  <ref_pdb>  (24) 
Ax0310a

>  <ref_mols>  (24) 
Ax0554a,Ax0739a

>  <original SMILES>  (24) 
COC(=O)c1cc(C)cc(NC(=O)NCCC(O)C2CCCCC2)c1

>  <rationale>  (24) 
info hbond:S87+Y90+Y89; hydroph_interaction:V124+Y89+Y90+H21+R20; 

>  <intxn_cluster_10>  (24) 
9

>  <intxn_cluster_rank_10>  (24) 
3

>  <N_interactions>  (24) 
10

>  <∆∆G>  (24) 
-4.256912

>  <$/mg>  (24) 
0.0

>  <comRMSD>  (24) 
0.766304

>  <N_rotatable_bonds>  (24) 
9

>  <deep_P1_sidechain>  (24) 
True

>  <farthest_distance_to_substrate>  (24) 
4.746602

>  <hbond:SER:7>  (24) 
hbond:SER:7    0
hbond:SER:7    0
Name: 22, dtype: object

>  <hydroph_interaction:ASN:19>  (24) 
hydroph_interaction:ASN:19    0
hydroph_interaction:ASN:19    0
Name: 22, dtype: object

>  <halogenbond:ASN:19>  (24) 
halogenbond:ASN:19    0
halogenbond:ASN:19    0
Name: 22, dtype: object

>  <hbond:ARG:20>  (24) 
hbond:ARG:20    0
hbond:ARG:20    0
Name: 22, dtype: object

>  <hydroph_interaction:ARG:20>  (24) 
hydroph_interaction:ARG:20    1
hydroph_interaction:ARG:20    1
Name: 22, dtype: object

>  <hbond:HIS:21>  (24) 
hbond:HIS:21    0
hbond:HIS:21    0
Name: 22, dtype: object

>  <hydroph_interaction:HIS:21>  (24) 
hydroph_interaction:HIS:21    1
hydroph_interaction:HIS:21    1
Name: 22, dtype: object

>  <saltbridge:HIS:21>  (24) 
saltbridge:HIS:21    0
saltbridge:HIS:21    0
Name: 22, dtype: object

>  <pistack:HIS:21>  (24) 
pistack:HIS:21    0
pistack:HIS:21    0
Name: 22, dtype: object

>  <pication:HIS:21>  (24) 
pication:HIS:21    0
pication:HIS:21    0
Name: 22, dtype: object

>  <hydroph_interaction:LEU:22>  (24) 
hydroph_interaction:LEU:22    0
hydroph_interaction:LEU:22    0
Name: 22, dtype: object

>  <hbond:SER:36>  (24) 
hbond:SER:36    0
hbond:SER:36    0
Name: 22, dtype: object

>  <hbond:ASP:39>  (24) 
hbond:ASP:39    0
hbond:ASP:39    0
Name: 22, dtype: object

>  <saltbridge:ASP:39>  (24) 
saltbridge:ASP:39    0
saltbridge:ASP:39    0
Name: 22, dtype: object

>  <hydroph_interaction:ASP:39>  (24) 
hydroph_interaction:ASP:39    0
hydroph_interaction:ASP:39    0
Name: 22, dtype: object

>  <halogenbond:ASP:39>  (24) 
halogenbond:ASP:39    0
halogenbond:ASP:39    0
Name: 22, dtype: object

>  <hydroph_interaction:ILE:82>  (24) 
hydroph_interaction:ILE:82    0
hydroph_interaction:ILE:82    0
Name: 22, dtype: object

>  <hydroph_interaction:PHE:83>  (24) 
hydroph_interaction:PHE:83    0
hydroph_interaction:PHE:83    0
Name: 22, dtype: object

>  <hbond:PHE:83>  (24) 
hbond:PHE:83    0
hbond:PHE:83    0
Name: 22, dtype: object

>  <halogenbond:PHE:83>  (24) 
halogenbond:PHE:83    0
halogenbond:PHE:83    0
Name: 22, dtype: object

>  <hydroph_interaction:VAL:84>  (24) 
hydroph_interaction:VAL:84    0
hydroph_interaction:VAL:84    0
Name: 22, dtype: object

>  <hydroph_interaction:GLU:85>  (24) 
hydroph_interaction:GLU:85    0
hydroph_interaction:GLU:85    0
Name: 22, dtype: object

>  <hbond:GLU:85>  (24) 
hbond:GLU:85    0
hbond:GLU:85    0
Name: 22, dtype: object

>  <halogenbond:GLU:85>  (24) 
halogenbond:GLU:85    0
halogenbond:GLU:85    0
Name: 22, dtype: object

>  <halogenbond:ALA:86>  (24) 
halogenbond:ALA:86    0
halogenbond:ALA:86    0
Name: 22, dtype: object

>  <hbond:SER:87>  (24) 
hbond:SER:87    1
hbond:SER:87    1
Name: 22, dtype: object

>  <halogenbond:SER:87>  (24) 
halogenbond:SER:87    0
halogenbond:SER:87    0
Name: 22, dtype: object

>  <hbond:GLU:88>  (24) 
hbond:GLU:88    0
hbond:GLU:88    0
Name: 22, dtype: object

>  <halogenbond:GLU:88>  (24) 
halogenbond:GLU:88    0
halogenbond:GLU:88    0
Name: 22, dtype: object

>  <hydroph_interaction:TYR:89>  (24) 
hydroph_interaction:TYR:89    1
hydroph_interaction:TYR:89    1
Name: 22, dtype: object

>  <pistack:TYR:89>  (24) 
pistack:TYR:89    0
pistack:TYR:89    0
Name: 22, dtype: object

>  <hbond:TYR:89>  (24) 
hbond:TYR:89    1
hbond:TYR:89    1
Name: 22, dtype: object

>  <hbond:TYR:90>  (24) 
hbond:TYR:90    2
hbond:TYR:90    2
Name: 22, dtype: object

>  <hydroph_interaction:TYR:90>  (24) 
hydroph_interaction:TYR:90    2
hydroph_interaction:TYR:90    2
Name: 22, dtype: object

>  <pistack:TYR:90>  (24) 
pistack:TYR:90    0
pistack:TYR:90    0
Name: 22, dtype: object

>  <hbond:ARG:93>  (24) 
hbond:ARG:93    0
hbond:ARG:93    0
Name: 22, dtype: object

>  <saltbridge:ARG:93>  (24) 
saltbridge:ARG:93    0
saltbridge:ARG:93    0
Name: 22, dtype: object

>  <hydroph_interaction:ARG:93>  (24) 
hydroph_interaction:ARG:93    0
hydroph_interaction:ARG:93    0
Name: 22, dtype: object

>  <halogenbond:GLN:95>  (24) 
halogenbond:GLN:95    0
halogenbond:GLN:95    0
Name: 22, dtype: object

>  <hbond:GLN:95>  (24) 
hbond:GLN:95    0
hbond:GLN:95    0
Name: 22, dtype: object

>  <hydroph_interaction:GLN:95>  (24) 
hydroph_interaction:GLN:95    0
hydroph_interaction:GLN:95    0
Name: 22, dtype: object

>  <hydroph_interaction:LEU:98>  (24) 
hydroph_interaction:LEU:98    0
hydroph_interaction:LEU:98    0
Name: 22, dtype: object

>  <hydroph_interaction:LEU:100>  (24) 
hydroph_interaction:LEU:100    0
hydroph_interaction:LEU:100    0
Name: 22, dtype: object

>  <hbond:SER:105>  (24) 
hbond:SER:105    0
hbond:SER:105    0
Name: 22, dtype: object

>  <halogenbond:SER:105>  (24) 
halogenbond:SER:105    0
halogenbond:SER:105    0
Name: 22, dtype: object

>  <hydroph_interaction:PRO:107>  (24) 
hydroph_interaction:PRO:107    0
hydroph_interaction:PRO:107    0
Name: 22, dtype: object

>  <hbond:PRO:107>  (24) 
hbond:PRO:107    0
hbond:PRO:107    0
Name: 22, dtype: object

>  <halogenbond:PRO:107>  (24) 
halogenbond:PRO:107    0
halogenbond:PRO:107    0
Name: 22, dtype: object

>  <hbond:ASP:109>  (24) 
hbond:ASP:109    0
hbond:ASP:109    0
Name: 22, dtype: object

>  <hbond:CYS:110>  (24) 
hbond:CYS:110    0
hbond:CYS:110    0
Name: 22, dtype: object

>  <halogenbond:CYS:110>  (24) 
halogenbond:CYS:110    0
halogenbond:CYS:110    0
Name: 22, dtype: object

>  <hydroph_interaction:VAL:124>  (24) 
hydroph_interaction:VAL:124    1
hydroph_interaction:VAL:124    1
Name: 22, dtype: object

>  <hbond:SER:125>  (24) 
hbond:SER:125    0
hbond:SER:125    0
Name: 22, dtype: object

>  <halogenbond:SER:125>  (24) 
halogenbond:SER:125    0
halogenbond:SER:125    0
Name: 22, dtype: object

>  <hydroph_interaction:THR:126>  (24) 
hydroph_interaction:THR:126    0
hydroph_interaction:THR:126    0
Name: 22, dtype: object

>  <hbond:THR:126>  (24) 
hbond:THR:126    0
hbond:THR:126    0
Name: 22, dtype: object

>  <halogenbond:THR:126>  (24) 
halogenbond:THR:126    0
halogenbond:THR:126    0
Name: 22, dtype: object

>  <hbond:GLY:127>  (24) 
hbond:GLY:127    0
hbond:GLY:127    0
Name: 22, dtype: object

>  <halogenbond:GLY:127>  (24) 
halogenbond:GLY:127    0
halogenbond:GLY:127    0
Name: 22, dtype: object

>  <hbond:GLY:128>  (24) 
hbond:GLY:128    0
hbond:GLY:128    0
Name: 22, dtype: object

>  <hbond:ASN:129>  (24) 
hbond:ASN:129    0
hbond:ASN:129    0
Name: 22, dtype: object

>  <hydroph_interaction:ASN:129>  (24) 
hydroph_interaction:ASN:129    0
hydroph_interaction:ASN:129    0
Name: 22, dtype: object

>  <halogenbond:ASN:129>  (24) 
halogenbond:ASN:129    0
halogenbond:ASN:129    0
Name: 22, dtype: object

>  <hydroph_interaction:LEU:131>  (24) 
hydroph_interaction:LEU:131    0
hydroph_interaction:LEU:131    0
Name: 22, dtype: object

>  <hbond:LEU:131>  (24) 
hbond:LEU:131    0
hbond:LEU:131    0
Name: 22, dtype: object

>  <halogenbond:LEU:131>  (24) 
halogenbond:LEU:131    0
halogenbond:LEU:131    0
Name: 22, dtype: object

>  <hbond:VAL:132>  (24) 
hbond:VAL:132    0
hbond:VAL:132    0
Name: 22, dtype: object

$$$$
Z2518855390
     RDKit          3D

 17 18  0  0  0  0  0  0  0  0999 V2000
   30.7998    8.2297    8.3261 C   0  0  0  0  0  0  0  0  0  0  0  0
   31.1462    9.5128    7.8417 N   0  0  0  0  0  0  0  0  0  0  0  0
   32.0485    9.8078    6.8600 C   0  0  0  0  0  0  0  0  0  0  0  0
   32.0580   11.1765    6.7273 C   0  0  0  0  0  0  0  0  0  0  0  0
   31.1288   11.6928    7.6708 C   0  0  0  0  0  0  0  0  0  0  0  0
   30.6991   12.9570    8.0449 C   0  0  0  0  0  0  0  0  0  0  0  0
   29.3916   13.3244    7.5457 N   0  0  0  0  0  0  0  0  0  0  0  0
   28.4121   13.6524    8.3054 C   0  0  0  0  0  0  0  0  0  0  0  0
   28.3685   13.7217    9.6648 N   0  0  0  0  0  0  0  0  0  0  0  0
   27.1779   14.0064    7.8758 N   0  0  0  0  0  0  0  0  0  0  0  0
   26.0401   13.1902    7.7524 C   0  0  0  0  0  0  0  0  0  0  0  0
   25.7122   12.6480    6.5021 C   0  0  0  0  0  0  0  0  0  0  0  0
   24.5877   11.8355    6.3372 C   0  0  0  0  0  0  0  0  0  0  0  0
   23.7613   11.5420    7.3977 C   0  0  0  0  0  0  0  0  0  0  0  0
   24.0798   12.0732    8.6370 C   0  0  0  0  0  0  0  0  0  0  0  0
   25.1992   12.8822    8.8139 C   0  0  0  0  0  0  0  0  0  0  0  0
   30.5808   10.6274    8.3325 C   0  0  0  0  0  0  0  0  0  0  0  0
  1  2  1  0
  2  3  1  0
  3  4  2  0
  4  5  1  0
  5  6  1  0
  6  7  1  0
  7  8  2  3
  8  9  1  0
  8 10  1  0
 10 11  1  0
 11 12  2  0
 12 13  1  0
 13 14  2  0
 14 15  1  0
 15 16  2  0
  5 17  2  0
 17  2  1  0
 16 11  1  0
A    1
 C1 
A    2
 N1 
A    3
 C2 
A    4
 C3 
A    5
 C4 
A    6
 C5 
A    7
 N2 
A    8
 C6 
A    9
 N3 
A   10
 N4 
A   11
 C7 
A   12
 C8 
A   13
 C9 
A   14
 C10
A   15
 C11
A   16
 C12
A   17
 C13
M  END
>  <ref_pdb>  (25) 
Ax0310a

>  <ref_mols>  (25) 
Ax0451a,Ax0416a

>  <original SMILES>  (25) 
Cn1ccc(CN=C(N)Nc2ccccc2)c1

>  <rationale>  (25) 
info hbond:E88+S87+D39; hydroph_interaction:Y89+H21+L22+N19; 

>  <intxn_cluster_10>  (25) 
2

>  <intxn_cluster_rank_10>  (25) 
4

>  <N_interactions>  (25) 
7

>  <∆∆G>  (25) 
-10.436666

>  <$/mg>  (25) 
163.0

>  <comRMSD>  (25) 
0.865565

>  <N_rotatable_bonds>  (25) 
4

>  <deep_P1_sidechain>  (25) 
False

>  <farthest_distance_to_substrate>  (25) 
2.695935

>  <hbond:SER:7>  (25) 
hbond:SER:7    0
hbond:SER:7    0
Name: 23, dtype: object

>  <hydroph_interaction:ASN:19>  (25) 
hydroph_interaction:ASN:19    1
hydroph_interaction:ASN:19    1
Name: 23, dtype: object

>  <halogenbond:ASN:19>  (25) 
halogenbond:ASN:19    0
halogenbond:ASN:19    0
Name: 23, dtype: object

>  <hbond:ARG:20>  (25) 
hbond:ARG:20    0
hbond:ARG:20    0
Name: 23, dtype: object

>  <hydroph_interaction:ARG:20>  (25) 
hydroph_interaction:ARG:20    0
hydroph_interaction:ARG:20    0
Name: 23, dtype: object

>  <hbond:HIS:21>  (25) 
hbond:HIS:21    0
hbond:HIS:21    0
Name: 23, dtype: object

>  <hydroph_interaction:HIS:21>  (25) 
hydroph_interaction:HIS:21    1
hydroph_interaction:HIS:21    1
Name: 23, dtype: object

>  <saltbridge:HIS:21>  (25) 
saltbridge:HIS:21    0
saltbridge:HIS:21    0
Name: 23, dtype: object

>  <pistack:HIS:21>  (25) 
pistack:HIS:21    0
pistack:HIS:21    0
Name: 23, dtype: object

>  <pication:HIS:21>  (25) 
pication:HIS:21    0
pication:HIS:21    0
Name: 23, dtype: object

>  <hydroph_interaction:LEU:22>  (25) 
hydroph_interaction:LEU:22    1
hydroph_interaction:LEU:22    1
Name: 23, dtype: object

>  <hbond:SER:36>  (25) 
hbond:SER:36    0
hbond:SER:36    0
Name: 23, dtype: object

>  <hbond:ASP:39>  (25) 
hbond:ASP:39    1
hbond:ASP:39    1
Name: 23, dtype: object

>  <saltbridge:ASP:39>  (25) 
saltbridge:ASP:39    0
saltbridge:ASP:39    0
Name: 23, dtype: object

>  <hydroph_interaction:ASP:39>  (25) 
hydroph_interaction:ASP:39    0
hydroph_interaction:ASP:39    0
Name: 23, dtype: object

>  <halogenbond:ASP:39>  (25) 
halogenbond:ASP:39    0
halogenbond:ASP:39    0
Name: 23, dtype: object

>  <hydroph_interaction:ILE:82>  (25) 
hydroph_interaction:ILE:82    0
hydroph_interaction:ILE:82    0
Name: 23, dtype: object

>  <hydroph_interaction:PHE:83>  (25) 
hydroph_interaction:PHE:83    0
hydroph_interaction:PHE:83    0
Name: 23, dtype: object

>  <hbond:PHE:83>  (25) 
hbond:PHE:83    0
hbond:PHE:83    0
Name: 23, dtype: object

>  <halogenbond:PHE:83>  (25) 
halogenbond:PHE:83    0
halogenbond:PHE:83    0
Name: 23, dtype: object

>  <hydroph_interaction:VAL:84>  (25) 
hydroph_interaction:VAL:84    0
hydroph_interaction:VAL:84    0
Name: 23, dtype: object

>  <hydroph_interaction:GLU:85>  (25) 
hydroph_interaction:GLU:85    0
hydroph_interaction:GLU:85    0
Name: 23, dtype: object

>  <hbond:GLU:85>  (25) 
hbond:GLU:85    0
hbond:GLU:85    0
Name: 23, dtype: object

>  <halogenbond:GLU:85>  (25) 
halogenbond:GLU:85    0
halogenbond:GLU:85    0
Name: 23, dtype: object

>  <halogenbond:ALA:86>  (25) 
halogenbond:ALA:86    0
halogenbond:ALA:86    0
Name: 23, dtype: object

>  <hbond:SER:87>  (25) 
hbond:SER:87    1
hbond:SER:87    1
Name: 23, dtype: object

>  <halogenbond:SER:87>  (25) 
halogenbond:SER:87    0
halogenbond:SER:87    0
Name: 23, dtype: object

>  <hbond:GLU:88>  (25) 
hbond:GLU:88    1
hbond:GLU:88    1
Name: 23, dtype: object

>  <halogenbond:GLU:88>  (25) 
halogenbond:GLU:88    0
halogenbond:GLU:88    0
Name: 23, dtype: object

>  <hydroph_interaction:TYR:89>  (25) 
hydroph_interaction:TYR:89    1
hydroph_interaction:TYR:89    1
Name: 23, dtype: object

>  <pistack:TYR:89>  (25) 
pistack:TYR:89    0
pistack:TYR:89    0
Name: 23, dtype: object

>  <hbond:TYR:89>  (25) 
hbond:TYR:89    0
hbond:TYR:89    0
Name: 23, dtype: object

>  <hbond:TYR:90>  (25) 
hbond:TYR:90    0
hbond:TYR:90    0
Name: 23, dtype: object

>  <hydroph_interaction:TYR:90>  (25) 
hydroph_interaction:TYR:90    0
hydroph_interaction:TYR:90    0
Name: 23, dtype: object

>  <pistack:TYR:90>  (25) 
pistack:TYR:90    0
pistack:TYR:90    0
Name: 23, dtype: object

>  <hbond:ARG:93>  (25) 
hbond:ARG:93    0
hbond:ARG:93    0
Name: 23, dtype: object

>  <saltbridge:ARG:93>  (25) 
saltbridge:ARG:93    0
saltbridge:ARG:93    0
Name: 23, dtype: object

>  <hydroph_interaction:ARG:93>  (25) 
hydroph_interaction:ARG:93    0
hydroph_interaction:ARG:93    0
Name: 23, dtype: object

>  <halogenbond:GLN:95>  (25) 
halogenbond:GLN:95    0
halogenbond:GLN:95    0
Name: 23, dtype: object

>  <hbond:GLN:95>  (25) 
hbond:GLN:95    0
hbond:GLN:95    0
Name: 23, dtype: object

>  <hydroph_interaction:GLN:95>  (25) 
hydroph_interaction:GLN:95    0
hydroph_interaction:GLN:95    0
Name: 23, dtype: object

>  <hydroph_interaction:LEU:98>  (25) 
hydroph_interaction:LEU:98    0
hydroph_interaction:LEU:98    0
Name: 23, dtype: object

>  <hydroph_interaction:LEU:100>  (25) 
hydroph_interaction:LEU:100    0
hydroph_interaction:LEU:100    0
Name: 23, dtype: object

>  <hbond:SER:105>  (25) 
hbond:SER:105    0
hbond:SER:105    0
Name: 23, dtype: object

>  <halogenbond:SER:105>  (25) 
halogenbond:SER:105    0
halogenbond:SER:105    0
Name: 23, dtype: object

>  <hydroph_interaction:PRO:107>  (25) 
hydroph_interaction:PRO:107    0
hydroph_interaction:PRO:107    0
Name: 23, dtype: object

>  <hbond:PRO:107>  (25) 
hbond:PRO:107    0
hbond:PRO:107    0
Name: 23, dtype: object

>  <halogenbond:PRO:107>  (25) 
halogenbond:PRO:107    0
halogenbond:PRO:107    0
Name: 23, dtype: object

>  <hbond:ASP:109>  (25) 
hbond:ASP:109    0
hbond:ASP:109    0
Name: 23, dtype: object

>  <hbond:CYS:110>  (25) 
hbond:CYS:110    0
hbond:CYS:110    0
Name: 23, dtype: object

>  <halogenbond:CYS:110>  (25) 
halogenbond:CYS:110    0
halogenbond:CYS:110    0
Name: 23, dtype: object

>  <hydroph_interaction:VAL:124>  (25) 
hydroph_interaction:VAL:124    0
hydroph_interaction:VAL:124    0
Name: 23, dtype: object

>  <hbond:SER:125>  (25) 
hbond:SER:125    0
hbond:SER:125    0
Name: 23, dtype: object

>  <halogenbond:SER:125>  (25) 
halogenbond:SER:125    0
halogenbond:SER:125    0
Name: 23, dtype: object

>  <hydroph_interaction:THR:126>  (25) 
hydroph_interaction:THR:126    0
hydroph_interaction:THR:126    0
Name: 23, dtype: object

>  <hbond:THR:126>  (25) 
hbond:THR:126    0
hbond:THR:126    0
Name: 23, dtype: object

>  <halogenbond:THR:126>  (25) 
halogenbond:THR:126    0
halogenbond:THR:126    0
Name: 23, dtype: object

>  <hbond:GLY:127>  (25) 
hbond:GLY:127    0
hbond:GLY:127    0
Name: 23, dtype: object

>  <halogenbond:GLY:127>  (25) 
halogenbond:GLY:127    0
halogenbond:GLY:127    0
Name: 23, dtype: object

>  <hbond:GLY:128>  (25) 
hbond:GLY:128    0
hbond:GLY:128    0
Name: 23, dtype: object

>  <hbond:ASN:129>  (25) 
hbond:ASN:129    0
hbond:ASN:129    0
Name: 23, dtype: object

>  <hydroph_interaction:ASN:129>  (25) 
hydroph_interaction:ASN:129    0
hydroph_interaction:ASN:129    0
Name: 23, dtype: object

>  <halogenbond:ASN:129>  (25) 
halogenbond:ASN:129    0
halogenbond:ASN:129    0
Name: 23, dtype: object

>  <hydroph_interaction:LEU:131>  (25) 
hydroph_interaction:LEU:131    0
hydroph_interaction:LEU:131    0
Name: 23, dtype: object

>  <hbond:LEU:131>  (25) 
hbond:LEU:131    0
hbond:LEU:131    0
Name: 23, dtype: object

>  <halogenbond:LEU:131>  (25) 
halogenbond:LEU:131    0
halogenbond:LEU:131    0
Name: 23, dtype: object

>  <hbond:VAL:132>  (25) 
hbond:VAL:132    0
hbond:VAL:132    0
Name: 23, dtype: object

$$$$
Z3199018877
     RDKit          3D

 20 22  0  0  0  0  0  0  0  0999 V2000
   29.1020    9.9160    8.8903 C   0  0  0  0  0  0  0  0  0  0  0  0
   30.2601   10.3146    7.9950 C   0  0  0  0  0  0  0  0  0  0  0  0
   30.4775   11.6469    7.3222 C   0  0  0  0  0  0  0  0  0  0  0  0
   29.5933   12.8845    7.4000 C   0  0  0  0  0  0  0  0  0  0  0  0
   29.4989   13.7116    6.5070 O   0  0  0  0  0  0  0  0  0  0  0  0
   28.8586   12.9601    8.6789 N   0  0  0  0  0  0  0  0  0  0  0  0
   27.4905   13.3129    8.6640 C   0  0  0  0  0  0  0  0  0  0  0  0
   26.7530   12.5616    7.7524 C   0  0  0  0  0  0  0  0  0  0  0  0
   27.4265   11.4325    7.4933 F   0  0  0  0  0  0  0  0  0  0  0  0
   25.4250   12.3768    7.9929 C   0  0  0  0  0  0  0  0  0  0  0  0
   25.0607   13.2220    6.8469 C   0  0  0  0  0  0  0  0  0  0  0  0
   26.5703   13.4133    6.5125 C   0  0  0  0  0  0  0  0  0  0  0  0
   31.7632   11.5071    6.4975 C   0  0  0  0  0  0  0  0  0  0  0  0
   32.5877   12.3966    5.5786 C   0  0  0  0  0  0  0  0  0  0  0  0
   33.8251   11.7885    4.9411 C   0  0  0  0  0  0  0  0  0  0  0  0
   34.1828   10.4524    5.1982 C   0  0  0  0  0  0  0  0  0  0  0  0
   33.3018    9.6345    6.1338 C   0  0  0  0  0  0  0  0  0  0  0  0
   32.1750   10.1728    6.7275 C   0  0  0  0  0  0  0  0  0  0  0  0
   31.2778    9.5414    7.6071 N   0  0  0  0  0  0  0  0  0  0  0  0
   31.3603    8.2164    8.0671 C   0  0  0  0  0  0  0  0  0  0  0  0
  1  2  1  0
  2  3  2  0
  3  4  1  0
  4  5  2  0
  4  6  1  0
  6  7  1  0
  7  8  1  0
  8  9  1  0
  8 10  1  0
 10 11  1  0
 11 12  1  0
  3 13  1  0
 13 14  2  0
 14 15  1  0
 15 16  2  0
 16 17  1  0
 17 18  2  0
 18 19  1  0
 19 20  1  0
 19  2  1  0
 12  8  1  0
 18 13  1  0
A    1
 C1 
A    2
 C2 
A    3
 C3 
A    4
 C4 
A    5
 O1 
A    6
 N1 
A    7
 C5 
A    8
 C6 
A    9
 F1 
A   10
 C7 
A   11
 C8 
A   12
 C9 
A   13
 C10
A   14
 C11
A   15
 C12
A   16
 C13
A   17
 C14
A   18
 C15
A   19
 N2 
A   20
 C16
M  END
>  <ref_pdb>  (26) 
Ax0310a

>  <ref_mols>  (26) 
Ax0416a,Ax0451a,Ax0739a

>  <original SMILES>  (26) 
Cc1c(C(=O)NCC2(F)CCC2)c2ccccc2n1C

>  <rationale>  (26) 
info halogenbond:P107; hbond:S125+S87; hydroph_interaction:P107+Y89+L22; 

>  <intxn_cluster_10>  (26) 
9

>  <intxn_cluster_rank_10>  (26) 
2

>  <N_interactions>  (26) 
7

>  <∆∆G>  (26) 
-8.652543

>  <$/mg>  (26) 
0.0

>  <comRMSD>  (26) 
0.896605

>  <N_rotatable_bonds>  (26) 
5

>  <deep_P1_sidechain>  (26) 
False

>  <farthest_distance_to_substrate>  (26) 
2.30584

>  <hbond:SER:7>  (26) 
hbond:SER:7    0
hbond:SER:7    0
Name: 24, dtype: object

>  <hydroph_interaction:ASN:19>  (26) 
hydroph_interaction:ASN:19    0
hydroph_interaction:ASN:19    0
Name: 24, dtype: object

>  <halogenbond:ASN:19>  (26) 
halogenbond:ASN:19    0
halogenbond:ASN:19    0
Name: 24, dtype: object

>  <hbond:ARG:20>  (26) 
hbond:ARG:20    0
hbond:ARG:20    0
Name: 24, dtype: object

>  <hydroph_interaction:ARG:20>  (26) 
hydroph_interaction:ARG:20    0
hydroph_interaction:ARG:20    0
Name: 24, dtype: object

>  <hbond:HIS:21>  (26) 
hbond:HIS:21    0
hbond:HIS:21    0
Name: 24, dtype: object

>  <hydroph_interaction:HIS:21>  (26) 
hydroph_interaction:HIS:21    0
hydroph_interaction:HIS:21    0
Name: 24, dtype: object

>  <saltbridge:HIS:21>  (26) 
saltbridge:HIS:21    0
saltbridge:HIS:21    0
Name: 24, dtype: object

>  <pistack:HIS:21>  (26) 
pistack:HIS:21    0
pistack:HIS:21    0
Name: 24, dtype: object

>  <pication:HIS:21>  (26) 
pication:HIS:21    0
pication:HIS:21    0
Name: 24, dtype: object

>  <hydroph_interaction:LEU:22>  (26) 
hydroph_interaction:LEU:22    2
hydroph_interaction:LEU:22    2
Name: 24, dtype: object

>  <hbond:SER:36>  (26) 
hbond:SER:36    0
hbond:SER:36    0
Name: 24, dtype: object

>  <hbond:ASP:39>  (26) 
hbond:ASP:39    0
hbond:ASP:39    0
Name: 24, dtype: object

>  <saltbridge:ASP:39>  (26) 
saltbridge:ASP:39    0
saltbridge:ASP:39    0
Name: 24, dtype: object

>  <hydroph_interaction:ASP:39>  (26) 
hydroph_interaction:ASP:39    0
hydroph_interaction:ASP:39    0
Name: 24, dtype: object

>  <halogenbond:ASP:39>  (26) 
halogenbond:ASP:39    0
halogenbond:ASP:39    0
Name: 24, dtype: object

>  <hydroph_interaction:ILE:82>  (26) 
hydroph_interaction:ILE:82    0
hydroph_interaction:ILE:82    0
Name: 24, dtype: object

>  <hydroph_interaction:PHE:83>  (26) 
hydroph_interaction:PHE:83    0
hydroph_interaction:PHE:83    0
Name: 24, dtype: object

>  <hbond:PHE:83>  (26) 
hbond:PHE:83    0
hbond:PHE:83    0
Name: 24, dtype: object

>  <halogenbond:PHE:83>  (26) 
halogenbond:PHE:83    0
halogenbond:PHE:83    0
Name: 24, dtype: object

>  <hydroph_interaction:VAL:84>  (26) 
hydroph_interaction:VAL:84    0
hydroph_interaction:VAL:84    0
Name: 24, dtype: object

>  <hydroph_interaction:GLU:85>  (26) 
hydroph_interaction:GLU:85    0
hydroph_interaction:GLU:85    0
Name: 24, dtype: object

>  <hbond:GLU:85>  (26) 
hbond:GLU:85    0
hbond:GLU:85    0
Name: 24, dtype: object

>  <halogenbond:GLU:85>  (26) 
halogenbond:GLU:85    0
halogenbond:GLU:85    0
Name: 24, dtype: object

>  <halogenbond:ALA:86>  (26) 
halogenbond:ALA:86    0
halogenbond:ALA:86    0
Name: 24, dtype: object

>  <hbond:SER:87>  (26) 
hbond:SER:87    1
hbond:SER:87    1
Name: 24, dtype: object

>  <halogenbond:SER:87>  (26) 
halogenbond:SER:87    0
halogenbond:SER:87    0
Name: 24, dtype: object

>  <hbond:GLU:88>  (26) 
hbond:GLU:88    0
hbond:GLU:88    0
Name: 24, dtype: object

>  <halogenbond:GLU:88>  (26) 
halogenbond:GLU:88    0
halogenbond:GLU:88    0
Name: 24, dtype: object

>  <hydroph_interaction:TYR:89>  (26) 
hydroph_interaction:TYR:89    1
hydroph_interaction:TYR:89    1
Name: 24, dtype: object

>  <pistack:TYR:89>  (26) 
pistack:TYR:89    0
pistack:TYR:89    0
Name: 24, dtype: object

>  <hbond:TYR:89>  (26) 
hbond:TYR:89    0
hbond:TYR:89    0
Name: 24, dtype: object

>  <hbond:TYR:90>  (26) 
hbond:TYR:90    0
hbond:TYR:90    0
Name: 24, dtype: object

>  <hydroph_interaction:TYR:90>  (26) 
hydroph_interaction:TYR:90    0
hydroph_interaction:TYR:90    0
Name: 24, dtype: object

>  <pistack:TYR:90>  (26) 
pistack:TYR:90    0
pistack:TYR:90    0
Name: 24, dtype: object

>  <hbond:ARG:93>  (26) 
hbond:ARG:93    0
hbond:ARG:93    0
Name: 24, dtype: object

>  <saltbridge:ARG:93>  (26) 
saltbridge:ARG:93    0
saltbridge:ARG:93    0
Name: 24, dtype: object

>  <hydroph_interaction:ARG:93>  (26) 
hydroph_interaction:ARG:93    0
hydroph_interaction:ARG:93    0
Name: 24, dtype: object

>  <halogenbond:GLN:95>  (26) 
halogenbond:GLN:95    0
halogenbond:GLN:95    0
Name: 24, dtype: object

>  <hbond:GLN:95>  (26) 
hbond:GLN:95    0
hbond:GLN:95    0
Name: 24, dtype: object

>  <hydroph_interaction:GLN:95>  (26) 
hydroph_interaction:GLN:95    0
hydroph_interaction:GLN:95    0
Name: 24, dtype: object

>  <hydroph_interaction:LEU:98>  (26) 
hydroph_interaction:LEU:98    0
hydroph_interaction:LEU:98    0
Name: 24, dtype: object

>  <hydroph_interaction:LEU:100>  (26) 
hydroph_interaction:LEU:100    0
hydroph_interaction:LEU:100    0
Name: 24, dtype: object

>  <hbond:SER:105>  (26) 
hbond:SER:105    0
hbond:SER:105    0
Name: 24, dtype: object

>  <halogenbond:SER:105>  (26) 
halogenbond:SER:105    0
halogenbond:SER:105    0
Name: 24, dtype: object

>  <hydroph_interaction:PRO:107>  (26) 
hydroph_interaction:PRO:107    1
hydroph_interaction:PRO:107    1
Name: 24, dtype: object

>  <hbond:PRO:107>  (26) 
hbond:PRO:107    0
hbond:PRO:107    0
Name: 24, dtype: object

>  <halogenbond:PRO:107>  (26) 
halogenbond:PRO:107    1
halogenbond:PRO:107    1
Name: 24, dtype: object

>  <hbond:ASP:109>  (26) 
hbond:ASP:109    0
hbond:ASP:109    0
Name: 24, dtype: object

>  <hbond:CYS:110>  (26) 
hbond:CYS:110    0
hbond:CYS:110    0
Name: 24, dtype: object

>  <halogenbond:CYS:110>  (26) 
halogenbond:CYS:110    0
halogenbond:CYS:110    0
Name: 24, dtype: object

>  <hydroph_interaction:VAL:124>  (26) 
hydroph_interaction:VAL:124    0
hydroph_interaction:VAL:124    0
Name: 24, dtype: object

>  <hbond:SER:125>  (26) 
hbond:SER:125    1
hbond:SER:125    1
Name: 24, dtype: object

>  <halogenbond:SER:125>  (26) 
halogenbond:SER:125    0
halogenbond:SER:125    0
Name: 24, dtype: object

>  <hydroph_interaction:THR:126>  (26) 
hydroph_interaction:THR:126    0
hydroph_interaction:THR:126    0
Name: 24, dtype: object

>  <hbond:THR:126>  (26) 
hbond:THR:126    0
hbond:THR:126    0
Name: 24, dtype: object

>  <halogenbond:THR:126>  (26) 
halogenbond:THR:126    0
halogenbond:THR:126    0
Name: 24, dtype: object

>  <hbond:GLY:127>  (26) 
hbond:GLY:127    0
hbond:GLY:127    0
Name: 24, dtype: object

>  <halogenbond:GLY:127>  (26) 
halogenbond:GLY:127    0
halogenbond:GLY:127    0
Name: 24, dtype: object

>  <hbond:GLY:128>  (26) 
hbond:GLY:128    0
hbond:GLY:128    0
Name: 24, dtype: object

>  <hbond:ASN:129>  (26) 
hbond:ASN:129    0
hbond:ASN:129    0
Name: 24, dtype: object

>  <hydroph_interaction:ASN:129>  (26) 
hydroph_interaction:ASN:129    0
hydroph_interaction:ASN:129    0
Name: 24, dtype: object

>  <halogenbond:ASN:129>  (26) 
halogenbond:ASN:129    0
halogenbond:ASN:129    0
Name: 24, dtype: object

>  <hydroph_interaction:LEU:131>  (26) 
hydroph_interaction:LEU:131    0
hydroph_interaction:LEU:131    0
Name: 24, dtype: object

>  <hbond:LEU:131>  (26) 
hbond:LEU:131    0
hbond:LEU:131    0
Name: 24, dtype: object

>  <halogenbond:LEU:131>  (26) 
halogenbond:LEU:131    0
halogenbond:LEU:131    0
Name: 24, dtype: object

>  <hbond:VAL:132>  (26) 
hbond:VAL:132    0
hbond:VAL:132    0
Name: 24, dtype: object

$$$$
Z4559746416
     RDKit          3D

 23 25  0  0  0  0  0  0  0  0999 V2000
   26.6714   20.7480   12.0730 C   0  0  0  0  0  0  0  0  0  0  0  0
   26.5694   19.4380   11.5545 O   0  0  0  0  0  0  0  0  0  0  0  0
   27.0492   18.4445   12.3622 C   0  0  0  0  0  0  0  0  0  0  0  0
   27.0816   18.4724   13.5664 O   0  0  0  0  0  0  0  0  0  0  0  0
   27.4661   17.3000   11.5937 C   0  0  0  0  0  0  0  0  0  0  0  0
   26.6941   17.1848   10.4103 C   0  0  0  0  0  0  0  0  0  0  0  0
   27.0890   15.8369    9.4801 S   0  0  0  0  0  0  0  0  0  0  0  0
   28.2671   15.3838   10.5511 C   0  0  0  0  0  0  0  0  0  0  0  0
   28.9639   14.1728   10.2061 C   0  0  0  0  0  0  0  0  0  0  0  0
   29.3623   14.0351    8.8034 N   0  0  0  0  0  0  0  0  0  0  0  0
   28.2987   13.5136    7.9888 C   0  0  0  0  0  0  0  0  0  0  0  0
   28.9624   12.8665    6.8552 C   0  0  1  0  0  0  0  0  0  0  0  0
   28.9952   13.6373    5.9176 O   0  0  0  0  0  0  0  0  0  0  0  0
   30.3986   12.5625    7.2393 C   0  0  2  0  0  0  0  0  0  0  0  0
   31.0303   11.2053    7.1913 C   0  0  0  0  0  0  0  0  0  0  0  0
   30.5231   10.2110    8.1650 C   0  0  0  0  0  0  0  0  0  0  0  0
   31.0584    8.9576    8.1705 C   0  0  0  0  0  0  0  0  0  0  0  0
   32.0619    8.6720    7.2679 C   0  0  0  0  0  0  0  0  0  0  0  0
   32.5494    9.5965    6.3559 C   0  0  0  0  0  0  0  0  0  0  0  0
   32.0394   10.8564    6.3154 C   0  0  0  0  0  0  0  0  0  0  0  0
   30.4879   13.1012    8.6086 C   0  0  0  0  0  0  0  0  0  0  0  0
   28.4026   16.2399   11.6143 C   0  0  0  0  0  0  0  0  0  0  0  0
   29.5666   16.0122   12.7653 Cl  0  0  0  0  0  0  0  0  0  0  0  0
  1  2  1  0
  2  3  1  0
  3  4  2  0
  3  5  1  0
  5  6  2  0
  6  7  1  0
  7  8  1  0
  8  9  1  0
  9 10  1  0
 10 11  1  0
 11 12  1  0
 12 13  1  6
 12 14  1  0
 14 15  1  1
 15 16  2  0
 16 17  1  0
 17 18  2  0
 18 19  1  0
 19 20  2  0
 14 21  1  0
  8 22  2  0
 22 23  1  0
 22  5  1  0
 21 10  1  0
 20 15  1  0
A    1
 C1 
A    2
 O1 
A    3
 C2 
A    4
 O2 
A    5
 C3 
A    6
 C4 
A    7
 S1 
A    8
 C5 
A    9
 C6 
A   10
 N1 
A   11
 C7 
A   12
 C8 
A   13
 O3 
A   14
 C9 
A   15
 C10
A   16
 C11
A   17
 C12
A   18
 C13
A   19
 C14
A   20
 C15
A   21
 C16
A   22
 C17
A   23
CL1 
M  END
>  <ref_pdb>  (27) 
Ax0310a

>  <ref_mols>  (27) 
Ax0554a,Ax0310a

>  <original SMILES>  (27) 
COC(=O)c1csc(CN2C[C@@H](O)[C@H](c3ccccc3)C2)c1Cl

>  <rationale>  (27) 
info halogenbond:Q95; hbond:E88+S87+D39; hydroph_interaction:P107+Y90+D39; saltbridge:R93; 

>  <intxn_cluster_10>  (27) 
4

>  <intxn_cluster_rank_10>  (27) 
3

>  <N_interactions>  (27) 
8

>  <∆∆G>  (27) 
-1.217938

>  <$/mg>  (27) 
0.0

>  <comRMSD>  (27) 
0.983377

>  <N_rotatable_bonds>  (27) 
6

>  <deep_P1_sidechain>  (27) 
False

>  <farthest_distance_to_substrate>  (27) 
3.750195

>  <hbond:SER:7>  (27) 
hbond:SER:7    0
hbond:SER:7    0
Name: 25, dtype: object

>  <hydroph_interaction:ASN:19>  (27) 
hydroph_interaction:ASN:19    0
hydroph_interaction:ASN:19    0
Name: 25, dtype: object

>  <halogenbond:ASN:19>  (27) 
halogenbond:ASN:19    0
halogenbond:ASN:19    0
Name: 25, dtype: object

>  <hbond:ARG:20>  (27) 
hbond:ARG:20    0
hbond:ARG:20    0
Name: 25, dtype: object

>  <hydroph_interaction:ARG:20>  (27) 
hydroph_interaction:ARG:20    0
hydroph_interaction:ARG:20    0
Name: 25, dtype: object

>  <hbond:HIS:21>  (27) 
hbond:HIS:21    0
hbond:HIS:21    0
Name: 25, dtype: object

>  <hydroph_interaction:HIS:21>  (27) 
hydroph_interaction:HIS:21    0
hydroph_interaction:HIS:21    0
Name: 25, dtype: object

>  <saltbridge:HIS:21>  (27) 
saltbridge:HIS:21    0
saltbridge:HIS:21    0
Name: 25, dtype: object

>  <pistack:HIS:21>  (27) 
pistack:HIS:21    0
pistack:HIS:21    0
Name: 25, dtype: object

>  <pication:HIS:21>  (27) 
pication:HIS:21    0
pication:HIS:21    0
Name: 25, dtype: object

>  <hydroph_interaction:LEU:22>  (27) 
hydroph_interaction:LEU:22    0
hydroph_interaction:LEU:22    0
Name: 25, dtype: object

>  <hbond:SER:36>  (27) 
hbond:SER:36    0
hbond:SER:36    0
Name: 25, dtype: object

>  <hbond:ASP:39>  (27) 
hbond:ASP:39    1
hbond:ASP:39    1
Name: 25, dtype: object

>  <saltbridge:ASP:39>  (27) 
saltbridge:ASP:39    0
saltbridge:ASP:39    0
Name: 25, dtype: object

>  <hydroph_interaction:ASP:39>  (27) 
hydroph_interaction:ASP:39    1
hydroph_interaction:ASP:39    1
Name: 25, dtype: object

>  <halogenbond:ASP:39>  (27) 
halogenbond:ASP:39    0
halogenbond:ASP:39    0
Name: 25, dtype: object

>  <hydroph_interaction:ILE:82>  (27) 
hydroph_interaction:ILE:82    0
hydroph_interaction:ILE:82    0
Name: 25, dtype: object

>  <hydroph_interaction:PHE:83>  (27) 
hydroph_interaction:PHE:83    0
hydroph_interaction:PHE:83    0
Name: 25, dtype: object

>  <hbond:PHE:83>  (27) 
hbond:PHE:83    0
hbond:PHE:83    0
Name: 25, dtype: object

>  <halogenbond:PHE:83>  (27) 
halogenbond:PHE:83    0
halogenbond:PHE:83    0
Name: 25, dtype: object

>  <hydroph_interaction:VAL:84>  (27) 
hydroph_interaction:VAL:84    0
hydroph_interaction:VAL:84    0
Name: 25, dtype: object

>  <hydroph_interaction:GLU:85>  (27) 
hydroph_interaction:GLU:85    0
hydroph_interaction:GLU:85    0
Name: 25, dtype: object

>  <hbond:GLU:85>  (27) 
hbond:GLU:85    0
hbond:GLU:85    0
Name: 25, dtype: object

>  <halogenbond:GLU:85>  (27) 
halogenbond:GLU:85    0
halogenbond:GLU:85    0
Name: 25, dtype: object

>  <halogenbond:ALA:86>  (27) 
halogenbond:ALA:86    0
halogenbond:ALA:86    0
Name: 25, dtype: object

>  <hbond:SER:87>  (27) 
hbond:SER:87    1
hbond:SER:87    1
Name: 25, dtype: object

>  <halogenbond:SER:87>  (27) 
halogenbond:SER:87    0
halogenbond:SER:87    0
Name: 25, dtype: object

>  <hbond:GLU:88>  (27) 
hbond:GLU:88    1
hbond:GLU:88    1
Name: 25, dtype: object

>  <halogenbond:GLU:88>  (27) 
halogenbond:GLU:88    0
halogenbond:GLU:88    0
Name: 25, dtype: object

>  <hydroph_interaction:TYR:89>  (27) 
hydroph_interaction:TYR:89    0
hydroph_interaction:TYR:89    0
Name: 25, dtype: object

>  <pistack:TYR:89>  (27) 
pistack:TYR:89    0
pistack:TYR:89    0
Name: 25, dtype: object

>  <hbond:TYR:89>  (27) 
hbond:TYR:89    0
hbond:TYR:89    0
Name: 25, dtype: object

>  <hbond:TYR:90>  (27) 
hbond:TYR:90    0
hbond:TYR:90    0
Name: 25, dtype: object

>  <hydroph_interaction:TYR:90>  (27) 
hydroph_interaction:TYR:90    1
hydroph_interaction:TYR:90    1
Name: 25, dtype: object

>  <pistack:TYR:90>  (27) 
pistack:TYR:90    0
pistack:TYR:90    0
Name: 25, dtype: object

>  <hbond:ARG:93>  (27) 
hbond:ARG:93    0
hbond:ARG:93    0
Name: 25, dtype: object

>  <saltbridge:ARG:93>  (27) 
saltbridge:ARG:93    1
saltbridge:ARG:93    1
Name: 25, dtype: object

>  <hydroph_interaction:ARG:93>  (27) 
hydroph_interaction:ARG:93    0
hydroph_interaction:ARG:93    0
Name: 25, dtype: object

>  <halogenbond:GLN:95>  (27) 
halogenbond:GLN:95    1
halogenbond:GLN:95    1
Name: 25, dtype: object

>  <hbond:GLN:95>  (27) 
hbond:GLN:95    0
hbond:GLN:95    0
Name: 25, dtype: object

>  <hydroph_interaction:GLN:95>  (27) 
hydroph_interaction:GLN:95    0
hydroph_interaction:GLN:95    0
Name: 25, dtype: object

>  <hydroph_interaction:LEU:98>  (27) 
hydroph_interaction:LEU:98    0
hydroph_interaction:LEU:98    0
Name: 25, dtype: object

>  <hydroph_interaction:LEU:100>  (27) 
hydroph_interaction:LEU:100    0
hydroph_interaction:LEU:100    0
Name: 25, dtype: object

>  <hbond:SER:105>  (27) 
hbond:SER:105    0
hbond:SER:105    0
Name: 25, dtype: object

>  <halogenbond:SER:105>  (27) 
halogenbond:SER:105    0
halogenbond:SER:105    0
Name: 25, dtype: object

>  <hydroph_interaction:PRO:107>  (27) 
hydroph_interaction:PRO:107    1
hydroph_interaction:PRO:107    1
Name: 25, dtype: object

>  <hbond:PRO:107>  (27) 
hbond:PRO:107    0
hbond:PRO:107    0
Name: 25, dtype: object

>  <halogenbond:PRO:107>  (27) 
halogenbond:PRO:107    0
halogenbond:PRO:107    0
Name: 25, dtype: object

>  <hbond:ASP:109>  (27) 
hbond:ASP:109    0
hbond:ASP:109    0
Name: 25, dtype: object

>  <hbond:CYS:110>  (27) 
hbond:CYS:110    0
hbond:CYS:110    0
Name: 25, dtype: object

>  <halogenbond:CYS:110>  (27) 
halogenbond:CYS:110    0
halogenbond:CYS:110    0
Name: 25, dtype: object

>  <hydroph_interaction:VAL:124>  (27) 
hydroph_interaction:VAL:124    0
hydroph_interaction:VAL:124    0
Name: 25, dtype: object

>  <hbond:SER:125>  (27) 
hbond:SER:125    0
hbond:SER:125    0
Name: 25, dtype: object

>  <halogenbond:SER:125>  (27) 
halogenbond:SER:125    0
halogenbond:SER:125    0
Name: 25, dtype: object

>  <hydroph_interaction:THR:126>  (27) 
hydroph_interaction:THR:126    0
hydroph_interaction:THR:126    0
Name: 25, dtype: object

>  <hbond:THR:126>  (27) 
hbond:THR:126    0
hbond:THR:126    0
Name: 25, dtype: object

>  <halogenbond:THR:126>  (27) 
halogenbond:THR:126    0
halogenbond:THR:126    0
Name: 25, dtype: object

>  <hbond:GLY:127>  (27) 
hbond:GLY:127    0
hbond:GLY:127    0
Name: 25, dtype: object

>  <halogenbond:GLY:127>  (27) 
halogenbond:GLY:127    0
halogenbond:GLY:127    0
Name: 25, dtype: object

>  <hbond:GLY:128>  (27) 
hbond:GLY:128    0
hbond:GLY:128    0
Name: 25, dtype: object

>  <hbond:ASN:129>  (27) 
hbond:ASN:129    0
hbond:ASN:129    0
Name: 25, dtype: object

>  <hydroph_interaction:ASN:129>  (27) 
hydroph_interaction:ASN:129    0
hydroph_interaction:ASN:129    0
Name: 25, dtype: object

>  <halogenbond:ASN:129>  (27) 
halogenbond:ASN:129    0
halogenbond:ASN:129    0
Name: 25, dtype: object

>  <hydroph_interaction:LEU:131>  (27) 
hydroph_interaction:LEU:131    0
hydroph_interaction:LEU:131    0
Name: 25, dtype: object

>  <hbond:LEU:131>  (27) 
hbond:LEU:131    0
hbond:LEU:131    0
Name: 25, dtype: object

>  <halogenbond:LEU:131>  (27) 
halogenbond:LEU:131    0
halogenbond:LEU:131    0
Name: 25, dtype: object

>  <hbond:VAL:132>  (27) 
hbond:VAL:132    0
hbond:VAL:132    0
Name: 25, dtype: object

$$$$
PV_002154173738
     RDKit          3D

 13 13  0  0  0  0  0  0  0  0999 V2000
   33.2724   13.5774    5.6733 C   0  0  0  0  0  0  0  0  0  0  0  0
   32.9731   12.1497    6.0381 C   0  0  0  0  0  0  0  0  0  0  0  0
   33.6796   11.1427    5.4725 C   0  0  0  0  0  0  0  0  0  0  0  0
   33.4408    9.8328    5.7782 C   0  0  0  0  0  0  0  0  0  0  0  0
   32.4059    9.4961    6.7310 C   0  0  0  0  0  0  0  0  0  0  0  0
   32.1226    8.2625    7.0851 F   0  0  0  0  0  0  0  0  0  0  0  0
   31.7072   10.4707    7.2887 C   0  0  0  0  0  0  0  0  0  0  0  0
   30.4316    9.8265    8.4744 Br  0  0  0  0  0  0  0  0  0  0  0  0
   31.9363   11.8164    6.9923 C   0  0  0  0  0  0  0  0  0  0  0  0
   31.1988   12.7991    7.5945 N   0  0  0  0  0  0  0  0  0  0  0  0
   29.8753   13.1358    7.4643 C   0  0  0  0  0  0  0  0  0  0  0  0
   29.0842   13.3758    8.4595 N   0  0  0  0  0  0  0  0  0  0  0  0
   29.3725   13.2479    6.3613 O   0  0  0  0  0  0  0  0  0  0  0  0
  1  2  1  0
  2  3  2  0
  3  4  1  0
  4  5  2  0
  5  6  1  0
  5  7  1  0
  7  8  1  0
  7  9  2  0
  9 10  1  0
 10 11  1  0
 11 12  1  0
 11 13  2  0
  9  2  1  0
A    1
 C1 
A    2
 C2 
A    3
 C3 
A    4
 C4 
A    5
 C5 
A    6
 F1 
A    7
 C6 
A    8
BR1 
A    9
 C7 
A   10
 N1 
A   11
 C8 
A   12
 N2 
A   13
 O1 
M  END
>  <ref_pdb>  (28) 
Ax0310a

>  <ref_mols>  (28) 
Ax0554a,Ax0351a

>  <original SMILES>  (28) 
Cc1ccc(F)c(Br)c1NC(N)=O

>  <rationale>  (28) 
info halogenbond:S105+C110; hbond:H21; 

>  <intxn_cluster_10>  (28) 
4

>  <intxn_cluster_rank_10>  (28) 
5

>  <N_interactions>  (28) 
3

>  <∆∆G>  (28) 
-3.695541

>  <$/mg>  (28) 
0.0

>  <comRMSD>  (28) 
0.658652

>  <N_rotatable_bonds>  (28) 
2

>  <deep_P1_sidechain>  (28) 
True

>  <farthest_distance_to_substrate>  (28) 
2.542907

>  <hbond:SER:7>  (28) 
hbond:SER:7    0
hbond:SER:7    0
Name: 26, dtype: object

>  <hydroph_interaction:ASN:19>  (28) 
hydroph_interaction:ASN:19    0
hydroph_interaction:ASN:19    0
Name: 26, dtype: object

>  <halogenbond:ASN:19>  (28) 
halogenbond:ASN:19    0
halogenbond:ASN:19    0
Name: 26, dtype: object

>  <hbond:ARG:20>  (28) 
hbond:ARG:20    0
hbond:ARG:20    0
Name: 26, dtype: object

>  <hydroph_interaction:ARG:20>  (28) 
hydroph_interaction:ARG:20    0
hydroph_interaction:ARG:20    0
Name: 26, dtype: object

>  <hbond:HIS:21>  (28) 
hbond:HIS:21    1
hbond:HIS:21    1
Name: 26, dtype: object

>  <hydroph_interaction:HIS:21>  (28) 
hydroph_interaction:HIS:21    0
hydroph_interaction:HIS:21    0
Name: 26, dtype: object

>  <saltbridge:HIS:21>  (28) 
saltbridge:HIS:21    0
saltbridge:HIS:21    0
Name: 26, dtype: object

>  <pistack:HIS:21>  (28) 
pistack:HIS:21    0
pistack:HIS:21    0
Name: 26, dtype: object

>  <pication:HIS:21>  (28) 
pication:HIS:21    0
pication:HIS:21    0
Name: 26, dtype: object

>  <hydroph_interaction:LEU:22>  (28) 
hydroph_interaction:LEU:22    0
hydroph_interaction:LEU:22    0
Name: 26, dtype: object

>  <hbond:SER:36>  (28) 
hbond:SER:36    0
hbond:SER:36    0
Name: 26, dtype: object

>  <hbond:ASP:39>  (28) 
hbond:ASP:39    0
hbond:ASP:39    0
Name: 26, dtype: object

>  <saltbridge:ASP:39>  (28) 
saltbridge:ASP:39    0
saltbridge:ASP:39    0
Name: 26, dtype: object

>  <hydroph_interaction:ASP:39>  (28) 
hydroph_interaction:ASP:39    0
hydroph_interaction:ASP:39    0
Name: 26, dtype: object

>  <halogenbond:ASP:39>  (28) 
halogenbond:ASP:39    0
halogenbond:ASP:39    0
Name: 26, dtype: object

>  <hydroph_interaction:ILE:82>  (28) 
hydroph_interaction:ILE:82    0
hydroph_interaction:ILE:82    0
Name: 26, dtype: object

>  <hydroph_interaction:PHE:83>  (28) 
hydroph_interaction:PHE:83    0
hydroph_interaction:PHE:83    0
Name: 26, dtype: object

>  <hbond:PHE:83>  (28) 
hbond:PHE:83    0
hbond:PHE:83    0
Name: 26, dtype: object

>  <halogenbond:PHE:83>  (28) 
halogenbond:PHE:83    0
halogenbond:PHE:83    0
Name: 26, dtype: object

>  <hydroph_interaction:VAL:84>  (28) 
hydroph_interaction:VAL:84    0
hydroph_interaction:VAL:84    0
Name: 26, dtype: object

>  <hydroph_interaction:GLU:85>  (28) 
hydroph_interaction:GLU:85    0
hydroph_interaction:GLU:85    0
Name: 26, dtype: object

>  <hbond:GLU:85>  (28) 
hbond:GLU:85    0
hbond:GLU:85    0
Name: 26, dtype: object

>  <halogenbond:GLU:85>  (28) 
halogenbond:GLU:85    0
halogenbond:GLU:85    0
Name: 26, dtype: object

>  <halogenbond:ALA:86>  (28) 
halogenbond:ALA:86    0
halogenbond:ALA:86    0
Name: 26, dtype: object

>  <hbond:SER:87>  (28) 
hbond:SER:87    0
hbond:SER:87    0
Name: 26, dtype: object

>  <halogenbond:SER:87>  (28) 
halogenbond:SER:87    0
halogenbond:SER:87    0
Name: 26, dtype: object

>  <hbond:GLU:88>  (28) 
hbond:GLU:88    0
hbond:GLU:88    0
Name: 26, dtype: object

>  <halogenbond:GLU:88>  (28) 
halogenbond:GLU:88    0
halogenbond:GLU:88    0
Name: 26, dtype: object

>  <hydroph_interaction:TYR:89>  (28) 
hydroph_interaction:TYR:89    0
hydroph_interaction:TYR:89    0
Name: 26, dtype: object

>  <pistack:TYR:89>  (28) 
pistack:TYR:89    0
pistack:TYR:89    0
Name: 26, dtype: object

>  <hbond:TYR:89>  (28) 
hbond:TYR:89    0
hbond:TYR:89    0
Name: 26, dtype: object

>  <hbond:TYR:90>  (28) 
hbond:TYR:90    0
hbond:TYR:90    0
Name: 26, dtype: object

>  <hydroph_interaction:TYR:90>  (28) 
hydroph_interaction:TYR:90    0
hydroph_interaction:TYR:90    0
Name: 26, dtype: object

>  <pistack:TYR:90>  (28) 
pistack:TYR:90    0
pistack:TYR:90    0
Name: 26, dtype: object

>  <hbond:ARG:93>  (28) 
hbond:ARG:93    0
hbond:ARG:93    0
Name: 26, dtype: object

>  <saltbridge:ARG:93>  (28) 
saltbridge:ARG:93    0
saltbridge:ARG:93    0
Name: 26, dtype: object

>  <hydroph_interaction:ARG:93>  (28) 
hydroph_interaction:ARG:93    0
hydroph_interaction:ARG:93    0
Name: 26, dtype: object

>  <halogenbond:GLN:95>  (28) 
halogenbond:GLN:95    0
halogenbond:GLN:95    0
Name: 26, dtype: object

>  <hbond:GLN:95>  (28) 
hbond:GLN:95    0
hbond:GLN:95    0
Name: 26, dtype: object

>  <hydroph_interaction:GLN:95>  (28) 
hydroph_interaction:GLN:95    0
hydroph_interaction:GLN:95    0
Name: 26, dtype: object

>  <hydroph_interaction:LEU:98>  (28) 
hydroph_interaction:LEU:98    0
hydroph_interaction:LEU:98    0
Name: 26, dtype: object

>  <hydroph_interaction:LEU:100>  (28) 
hydroph_interaction:LEU:100    0
hydroph_interaction:LEU:100    0
Name: 26, dtype: object

>  <hbond:SER:105>  (28) 
hbond:SER:105    0
hbond:SER:105    0
Name: 26, dtype: object

>  <halogenbond:SER:105>  (28) 
halogenbond:SER:105    1
halogenbond:SER:105    1
Name: 26, dtype: object

>  <hydroph_interaction:PRO:107>  (28) 
hydroph_interaction:PRO:107    0
hydroph_interaction:PRO:107    0
Name: 26, dtype: object

>  <hbond:PRO:107>  (28) 
hbond:PRO:107    0
hbond:PRO:107    0
Name: 26, dtype: object

>  <halogenbond:PRO:107>  (28) 
halogenbond:PRO:107    0
halogenbond:PRO:107    0
Name: 26, dtype: object

>  <hbond:ASP:109>  (28) 
hbond:ASP:109    0
hbond:ASP:109    0
Name: 26, dtype: object

>  <hbond:CYS:110>  (28) 
hbond:CYS:110    0
hbond:CYS:110    0
Name: 26, dtype: object

>  <halogenbond:CYS:110>  (28) 
halogenbond:CYS:110    1
halogenbond:CYS:110    1
Name: 26, dtype: object

>  <hydroph_interaction:VAL:124>  (28) 
hydroph_interaction:VAL:124    0
hydroph_interaction:VAL:124    0
Name: 26, dtype: object

>  <hbond:SER:125>  (28) 
hbond:SER:125    0
hbond:SER:125    0
Name: 26, dtype: object

>  <halogenbond:SER:125>  (28) 
halogenbond:SER:125    0
halogenbond:SER:125    0
Name: 26, dtype: object

>  <hydroph_interaction:THR:126>  (28) 
hydroph_interaction:THR:126    0
hydroph_interaction:THR:126    0
Name: 26, dtype: object

>  <hbond:THR:126>  (28) 
hbond:THR:126    0
hbond:THR:126    0
Name: 26, dtype: object

>  <halogenbond:THR:126>  (28) 
halogenbond:THR:126    0
halogenbond:THR:126    0
Name: 26, dtype: object

>  <hbond:GLY:127>  (28) 
hbond:GLY:127    0
hbond:GLY:127    0
Name: 26, dtype: object

>  <halogenbond:GLY:127>  (28) 
halogenbond:GLY:127    0
halogenbond:GLY:127    0
Name: 26, dtype: object

>  <hbond:GLY:128>  (28) 
hbond:GLY:128    0
hbond:GLY:128    0
Name: 26, dtype: object

>  <hbond:ASN:129>  (28) 
hbond:ASN:129    0
hbond:ASN:129    0
Name: 26, dtype: object

>  <hydroph_interaction:ASN:129>  (28) 
hydroph_interaction:ASN:129    0
hydroph_interaction:ASN:129    0
Name: 26, dtype: object

>  <halogenbond:ASN:129>  (28) 
halogenbond:ASN:129    0
halogenbond:ASN:129    0
Name: 26, dtype: object

>  <hydroph_interaction:LEU:131>  (28) 
hydroph_interaction:LEU:131    0
hydroph_interaction:LEU:131    0
Name: 26, dtype: object

>  <hbond:LEU:131>  (28) 
hbond:LEU:131    0
hbond:LEU:131    0
Name: 26, dtype: object

>  <halogenbond:LEU:131>  (28) 
halogenbond:LEU:131    0
halogenbond:LEU:131    0
Name: 26, dtype: object

>  <hbond:VAL:132>  (28) 
hbond:VAL:132    0
hbond:VAL:132    0
Name: 26, dtype: object

$$$$
Z1738928145
     RDKit          3D

 20 21  0  0  0  0  0  0  0  0999 V2000
   30.3278    8.5032    8.9860 C   0  0  0  0  0  0  0  0  0  0  0  0
   31.0846    9.3697    8.0414 C   0  0  0  0  0  0  0  0  0  0  0  0
   31.9830    8.7555    7.1754 C   0  0  0  0  0  0  0  0  0  0  0  0
   32.7482    9.5517    6.2323 N   0  0  0  0  0  0  0  0  0  0  0  0
   32.5567   10.8790    6.2412 C   0  0  0  0  0  0  0  0  0  0  0  0
   33.3051   11.5717    5.3339 N   0  0  0  0  0  0  0  0  0  0  0  0
   31.6742   11.4638    7.1058 C   0  0  0  0  0  0  0  0  0  0  0  0
   31.4764   13.1689    7.0791 S   0  0  0  0  0  6  0  0  0  0  0  0
   30.2362   13.4208    6.3680 O   0  0  0  0  0  0  0  0  0  0  0  0
   32.7329   13.6551    6.5432 O   0  0  0  0  0  0  0  0  0  0  0  0
   31.3417   13.7261    8.6976 N   0  0  0  0  0  0  0  0  0  0  0  0
   32.4991   14.3179    9.4052 C   0  0  0  0  0  0  0  0  0  0  0  0
   32.2620   15.3263   10.4065 C   0  0  0  0  0  0  0  0  0  0  0  0
   30.9700   15.8091   10.6307 C   0  0  0  0  0  0  0  0  0  0  0  0
   30.5253   16.2382   11.8836 C   0  0  0  0  0  0  0  0  0  0  0  0
   29.4817   15.8528   12.3752 O   0  0  0  0  0  0  0  0  0  0  0  0
   31.2808   17.1174   12.5834 O   0  0  0  0  0  0  0  0  0  0  0  0
   29.9662   14.7046   10.3779 C   0  0  0  0  0  0  0  0  0  0  0  0
   30.0095   14.2131    9.0863 C   0  0  0  0  0  0  0  0  0  0  0  0
   30.9313   10.7273    8.0033 C   0  0  0  0  0  0  0  0  0  0  0  0
  1  2  1  0
  2  3  2  0
  3  4  1  0
  4  5  2  0
  5  6  1  0
  5  7  1  0
  7  8  1  0
  8  9  2  0
  8 10  2  0
  8 11  1  0
 11 12  1  0
 12 13  1  0
 13 14  1  0
 14 15  1  0
 15 16  2  0
 15 17  1  0
 14 18  1  0
 18 19  1  0
  7 20  2  0
 20  2  1  0
 19 11  1  0
A    1
 C1 
A    2
 C2 
A    3
 C3 
A    4
 N1 
A    5
 C4 
A    6
 N2 
A    7
 C5 
A    8
 S1 
A    9
 O1 
A   10
 O2 
A   11
 N3 
A   12
 C6 
A   13
 C7 
A   14
 C8 
A   15
 C9 
A   16
 O3 
A   17
 O4 
A   18
 C10
A   19
 C11
A   20
 C12
M  END
>  <ref_pdb>  (29) 
Ax0310a

>  <ref_mols>  (29) 
Ax0416a,Ax1148a

>  <original SMILES>  (29) 
Cc1cnc(N)c(S(=O)(=O)N2CCC(C(=O)O)CC2)c1

>  <rationale>  (29) 
info hbond:D39; hydroph_interaction:V124+Y90+T126+V84; saltbridge:R93; 

>  <intxn_cluster_10>  (29) 
4

>  <intxn_cluster_rank_10>  (29) 
2

>  <N_interactions>  (29) 
6

>  <∆∆G>  (29) 
-5.64959

>  <$/mg>  (29) 
163.0

>  <comRMSD>  (29) 
0.716839

>  <N_rotatable_bonds>  (29) 
5

>  <deep_P1_sidechain>  (29) 
True

>  <farthest_distance_to_substrate>  (29) 
2.444598

>  <hbond:SER:7>  (29) 
hbond:SER:7    0
hbond:SER:7    0
Name: 27, dtype: object

>  <hydroph_interaction:ASN:19>  (29) 
hydroph_interaction:ASN:19    0
hydroph_interaction:ASN:19    0
Name: 27, dtype: object

>  <halogenbond:ASN:19>  (29) 
halogenbond:ASN:19    0
halogenbond:ASN:19    0
Name: 27, dtype: object

>  <hbond:ARG:20>  (29) 
hbond:ARG:20    0
hbond:ARG:20    0
Name: 27, dtype: object

>  <hydroph_interaction:ARG:20>  (29) 
hydroph_interaction:ARG:20    0
hydroph_interaction:ARG:20    0
Name: 27, dtype: object

>  <hbond:HIS:21>  (29) 
hbond:HIS:21    0
hbond:HIS:21    0
Name: 27, dtype: object

>  <hydroph_interaction:HIS:21>  (29) 
hydroph_interaction:HIS:21    0
hydroph_interaction:HIS:21    0
Name: 27, dtype: object

>  <saltbridge:HIS:21>  (29) 
saltbridge:HIS:21    0
saltbridge:HIS:21    0
Name: 27, dtype: object

>  <pistack:HIS:21>  (29) 
pistack:HIS:21    0
pistack:HIS:21    0
Name: 27, dtype: object

>  <pication:HIS:21>  (29) 
pication:HIS:21    0
pication:HIS:21    0
Name: 27, dtype: object

>  <hydroph_interaction:LEU:22>  (29) 
hydroph_interaction:LEU:22    0
hydroph_interaction:LEU:22    0
Name: 27, dtype: object

>  <hbond:SER:36>  (29) 
hbond:SER:36    0
hbond:SER:36    0
Name: 27, dtype: object

>  <hbond:ASP:39>  (29) 
hbond:ASP:39    1
hbond:ASP:39    1
Name: 27, dtype: object

>  <saltbridge:ASP:39>  (29) 
saltbridge:ASP:39    0
saltbridge:ASP:39    0
Name: 27, dtype: object

>  <hydroph_interaction:ASP:39>  (29) 
hydroph_interaction:ASP:39    0
hydroph_interaction:ASP:39    0
Name: 27, dtype: object

>  <halogenbond:ASP:39>  (29) 
halogenbond:ASP:39    0
halogenbond:ASP:39    0
Name: 27, dtype: object

>  <hydroph_interaction:ILE:82>  (29) 
hydroph_interaction:ILE:82    0
hydroph_interaction:ILE:82    0
Name: 27, dtype: object

>  <hydroph_interaction:PHE:83>  (29) 
hydroph_interaction:PHE:83    0
hydroph_interaction:PHE:83    0
Name: 27, dtype: object

>  <hbond:PHE:83>  (29) 
hbond:PHE:83    0
hbond:PHE:83    0
Name: 27, dtype: object

>  <halogenbond:PHE:83>  (29) 
halogenbond:PHE:83    0
halogenbond:PHE:83    0
Name: 27, dtype: object

>  <hydroph_interaction:VAL:84>  (29) 
hydroph_interaction:VAL:84    1
hydroph_interaction:VAL:84    1
Name: 27, dtype: object

>  <hydroph_interaction:GLU:85>  (29) 
hydroph_interaction:GLU:85    0
hydroph_interaction:GLU:85    0
Name: 27, dtype: object

>  <hbond:GLU:85>  (29) 
hbond:GLU:85    0
hbond:GLU:85    0
Name: 27, dtype: object

>  <halogenbond:GLU:85>  (29) 
halogenbond:GLU:85    0
halogenbond:GLU:85    0
Name: 27, dtype: object

>  <halogenbond:ALA:86>  (29) 
halogenbond:ALA:86    0
halogenbond:ALA:86    0
Name: 27, dtype: object

>  <hbond:SER:87>  (29) 
hbond:SER:87    0
hbond:SER:87    0
Name: 27, dtype: object

>  <halogenbond:SER:87>  (29) 
halogenbond:SER:87    0
halogenbond:SER:87    0
Name: 27, dtype: object

>  <hbond:GLU:88>  (29) 
hbond:GLU:88    0
hbond:GLU:88    0
Name: 27, dtype: object

>  <halogenbond:GLU:88>  (29) 
halogenbond:GLU:88    0
halogenbond:GLU:88    0
Name: 27, dtype: object

>  <hydroph_interaction:TYR:89>  (29) 
hydroph_interaction:TYR:89    0
hydroph_interaction:TYR:89    0
Name: 27, dtype: object

>  <pistack:TYR:89>  (29) 
pistack:TYR:89    0
pistack:TYR:89    0
Name: 27, dtype: object

>  <hbond:TYR:89>  (29) 
hbond:TYR:89    0
hbond:TYR:89    0
Name: 27, dtype: object

>  <hbond:TYR:90>  (29) 
hbond:TYR:90    0
hbond:TYR:90    0
Name: 27, dtype: object

>  <hydroph_interaction:TYR:90>  (29) 
hydroph_interaction:TYR:90    1
hydroph_interaction:TYR:90    1
Name: 27, dtype: object

>  <pistack:TYR:90>  (29) 
pistack:TYR:90    0
pistack:TYR:90    0
Name: 27, dtype: object

>  <hbond:ARG:93>  (29) 
hbond:ARG:93    0
hbond:ARG:93    0
Name: 27, dtype: object

>  <saltbridge:ARG:93>  (29) 
saltbridge:ARG:93    1
saltbridge:ARG:93    1
Name: 27, dtype: object

>  <hydroph_interaction:ARG:93>  (29) 
hydroph_interaction:ARG:93    0
hydroph_interaction:ARG:93    0
Name: 27, dtype: object

>  <halogenbond:GLN:95>  (29) 
halogenbond:GLN:95    0
halogenbond:GLN:95    0
Name: 27, dtype: object

>  <hbond:GLN:95>  (29) 
hbond:GLN:95    0
hbond:GLN:95    0
Name: 27, dtype: object

>  <hydroph_interaction:GLN:95>  (29) 
hydroph_interaction:GLN:95    0
hydroph_interaction:GLN:95    0
Name: 27, dtype: object

>  <hydroph_interaction:LEU:98>  (29) 
hydroph_interaction:LEU:98    0
hydroph_interaction:LEU:98    0
Name: 27, dtype: object

>  <hydroph_interaction:LEU:100>  (29) 
hydroph_interaction:LEU:100    0
hydroph_interaction:LEU:100    0
Name: 27, dtype: object

>  <hbond:SER:105>  (29) 
hbond:SER:105    0
hbond:SER:105    0
Name: 27, dtype: object

>  <halogenbond:SER:105>  (29) 
halogenbond:SER:105    0
halogenbond:SER:105    0
Name: 27, dtype: object

>  <hydroph_interaction:PRO:107>  (29) 
hydroph_interaction:PRO:107    0
hydroph_interaction:PRO:107    0
Name: 27, dtype: object

>  <hbond:PRO:107>  (29) 
hbond:PRO:107    0
hbond:PRO:107    0
Name: 27, dtype: object

>  <halogenbond:PRO:107>  (29) 
halogenbond:PRO:107    0
halogenbond:PRO:107    0
Name: 27, dtype: object

>  <hbond:ASP:109>  (29) 
hbond:ASP:109    0
hbond:ASP:109    0
Name: 27, dtype: object

>  <hbond:CYS:110>  (29) 
hbond:CYS:110    0
hbond:CYS:110    0
Name: 27, dtype: object

>  <halogenbond:CYS:110>  (29) 
halogenbond:CYS:110    0
halogenbond:CYS:110    0
Name: 27, dtype: object

>  <hydroph_interaction:VAL:124>  (29) 
hydroph_interaction:VAL:124    1
hydroph_interaction:VAL:124    1
Name: 27, dtype: object

>  <hbond:SER:125>  (29) 
hbond:SER:125    0
hbond:SER:125    0
Name: 27, dtype: object

>  <halogenbond:SER:125>  (29) 
halogenbond:SER:125    0
halogenbond:SER:125    0
Name: 27, dtype: object

>  <hydroph_interaction:THR:126>  (29) 
hydroph_interaction:THR:126    1
hydroph_interaction:THR:126    1
Name: 27, dtype: object

>  <hbond:THR:126>  (29) 
hbond:THR:126    0
hbond:THR:126    0
Name: 27, dtype: object

>  <halogenbond:THR:126>  (29) 
halogenbond:THR:126    0
halogenbond:THR:126    0
Name: 27, dtype: object

>  <hbond:GLY:127>  (29) 
hbond:GLY:127    0
hbond:GLY:127    0
Name: 27, dtype: object

>  <halogenbond:GLY:127>  (29) 
halogenbond:GLY:127    0
halogenbond:GLY:127    0
Name: 27, dtype: object

>  <hbond:GLY:128>  (29) 
hbond:GLY:128    0
hbond:GLY:128    0
Name: 27, dtype: object

>  <hbond:ASN:129>  (29) 
hbond:ASN:129    0
hbond:ASN:129    0
Name: 27, dtype: object

>  <hydroph_interaction:ASN:129>  (29) 
hydroph_interaction:ASN:129    0
hydroph_interaction:ASN:129    0
Name: 27, dtype: object

>  <halogenbond:ASN:129>  (29) 
halogenbond:ASN:129    0
halogenbond:ASN:129    0
Name: 27, dtype: object

>  <hydroph_interaction:LEU:131>  (29) 
hydroph_interaction:LEU:131    0
hydroph_interaction:LEU:131    0
Name: 27, dtype: object

>  <hbond:LEU:131>  (29) 
hbond:LEU:131    0
hbond:LEU:131    0
Name: 27, dtype: object

>  <halogenbond:LEU:131>  (29) 
halogenbond:LEU:131    0
halogenbond:LEU:131    0
Name: 27, dtype: object

>  <hbond:VAL:132>  (29) 
hbond:VAL:132    0
hbond:VAL:132    0
Name: 27, dtype: object

$$$$
Z3339269550
     RDKit          3D

 23 24  0  0  0  0  0  0  0  0999 V2000
   20.6944   11.6306    5.6391 C   0  0  0  0  0  0  0  0  0  0  0  0
   21.5137   10.4728    5.4940 O   0  0  0  0  0  0  0  0  0  0  0  0
   22.5439   10.4071    6.3968 C   0  0  0  0  0  0  0  0  0  0  0  0
   22.5967    9.5625    7.2863 O   0  0  0  0  0  0  0  0  0  0  0  0
   23.5520   11.4628    6.1699 C   0  0  0  0  0  0  0  0  0  0  0  0
   24.9188   11.5322    6.4534 C   0  0  0  0  0  0  0  0  0  0  0  0
   25.4548   12.7801    6.0483 C   0  0  0  0  0  0  0  0  0  0  0  0
   26.9138   12.9382    6.3282 C   0  0  0  0  0  0  0  0  0  0  0  0
   27.0612   13.7445    7.5447 N   0  0  0  0  0  0  0  0  0  0  0  0
   28.4411   14.1856    7.8905 C   0  0  1  0  0  0  0  0  0  0  0  0
   28.6579   14.4874    9.3181 C   0  0  0  0  0  0  0  0  0  0  0  0
   29.5067   13.2260    7.3057 C   0  0  0  0  0  0  0  0  0  0  0  0
   29.7281   13.2140    6.0992 O   0  0  0  0  0  0  0  0  0  0  0  0
   30.1455   12.4276    8.1802 N   0  0  0  0  0  0  0  0  0  0  0  0
   30.8659   11.3143    7.7455 C   0  0  0  0  0  0  0  0  0  0  0  0
   30.6617    9.9234    8.2372 C   0  0  0  0  0  0  0  0  0  0  0  0
   31.4326    8.9254    7.7082 C   0  0  0  0  0  0  0  0  0  0  0  0
   32.3873    9.2022    6.7370 C   0  0  0  0  0  0  0  0  0  0  0  0
   32.5888   10.4941    6.2760 C   0  0  0  0  0  0  0  0  0  0  0  0
   31.8399   11.5415    6.7696 C   0  0  0  0  0  0  0  0  0  0  0  0
   24.5407   13.6205    5.4757 C   0  0  0  0  0  0  0  0  0  0  0  0
   24.7315   14.8883    4.9828 C   0  0  0  0  0  0  0  0  0  0  0  0
   23.0032   12.9065    5.4238 S   0  0  0  0  0  0  0  0  0  0  0  0
  1  2  1  0
  2  3  1  0
  3  4  2  0
  3  5  1  0
  5  6  2  0
  6  7  1  0
  7  8  1  0
  8  9  1  0
  9 10  1  0
 10 11  1  1
 10 12  1  0
 12 13  2  0
 12 14  1  0
 14 15  1  0
 15 16  2  0
 16 17  1  0
 17 18  2  0
 18 19  1  0
 19 20  2  0
  7 21  2  0
 21 22  1  0
 21 23  1  0
 23  5  1  0
 20 15  1  0
A    1
 C1 
A    2
 O1 
A    3
 C2 
A    4
 O2 
A    5
 C3 
A    6
 C4 
A    7
 C5 
A    8
 C6 
A    9
 N1 
A   10
 C7 
A   11
 C8 
A   12
 C9 
A   13
 O3 
A   14
 N2 
A   15
 C10
A   16
 C11
A   17
 C12
A   18
 C13
A   19
 C14
A   20
 C15
A   21
 C16
A   22
 C17
A   23
 S1 
M  END
>  <ref_pdb>  (30) 
Ax0310a

>  <ref_mols>  (30) 
Ax0554a,Ax0310a

>  <original SMILES>  (30) 
COC(=O)c1cc(CNC(C)C(=O)Nc2ccccc2)c(C)s1

>  <rationale>  (30) 
info hbond:S125+E88+S7; hydroph_interaction:P107+Y89+Y90; pication:H21; 

>  <intxn_cluster_10>  (30) 
9

>  <intxn_cluster_rank_10>  (30) 
3

>  <N_interactions>  (30) 
7

>  <∆∆G>  (30) 
-12.842248

>  <$/mg>  (30) 
0.0

>  <comRMSD>  (30) 
0.755464

>  <N_rotatable_bonds>  (30) 
9

>  <deep_P1_sidechain>  (30) 
False

>  <farthest_distance_to_substrate>  (30) 
4.578697

>  <hbond:SER:7>  (30) 
hbond:SER:7    1
hbond:SER:7    1
Name: 28, dtype: object

>  <hydroph_interaction:ASN:19>  (30) 
hydroph_interaction:ASN:19    0
hydroph_interaction:ASN:19    0
Name: 28, dtype: object

>  <halogenbond:ASN:19>  (30) 
halogenbond:ASN:19    0
halogenbond:ASN:19    0
Name: 28, dtype: object

>  <hbond:ARG:20>  (30) 
hbond:ARG:20    0
hbond:ARG:20    0
Name: 28, dtype: object

>  <hydroph_interaction:ARG:20>  (30) 
hydroph_interaction:ARG:20    0
hydroph_interaction:ARG:20    0
Name: 28, dtype: object

>  <hbond:HIS:21>  (30) 
hbond:HIS:21    0
hbond:HIS:21    0
Name: 28, dtype: object

>  <hydroph_interaction:HIS:21>  (30) 
hydroph_interaction:HIS:21    0
hydroph_interaction:HIS:21    0
Name: 28, dtype: object

>  <saltbridge:HIS:21>  (30) 
saltbridge:HIS:21    0
saltbridge:HIS:21    0
Name: 28, dtype: object

>  <pistack:HIS:21>  (30) 
pistack:HIS:21    0
pistack:HIS:21    0
Name: 28, dtype: object

>  <pication:HIS:21>  (30) 
pication:HIS:21    1
pication:HIS:21    1
Name: 28, dtype: object

>  <hydroph_interaction:LEU:22>  (30) 
hydroph_interaction:LEU:22    0
hydroph_interaction:LEU:22    0
Name: 28, dtype: object

>  <hbond:SER:36>  (30) 
hbond:SER:36    0
hbond:SER:36    0
Name: 28, dtype: object

>  <hbond:ASP:39>  (30) 
hbond:ASP:39    0
hbond:ASP:39    0
Name: 28, dtype: object

>  <saltbridge:ASP:39>  (30) 
saltbridge:ASP:39    0
saltbridge:ASP:39    0
Name: 28, dtype: object

>  <hydroph_interaction:ASP:39>  (30) 
hydroph_interaction:ASP:39    0
hydroph_interaction:ASP:39    0
Name: 28, dtype: object

>  <halogenbond:ASP:39>  (30) 
halogenbond:ASP:39    0
halogenbond:ASP:39    0
Name: 28, dtype: object

>  <hydroph_interaction:ILE:82>  (30) 
hydroph_interaction:ILE:82    0
hydroph_interaction:ILE:82    0
Name: 28, dtype: object

>  <hydroph_interaction:PHE:83>  (30) 
hydroph_interaction:PHE:83    0
hydroph_interaction:PHE:83    0
Name: 28, dtype: object

>  <hbond:PHE:83>  (30) 
hbond:PHE:83    0
hbond:PHE:83    0
Name: 28, dtype: object

>  <halogenbond:PHE:83>  (30) 
halogenbond:PHE:83    0
halogenbond:PHE:83    0
Name: 28, dtype: object

>  <hydroph_interaction:VAL:84>  (30) 
hydroph_interaction:VAL:84    0
hydroph_interaction:VAL:84    0
Name: 28, dtype: object

>  <hydroph_interaction:GLU:85>  (30) 
hydroph_interaction:GLU:85    0
hydroph_interaction:GLU:85    0
Name: 28, dtype: object

>  <hbond:GLU:85>  (30) 
hbond:GLU:85    0
hbond:GLU:85    0
Name: 28, dtype: object

>  <halogenbond:GLU:85>  (30) 
halogenbond:GLU:85    0
halogenbond:GLU:85    0
Name: 28, dtype: object

>  <halogenbond:ALA:86>  (30) 
halogenbond:ALA:86    0
halogenbond:ALA:86    0
Name: 28, dtype: object

>  <hbond:SER:87>  (30) 
hbond:SER:87    0
hbond:SER:87    0
Name: 28, dtype: object

>  <halogenbond:SER:87>  (30) 
halogenbond:SER:87    0
halogenbond:SER:87    0
Name: 28, dtype: object

>  <hbond:GLU:88>  (30) 
hbond:GLU:88    1
hbond:GLU:88    1
Name: 28, dtype: object

>  <halogenbond:GLU:88>  (30) 
halogenbond:GLU:88    0
halogenbond:GLU:88    0
Name: 28, dtype: object

>  <hydroph_interaction:TYR:89>  (30) 
hydroph_interaction:TYR:89    1
hydroph_interaction:TYR:89    1
Name: 28, dtype: object

>  <pistack:TYR:89>  (30) 
pistack:TYR:89    0
pistack:TYR:89    0
Name: 28, dtype: object

>  <hbond:TYR:89>  (30) 
hbond:TYR:89    0
hbond:TYR:89    0
Name: 28, dtype: object

>  <hbond:TYR:90>  (30) 
hbond:TYR:90    0
hbond:TYR:90    0
Name: 28, dtype: object

>  <hydroph_interaction:TYR:90>  (30) 
hydroph_interaction:TYR:90    1
hydroph_interaction:TYR:90    1
Name: 28, dtype: object

>  <pistack:TYR:90>  (30) 
pistack:TYR:90    0
pistack:TYR:90    0
Name: 28, dtype: object

>  <hbond:ARG:93>  (30) 
hbond:ARG:93    0
hbond:ARG:93    0
Name: 28, dtype: object

>  <saltbridge:ARG:93>  (30) 
saltbridge:ARG:93    0
saltbridge:ARG:93    0
Name: 28, dtype: object

>  <hydroph_interaction:ARG:93>  (30) 
hydroph_interaction:ARG:93    0
hydroph_interaction:ARG:93    0
Name: 28, dtype: object

>  <halogenbond:GLN:95>  (30) 
halogenbond:GLN:95    0
halogenbond:GLN:95    0
Name: 28, dtype: object

>  <hbond:GLN:95>  (30) 
hbond:GLN:95    0
hbond:GLN:95    0
Name: 28, dtype: object

>  <hydroph_interaction:GLN:95>  (30) 
hydroph_interaction:GLN:95    0
hydroph_interaction:GLN:95    0
Name: 28, dtype: object

>  <hydroph_interaction:LEU:98>  (30) 
hydroph_interaction:LEU:98    0
hydroph_interaction:LEU:98    0
Name: 28, dtype: object

>  <hydroph_interaction:LEU:100>  (30) 
hydroph_interaction:LEU:100    0
hydroph_interaction:LEU:100    0
Name: 28, dtype: object

>  <hbond:SER:105>  (30) 
hbond:SER:105    0
hbond:SER:105    0
Name: 28, dtype: object

>  <halogenbond:SER:105>  (30) 
halogenbond:SER:105    0
halogenbond:SER:105    0
Name: 28, dtype: object

>  <hydroph_interaction:PRO:107>  (30) 
hydroph_interaction:PRO:107    1
hydroph_interaction:PRO:107    1
Name: 28, dtype: object

>  <hbond:PRO:107>  (30) 
hbond:PRO:107    0
hbond:PRO:107    0
Name: 28, dtype: object

>  <halogenbond:PRO:107>  (30) 
halogenbond:PRO:107    0
halogenbond:PRO:107    0
Name: 28, dtype: object

>  <hbond:ASP:109>  (30) 
hbond:ASP:109    0
hbond:ASP:109    0
Name: 28, dtype: object

>  <hbond:CYS:110>  (30) 
hbond:CYS:110    0
hbond:CYS:110    0
Name: 28, dtype: object

>  <halogenbond:CYS:110>  (30) 
halogenbond:CYS:110    0
halogenbond:CYS:110    0
Name: 28, dtype: object

>  <hydroph_interaction:VAL:124>  (30) 
hydroph_interaction:VAL:124    0
hydroph_interaction:VAL:124    0
Name: 28, dtype: object

>  <hbond:SER:125>  (30) 
hbond:SER:125    1
hbond:SER:125    1
Name: 28, dtype: object

>  <halogenbond:SER:125>  (30) 
halogenbond:SER:125    0
halogenbond:SER:125    0
Name: 28, dtype: object

>  <hydroph_interaction:THR:126>  (30) 
hydroph_interaction:THR:126    0
hydroph_interaction:THR:126    0
Name: 28, dtype: object

>  <hbond:THR:126>  (30) 
hbond:THR:126    0
hbond:THR:126    0
Name: 28, dtype: object

>  <halogenbond:THR:126>  (30) 
halogenbond:THR:126    0
halogenbond:THR:126    0
Name: 28, dtype: object

>  <hbond:GLY:127>  (30) 
hbond:GLY:127    0
hbond:GLY:127    0
Name: 28, dtype: object

>  <halogenbond:GLY:127>  (30) 
halogenbond:GLY:127    0
halogenbond:GLY:127    0
Name: 28, dtype: object

>  <hbond:GLY:128>  (30) 
hbond:GLY:128    0
hbond:GLY:128    0
Name: 28, dtype: object

>  <hbond:ASN:129>  (30) 
hbond:ASN:129    0
hbond:ASN:129    0
Name: 28, dtype: object

>  <hydroph_interaction:ASN:129>  (30) 
hydroph_interaction:ASN:129    0
hydroph_interaction:ASN:129    0
Name: 28, dtype: object

>  <halogenbond:ASN:129>  (30) 
halogenbond:ASN:129    0
halogenbond:ASN:129    0
Name: 28, dtype: object

>  <hydroph_interaction:LEU:131>  (30) 
hydroph_interaction:LEU:131    0
hydroph_interaction:LEU:131    0
Name: 28, dtype: object

>  <hbond:LEU:131>  (30) 
hbond:LEU:131    0
hbond:LEU:131    0
Name: 28, dtype: object

>  <halogenbond:LEU:131>  (30) 
halogenbond:LEU:131    0
halogenbond:LEU:131    0
Name: 28, dtype: object

>  <hbond:VAL:132>  (30) 
hbond:VAL:132    0
hbond:VAL:132    0
Name: 28, dtype: object

$$$$
Z1332892882
     RDKit          3D

 17 18  0  0  0  0  0  0  0  0999 V2000
   30.7109    8.4001    8.7659 C   0  0  0  0  0  0  0  0  0  0  0  0
   31.0933    9.5546    8.0029 N   0  0  0  0  0  0  0  0  0  0  0  0
   32.0250    9.6341    7.0044 C   0  0  0  0  0  0  0  0  0  0  0  0
   32.0522   10.9487    6.5795 C   0  0  0  0  0  0  0  0  0  0  0  0
   31.1036   11.6659    7.3531 C   0  0  0  0  0  0  0  0  0  0  0  0
   30.6582   12.9776    7.4325 C   0  0  0  0  0  0  0  0  0  0  0  0
   29.7179   13.2662    8.3720 N   0  0  0  0  0  0  0  0  0  0  0  0
   28.5395   13.8361    7.9568 C   0  0  0  0  0  0  0  0  0  0  0  0
   28.3221   15.4182    8.4466 S   0  0  0  0  0  0  0  0  0  0  0  0
   27.7024   13.0468    7.1550 N   0  0  0  0  0  0  0  0  0  0  0  0
   26.3800   13.0850    6.6851 C   0  0  0  0  0  0  0  0  0  0  0  0
   25.6978   11.9518    6.2631 C   0  0  0  0  0  0  0  0  0  0  0  0
   24.3880   11.9819    5.7957 C   0  0  0  0  0  0  0  0  0  0  0  0
   23.7150   13.1855    5.7395 C   0  0  0  0  0  0  0  0  0  0  0  0
   24.3587   14.3326    6.1528 C   0  0  0  0  0  0  0  0  0  0  0  0
   25.6798   14.2861    6.6214 C   0  0  0  0  0  0  0  0  0  0  0  0
   30.5312   10.7718    8.2126 C   0  0  0  0  0  0  0  0  0  0  0  0
  1  2  1  0
  2  3  1  0
  3  4  2  0
  4  5  1  0
  5  6  1  0
  6  7  1  0
  7  8  1  0
  8  9  2  0
  8 10  1  0
 10 11  1  0
 11 12  2  0
 12 13  1  0
 13 14  2  0
 14 15  1  0
 15 16  2  0
  5 17  2  0
 17  2  1  0
 16 11  1  0
A    1
 C1 
A    2
 N1 
A    3
 C2 
A    4
 C3 
A    5
 C4 
A    6
 C5 
A    7
 N2 
A    8
 C6 
A    9
 S1 
A   10
 N3 
A   11
 C7 
A   12
 C8 
A   13
 C9 
A   14
 C10
A   15
 C11
A   16
 C12
A   17
 C13
M  END
>  <ref_pdb>  (31) 
Ax0310a

>  <ref_mols>  (31) 
Ax0451a,Ax0416a

>  <original SMILES>  (31) 
Cn1ccc(CNC(=S)Nc2ccccc2)c1

>  <rationale>  (31) 
info hbond:S125; hydroph_interaction:P107+Y89+H21+L22; pistack:H21; 

>  <intxn_cluster_10>  (31) 
0

>  <intxn_cluster_rank_10>  (31) 
5

>  <N_interactions>  (31) 
7

>  <∆∆G>  (31) 
-12.294432

>  <$/mg>  (31) 
163.0

>  <comRMSD>  (31) 
0.675825

>  <N_rotatable_bonds>  (31) 
4

>  <deep_P1_sidechain>  (31) 
False

>  <farthest_distance_to_substrate>  (31) 
2.269807

>  <hbond:SER:7>  (31) 
hbond:SER:7    0
hbond:SER:7    0
Name: 29, dtype: object

>  <hydroph_interaction:ASN:19>  (31) 
hydroph_interaction:ASN:19    0
hydroph_interaction:ASN:19    0
Name: 29, dtype: object

>  <halogenbond:ASN:19>  (31) 
halogenbond:ASN:19    0
halogenbond:ASN:19    0
Name: 29, dtype: object

>  <hbond:ARG:20>  (31) 
hbond:ARG:20    0
hbond:ARG:20    0
Name: 29, dtype: object

>  <hydroph_interaction:ARG:20>  (31) 
hydroph_interaction:ARG:20    0
hydroph_interaction:ARG:20    0
Name: 29, dtype: object

>  <hbond:HIS:21>  (31) 
hbond:HIS:21    0
hbond:HIS:21    0
Name: 29, dtype: object

>  <hydroph_interaction:HIS:21>  (31) 
hydroph_interaction:HIS:21    1
hydroph_interaction:HIS:21    1
Name: 29, dtype: object

>  <saltbridge:HIS:21>  (31) 
saltbridge:HIS:21    0
saltbridge:HIS:21    0
Name: 29, dtype: object

>  <pistack:HIS:21>  (31) 
pistack:HIS:21    1
pistack:HIS:21    1
Name: 29, dtype: object

>  <pication:HIS:21>  (31) 
pication:HIS:21    0
pication:HIS:21    0
Name: 29, dtype: object

>  <hydroph_interaction:LEU:22>  (31) 
hydroph_interaction:LEU:22    1
hydroph_interaction:LEU:22    1
Name: 29, dtype: object

>  <hbond:SER:36>  (31) 
hbond:SER:36    0
hbond:SER:36    0
Name: 29, dtype: object

>  <hbond:ASP:39>  (31) 
hbond:ASP:39    0
hbond:ASP:39    0
Name: 29, dtype: object

>  <saltbridge:ASP:39>  (31) 
saltbridge:ASP:39    0
saltbridge:ASP:39    0
Name: 29, dtype: object

>  <hydroph_interaction:ASP:39>  (31) 
hydroph_interaction:ASP:39    0
hydroph_interaction:ASP:39    0
Name: 29, dtype: object

>  <halogenbond:ASP:39>  (31) 
halogenbond:ASP:39    0
halogenbond:ASP:39    0
Name: 29, dtype: object

>  <hydroph_interaction:ILE:82>  (31) 
hydroph_interaction:ILE:82    0
hydroph_interaction:ILE:82    0
Name: 29, dtype: object

>  <hydroph_interaction:PHE:83>  (31) 
hydroph_interaction:PHE:83    0
hydroph_interaction:PHE:83    0
Name: 29, dtype: object

>  <hbond:PHE:83>  (31) 
hbond:PHE:83    0
hbond:PHE:83    0
Name: 29, dtype: object

>  <halogenbond:PHE:83>  (31) 
halogenbond:PHE:83    0
halogenbond:PHE:83    0
Name: 29, dtype: object

>  <hydroph_interaction:VAL:84>  (31) 
hydroph_interaction:VAL:84    0
hydroph_interaction:VAL:84    0
Name: 29, dtype: object

>  <hydroph_interaction:GLU:85>  (31) 
hydroph_interaction:GLU:85    0
hydroph_interaction:GLU:85    0
Name: 29, dtype: object

>  <hbond:GLU:85>  (31) 
hbond:GLU:85    0
hbond:GLU:85    0
Name: 29, dtype: object

>  <halogenbond:GLU:85>  (31) 
halogenbond:GLU:85    0
halogenbond:GLU:85    0
Name: 29, dtype: object

>  <halogenbond:ALA:86>  (31) 
halogenbond:ALA:86    0
halogenbond:ALA:86    0
Name: 29, dtype: object

>  <hbond:SER:87>  (31) 
hbond:SER:87    0
hbond:SER:87    0
Name: 29, dtype: object

>  <halogenbond:SER:87>  (31) 
halogenbond:SER:87    0
halogenbond:SER:87    0
Name: 29, dtype: object

>  <hbond:GLU:88>  (31) 
hbond:GLU:88    0
hbond:GLU:88    0
Name: 29, dtype: object

>  <halogenbond:GLU:88>  (31) 
halogenbond:GLU:88    0
halogenbond:GLU:88    0
Name: 29, dtype: object

>  <hydroph_interaction:TYR:89>  (31) 
hydroph_interaction:TYR:89    2
hydroph_interaction:TYR:89    2
Name: 29, dtype: object

>  <pistack:TYR:89>  (31) 
pistack:TYR:89    0
pistack:TYR:89    0
Name: 29, dtype: object

>  <hbond:TYR:89>  (31) 
hbond:TYR:89    0
hbond:TYR:89    0
Name: 29, dtype: object

>  <hbond:TYR:90>  (31) 
hbond:TYR:90    0
hbond:TYR:90    0
Name: 29, dtype: object

>  <hydroph_interaction:TYR:90>  (31) 
hydroph_interaction:TYR:90    0
hydroph_interaction:TYR:90    0
Name: 29, dtype: object

>  <pistack:TYR:90>  (31) 
pistack:TYR:90    0
pistack:TYR:90    0
Name: 29, dtype: object

>  <hbond:ARG:93>  (31) 
hbond:ARG:93    0
hbond:ARG:93    0
Name: 29, dtype: object

>  <saltbridge:ARG:93>  (31) 
saltbridge:ARG:93    0
saltbridge:ARG:93    0
Name: 29, dtype: object

>  <hydroph_interaction:ARG:93>  (31) 
hydroph_interaction:ARG:93    0
hydroph_interaction:ARG:93    0
Name: 29, dtype: object

>  <halogenbond:GLN:95>  (31) 
halogenbond:GLN:95    0
halogenbond:GLN:95    0
Name: 29, dtype: object

>  <hbond:GLN:95>  (31) 
hbond:GLN:95    0
hbond:GLN:95    0
Name: 29, dtype: object

>  <hydroph_interaction:GLN:95>  (31) 
hydroph_interaction:GLN:95    0
hydroph_interaction:GLN:95    0
Name: 29, dtype: object

>  <hydroph_interaction:LEU:98>  (31) 
hydroph_interaction:LEU:98    0
hydroph_interaction:LEU:98    0
Name: 29, dtype: object

>  <hydroph_interaction:LEU:100>  (31) 
hydroph_interaction:LEU:100    0
hydroph_interaction:LEU:100    0
Name: 29, dtype: object

>  <hbond:SER:105>  (31) 
hbond:SER:105    0
hbond:SER:105    0
Name: 29, dtype: object

>  <halogenbond:SER:105>  (31) 
halogenbond:SER:105    0
halogenbond:SER:105    0
Name: 29, dtype: object

>  <hydroph_interaction:PRO:107>  (31) 
hydroph_interaction:PRO:107    1
hydroph_interaction:PRO:107    1
Name: 29, dtype: object

>  <hbond:PRO:107>  (31) 
hbond:PRO:107    0
hbond:PRO:107    0
Name: 29, dtype: object

>  <halogenbond:PRO:107>  (31) 
halogenbond:PRO:107    0
halogenbond:PRO:107    0
Name: 29, dtype: object

>  <hbond:ASP:109>  (31) 
hbond:ASP:109    0
hbond:ASP:109    0
Name: 29, dtype: object

>  <hbond:CYS:110>  (31) 
hbond:CYS:110    0
hbond:CYS:110    0
Name: 29, dtype: object

>  <halogenbond:CYS:110>  (31) 
halogenbond:CYS:110    0
halogenbond:CYS:110    0
Name: 29, dtype: object

>  <hydroph_interaction:VAL:124>  (31) 
hydroph_interaction:VAL:124    0
hydroph_interaction:VAL:124    0
Name: 29, dtype: object

>  <hbond:SER:125>  (31) 
hbond:SER:125    1
hbond:SER:125    1
Name: 29, dtype: object

>  <halogenbond:SER:125>  (31) 
halogenbond:SER:125    0
halogenbond:SER:125    0
Name: 29, dtype: object

>  <hydroph_interaction:THR:126>  (31) 
hydroph_interaction:THR:126    0
hydroph_interaction:THR:126    0
Name: 29, dtype: object

>  <hbond:THR:126>  (31) 
hbond:THR:126    0
hbond:THR:126    0
Name: 29, dtype: object

>  <halogenbond:THR:126>  (31) 
halogenbond:THR:126    0
halogenbond:THR:126    0
Name: 29, dtype: object

>  <hbond:GLY:127>  (31) 
hbond:GLY:127    0
hbond:GLY:127    0
Name: 29, dtype: object

>  <halogenbond:GLY:127>  (31) 
halogenbond:GLY:127    0
halogenbond:GLY:127    0
Name: 29, dtype: object

>  <hbond:GLY:128>  (31) 
hbond:GLY:128    0
hbond:GLY:128    0
Name: 29, dtype: object

>  <hbond:ASN:129>  (31) 
hbond:ASN:129    0
hbond:ASN:129    0
Name: 29, dtype: object

>  <hydroph_interaction:ASN:129>  (31) 
hydroph_interaction:ASN:129    0
hydroph_interaction:ASN:129    0
Name: 29, dtype: object

>  <halogenbond:ASN:129>  (31) 
halogenbond:ASN:129    0
halogenbond:ASN:129    0
Name: 29, dtype: object

>  <hydroph_interaction:LEU:131>  (31) 
hydroph_interaction:LEU:131    0
hydroph_interaction:LEU:131    0
Name: 29, dtype: object

>  <hbond:LEU:131>  (31) 
hbond:LEU:131    0
hbond:LEU:131    0
Name: 29, dtype: object

>  <halogenbond:LEU:131>  (31) 
halogenbond:LEU:131    0
halogenbond:LEU:131    0
Name: 29, dtype: object

>  <hbond:VAL:132>  (31) 
hbond:VAL:132    0
hbond:VAL:132    0
Name: 29, dtype: object

$$$$
Z3934776425
     RDKit          3D

 15 15  0  0  0  0  0  0  0  0999 V2000
   28.6697   15.7105    8.5087 C   0  0  0  0  0  0  0  0  0  0  0  0
   28.4270   14.2347    8.3029 C   0  0  0  0  0  0  0  0  0  0  0  0
   28.4080   13.8379    6.8278 C   0  0  2  0  0  0  0  0  0  0  0  0
   27.4454   12.6871    6.6481 C   0  0  0  0  0  0  0  0  0  0  0  0
   29.7939   13.4454    6.3235 C   0  0  0  0  0  0  0  0  0  0  0  0
   30.1171   13.6213    5.1530 O   0  0  0  0  0  0  0  0  0  0  0  0
   30.5946   12.8988    7.3159 N   0  0  0  0  0  0  0  0  0  0  0  0
   31.1335   11.6041    7.2938 C   0  0  0  0  0  0  0  0  0  0  0  0
   32.1801   11.2180    6.4790 C   0  0  0  0  0  0  0  0  0  0  0  0
   32.6202    9.9054    6.5292 C   0  0  0  0  0  0  0  0  0  0  0  0
   33.7568    9.4849    5.6494 C   0  0  0  0  0  0  0  0  0  0  0  0
   32.0686    8.9758    7.3466 N   0  0  0  0  0  0  0  0  0  0  0  0
   31.0534    9.3719    8.1348 C   0  0  0  0  0  0  0  0  0  0  0  0
   30.4409    8.3671    9.0356 C   0  0  0  0  0  0  0  0  0  0  0  0
   30.5675   10.6640    8.1378 C   0  0  0  0  0  0  0  0  0  0  0  0
  1  2  1  0
  2  3  1  0
  3  4  1  1
  3  5  1  0
  5  6  2  0
  5  7  1  0
  7  8  1  0
  8  9  2  0
  9 10  1  0
 10 11  1  0
 10 12  2  0
 12 13  1  0
 13 14  1  0
 13 15  2  0
 15  8  1  0
A    1
 C1 
A    2
 C2 
A    3
 C3 
A    4
 C4 
A    5
 C5 
A    6
 O1 
A    7
 N1 
A    8
 C6 
A    9
 C7 
A   10
 C8 
A   11
 C9 
A   12
 N2 
A   13
 C10
A   14
 C11
A   15
 C12
M  END
>  <ref_pdb>  (32) 
Ax0310a

>  <ref_mols>  (32) 
Ax0451a,Ax0739a

>  <original SMILES>  (32) 
CC[C@H](C)C(=O)Nc1cc(C)nc(C)c1

>  <rationale>  (32) 
info hbond:E88+S87; hydroph_interaction:P107+V124+Y89+Y90; 

>  <intxn_cluster_10>  (32) 
0

>  <intxn_cluster_rank_10>  (32) 
5

>  <N_interactions>  (32) 
8

>  <∆∆G>  (32) 
-13.382108

>  <$/mg>  (32) 
163.0

>  <comRMSD>  (32) 
0.742455

>  <N_rotatable_bonds>  (32) 
7

>  <deep_P1_sidechain>  (32) 
True

>  <farthest_distance_to_substrate>  (32) 
2.602945

>  <hbond:SER:7>  (32) 
hbond:SER:7    0
hbond:SER:7    0
Name: 30, dtype: object

>  <hydroph_interaction:ASN:19>  (32) 
hydroph_interaction:ASN:19    0
hydroph_interaction:ASN:19    0
Name: 30, dtype: object

>  <halogenbond:ASN:19>  (32) 
halogenbond:ASN:19    0
halogenbond:ASN:19    0
Name: 30, dtype: object

>  <hbond:ARG:20>  (32) 
hbond:ARG:20    0
hbond:ARG:20    0
Name: 30, dtype: object

>  <hydroph_interaction:ARG:20>  (32) 
hydroph_interaction:ARG:20    0
hydroph_interaction:ARG:20    0
Name: 30, dtype: object

>  <hbond:HIS:21>  (32) 
hbond:HIS:21    0
hbond:HIS:21    0
Name: 30, dtype: object

>  <hydroph_interaction:HIS:21>  (32) 
hydroph_interaction:HIS:21    0
hydroph_interaction:HIS:21    0
Name: 30, dtype: object

>  <saltbridge:HIS:21>  (32) 
saltbridge:HIS:21    0
saltbridge:HIS:21    0
Name: 30, dtype: object

>  <pistack:HIS:21>  (32) 
pistack:HIS:21    0
pistack:HIS:21    0
Name: 30, dtype: object

>  <pication:HIS:21>  (32) 
pication:HIS:21    0
pication:HIS:21    0
Name: 30, dtype: object

>  <hydroph_interaction:LEU:22>  (32) 
hydroph_interaction:LEU:22    0
hydroph_interaction:LEU:22    0
Name: 30, dtype: object

>  <hbond:SER:36>  (32) 
hbond:SER:36    0
hbond:SER:36    0
Name: 30, dtype: object

>  <hbond:ASP:39>  (32) 
hbond:ASP:39    0
hbond:ASP:39    0
Name: 30, dtype: object

>  <saltbridge:ASP:39>  (32) 
saltbridge:ASP:39    0
saltbridge:ASP:39    0
Name: 30, dtype: object

>  <hydroph_interaction:ASP:39>  (32) 
hydroph_interaction:ASP:39    0
hydroph_interaction:ASP:39    0
Name: 30, dtype: object

>  <halogenbond:ASP:39>  (32) 
halogenbond:ASP:39    0
halogenbond:ASP:39    0
Name: 30, dtype: object

>  <hydroph_interaction:ILE:82>  (32) 
hydroph_interaction:ILE:82    0
hydroph_interaction:ILE:82    0
Name: 30, dtype: object

>  <hydroph_interaction:PHE:83>  (32) 
hydroph_interaction:PHE:83    0
hydroph_interaction:PHE:83    0
Name: 30, dtype: object

>  <hbond:PHE:83>  (32) 
hbond:PHE:83    0
hbond:PHE:83    0
Name: 30, dtype: object

>  <halogenbond:PHE:83>  (32) 
halogenbond:PHE:83    0
halogenbond:PHE:83    0
Name: 30, dtype: object

>  <hydroph_interaction:VAL:84>  (32) 
hydroph_interaction:VAL:84    0
hydroph_interaction:VAL:84    0
Name: 30, dtype: object

>  <hydroph_interaction:GLU:85>  (32) 
hydroph_interaction:GLU:85    0
hydroph_interaction:GLU:85    0
Name: 30, dtype: object

>  <hbond:GLU:85>  (32) 
hbond:GLU:85    0
hbond:GLU:85    0
Name: 30, dtype: object

>  <halogenbond:GLU:85>  (32) 
halogenbond:GLU:85    0
halogenbond:GLU:85    0
Name: 30, dtype: object

>  <halogenbond:ALA:86>  (32) 
halogenbond:ALA:86    0
halogenbond:ALA:86    0
Name: 30, dtype: object

>  <hbond:SER:87>  (32) 
hbond:SER:87    2
hbond:SER:87    2
Name: 30, dtype: object

>  <halogenbond:SER:87>  (32) 
halogenbond:SER:87    0
halogenbond:SER:87    0
Name: 30, dtype: object

>  <hbond:GLU:88>  (32) 
hbond:GLU:88    1
hbond:GLU:88    1
Name: 30, dtype: object

>  <halogenbond:GLU:88>  (32) 
halogenbond:GLU:88    0
halogenbond:GLU:88    0
Name: 30, dtype: object

>  <hydroph_interaction:TYR:89>  (32) 
hydroph_interaction:TYR:89    1
hydroph_interaction:TYR:89    1
Name: 30, dtype: object

>  <pistack:TYR:89>  (32) 
pistack:TYR:89    0
pistack:TYR:89    0
Name: 30, dtype: object

>  <hbond:TYR:89>  (32) 
hbond:TYR:89    0
hbond:TYR:89    0
Name: 30, dtype: object

>  <hbond:TYR:90>  (32) 
hbond:TYR:90    0
hbond:TYR:90    0
Name: 30, dtype: object

>  <hydroph_interaction:TYR:90>  (32) 
hydroph_interaction:TYR:90    1
hydroph_interaction:TYR:90    1
Name: 30, dtype: object

>  <pistack:TYR:90>  (32) 
pistack:TYR:90    0
pistack:TYR:90    0
Name: 30, dtype: object

>  <hbond:ARG:93>  (32) 
hbond:ARG:93    0
hbond:ARG:93    0
Name: 30, dtype: object

>  <saltbridge:ARG:93>  (32) 
saltbridge:ARG:93    0
saltbridge:ARG:93    0
Name: 30, dtype: object

>  <hydroph_interaction:ARG:93>  (32) 
hydroph_interaction:ARG:93    0
hydroph_interaction:ARG:93    0
Name: 30, dtype: object

>  <halogenbond:GLN:95>  (32) 
halogenbond:GLN:95    0
halogenbond:GLN:95    0
Name: 30, dtype: object

>  <hbond:GLN:95>  (32) 
hbond:GLN:95    0
hbond:GLN:95    0
Name: 30, dtype: object

>  <hydroph_interaction:GLN:95>  (32) 
hydroph_interaction:GLN:95    0
hydroph_interaction:GLN:95    0
Name: 30, dtype: object

>  <hydroph_interaction:LEU:98>  (32) 
hydroph_interaction:LEU:98    0
hydroph_interaction:LEU:98    0
Name: 30, dtype: object

>  <hydroph_interaction:LEU:100>  (32) 
hydroph_interaction:LEU:100    0
hydroph_interaction:LEU:100    0
Name: 30, dtype: object

>  <hbond:SER:105>  (32) 
hbond:SER:105    0
hbond:SER:105    0
Name: 30, dtype: object

>  <halogenbond:SER:105>  (32) 
halogenbond:SER:105    0
halogenbond:SER:105    0
Name: 30, dtype: object

>  <hydroph_interaction:PRO:107>  (32) 
hydroph_interaction:PRO:107    2
hydroph_interaction:PRO:107    2
Name: 30, dtype: object

>  <hbond:PRO:107>  (32) 
hbond:PRO:107    0
hbond:PRO:107    0
Name: 30, dtype: object

>  <halogenbond:PRO:107>  (32) 
halogenbond:PRO:107    0
halogenbond:PRO:107    0
Name: 30, dtype: object

>  <hbond:ASP:109>  (32) 
hbond:ASP:109    0
hbond:ASP:109    0
Name: 30, dtype: object

>  <hbond:CYS:110>  (32) 
hbond:CYS:110    0
hbond:CYS:110    0
Name: 30, dtype: object

>  <halogenbond:CYS:110>  (32) 
halogenbond:CYS:110    0
halogenbond:CYS:110    0
Name: 30, dtype: object

>  <hydroph_interaction:VAL:124>  (32) 
hydroph_interaction:VAL:124    1
hydroph_interaction:VAL:124    1
Name: 30, dtype: object

>  <hbond:SER:125>  (32) 
hbond:SER:125    0
hbond:SER:125    0
Name: 30, dtype: object

>  <halogenbond:SER:125>  (32) 
halogenbond:SER:125    0
halogenbond:SER:125    0
Name: 30, dtype: object

>  <hydroph_interaction:THR:126>  (32) 
hydroph_interaction:THR:126    0
hydroph_interaction:THR:126    0
Name: 30, dtype: object

>  <hbond:THR:126>  (32) 
hbond:THR:126    0
hbond:THR:126    0
Name: 30, dtype: object

>  <halogenbond:THR:126>  (32) 
halogenbond:THR:126    0
halogenbond:THR:126    0
Name: 30, dtype: object

>  <hbond:GLY:127>  (32) 
hbond:GLY:127    0
hbond:GLY:127    0
Name: 30, dtype: object

>  <halogenbond:GLY:127>  (32) 
halogenbond:GLY:127    0
halogenbond:GLY:127    0
Name: 30, dtype: object

>  <hbond:GLY:128>  (32) 
hbond:GLY:128    0
hbond:GLY:128    0
Name: 30, dtype: object

>  <hbond:ASN:129>  (32) 
hbond:ASN:129    0
hbond:ASN:129    0
Name: 30, dtype: object

>  <hydroph_interaction:ASN:129>  (32) 
hydroph_interaction:ASN:129    0
hydroph_interaction:ASN:129    0
Name: 30, dtype: object

>  <halogenbond:ASN:129>  (32) 
halogenbond:ASN:129    0
halogenbond:ASN:129    0
Name: 30, dtype: object

>  <hydroph_interaction:LEU:131>  (32) 
hydroph_interaction:LEU:131    0
hydroph_interaction:LEU:131    0
Name: 30, dtype: object

>  <hbond:LEU:131>  (32) 
hbond:LEU:131    0
hbond:LEU:131    0
Name: 30, dtype: object

>  <halogenbond:LEU:131>  (32) 
halogenbond:LEU:131    0
halogenbond:LEU:131    0
Name: 30, dtype: object

>  <hbond:VAL:132>  (32) 
hbond:VAL:132    0
hbond:VAL:132    0
Name: 30, dtype: object

$$$$
Z3055894854
     RDKit          3D

 13 13  0  0  0  0  0  0  0  0999 V2000
   42.5612   12.5211   13.4045 C   0  0  0  0  0  0  0  0  0  0  0  0
   41.1768   13.0188   13.1176 C   0  0  0  0  0  0  0  0  0  0  0  0
   40.2708   12.8320   13.9180 O   0  0  0  0  0  0  0  0  0  0  0  0
   41.0840   13.6722   11.9021 N   0  0  0  0  0  0  0  0  0  0  0  0
   40.1334   13.3628   10.9117 C   0  0  0  0  0  0  0  0  0  0  0  0
   39.1120   12.4686   11.2107 C   0  0  0  0  0  0  0  0  0  0  0  0
   38.3418   12.6851   12.3337 C   0  0  0  0  0  0  0  0  0  0  0  0
   37.3359   11.8085   12.6527 C   0  0  0  0  0  0  0  0  0  0  0  0
   36.6302   12.0630   13.7373 C   0  0  0  0  0  0  0  0  0  0  0  0
   37.0666   10.6987   11.8715 C   0  0  0  0  0  0  0  0  0  0  0  0
   37.8334   10.4997   10.7644 C   0  0  0  0  0  0  0  0  0  0  0  0
   38.8530   11.3657   10.4149 C   0  0  0  0  0  0  0  0  0  0  0  0
   39.6010   11.1737    9.3290 F   0  0  0  0  0  0  0  0  0  0  0  0
  1  2  1  0
  2  3  2  0
  2  4  1  0
  4  5  1  0
  5  6  1  0
  6  7  2  0
  7  8  1  0
  8  9  1  0
  8 10  2  0
 10 11  1  0
 11 12  2  0
 12 13  1  0
 12  6  1  0
A    1
 C1 
A    2
 C2 
A    3
 O1 
A    4
 N1 
A    5
 C3 
A    6
 C4 
A    7
 C5 
A    8
 C6 
A    9
 C7 
A   10
 C8 
A   11
 C9 
A   12
 C10
A   13
 F1 
M  END
>  <ref_pdb>  (33) 
Ax0310a

>  <ref_mols>  (33) 
Ax0473a,Ax0416a

>  <original SMILES>  (33) 
CC(=O)NCc1cc(C)ccc1F

>  <rationale>  (33) 
info halogenbond:N129; hydroph_interaction:V84+L100+L131+L98; 

>  <intxn_cluster_10>  (33) 
4

>  <intxn_cluster_rank_10>  (33) 
2

>  <N_interactions>  (33) 
7

>  <∆∆G>  (33) 
-6.693634

>  <$/mg>  (33) 
163.0

>  <comRMSD>  (33) 
0.805285

>  <N_rotatable_bonds>  (33) 
4

>  <deep_P1_sidechain>  (33) 
False

>  <farthest_distance_to_substrate>  (33) 
4.76188

>  <hbond:SER:7>  (33) 
hbond:SER:7    0
hbond:SER:7    0
Name: 31, dtype: object

>  <hydroph_interaction:ASN:19>  (33) 
hydroph_interaction:ASN:19    0
hydroph_interaction:ASN:19    0
Name: 31, dtype: object

>  <halogenbond:ASN:19>  (33) 
halogenbond:ASN:19    0
halogenbond:ASN:19    0
Name: 31, dtype: object

>  <hbond:ARG:20>  (33) 
hbond:ARG:20    0
hbond:ARG:20    0
Name: 31, dtype: object

>  <hydroph_interaction:ARG:20>  (33) 
hydroph_interaction:ARG:20    0
hydroph_interaction:ARG:20    0
Name: 31, dtype: object

>  <hbond:HIS:21>  (33) 
hbond:HIS:21    0
hbond:HIS:21    0
Name: 31, dtype: object

>  <hydroph_interaction:HIS:21>  (33) 
hydroph_interaction:HIS:21    0
hydroph_interaction:HIS:21    0
Name: 31, dtype: object

>  <saltbridge:HIS:21>  (33) 
saltbridge:HIS:21    0
saltbridge:HIS:21    0
Name: 31, dtype: object

>  <pistack:HIS:21>  (33) 
pistack:HIS:21    0
pistack:HIS:21    0
Name: 31, dtype: object

>  <pication:HIS:21>  (33) 
pication:HIS:21    0
pication:HIS:21    0
Name: 31, dtype: object

>  <hydroph_interaction:LEU:22>  (33) 
hydroph_interaction:LEU:22    0
hydroph_interaction:LEU:22    0
Name: 31, dtype: object

>  <hbond:SER:36>  (33) 
hbond:SER:36    0
hbond:SER:36    0
Name: 31, dtype: object

>  <hbond:ASP:39>  (33) 
hbond:ASP:39    0
hbond:ASP:39    0
Name: 31, dtype: object

>  <saltbridge:ASP:39>  (33) 
saltbridge:ASP:39    0
saltbridge:ASP:39    0
Name: 31, dtype: object

>  <hydroph_interaction:ASP:39>  (33) 
hydroph_interaction:ASP:39    0
hydroph_interaction:ASP:39    0
Name: 31, dtype: object

>  <halogenbond:ASP:39>  (33) 
halogenbond:ASP:39    0
halogenbond:ASP:39    0
Name: 31, dtype: object

>  <hydroph_interaction:ILE:82>  (33) 
hydroph_interaction:ILE:82    0
hydroph_interaction:ILE:82    0
Name: 31, dtype: object

>  <hydroph_interaction:PHE:83>  (33) 
hydroph_interaction:PHE:83    0
hydroph_interaction:PHE:83    0
Name: 31, dtype: object

>  <hbond:PHE:83>  (33) 
hbond:PHE:83    0
hbond:PHE:83    0
Name: 31, dtype: object

>  <halogenbond:PHE:83>  (33) 
halogenbond:PHE:83    0
halogenbond:PHE:83    0
Name: 31, dtype: object

>  <hydroph_interaction:VAL:84>  (33) 
hydroph_interaction:VAL:84    1
hydroph_interaction:VAL:84    1
Name: 31, dtype: object

>  <hydroph_interaction:GLU:85>  (33) 
hydroph_interaction:GLU:85    0
hydroph_interaction:GLU:85    0
Name: 31, dtype: object

>  <hbond:GLU:85>  (33) 
hbond:GLU:85    0
hbond:GLU:85    0
Name: 31, dtype: object

>  <halogenbond:GLU:85>  (33) 
halogenbond:GLU:85    0
halogenbond:GLU:85    0
Name: 31, dtype: object

>  <halogenbond:ALA:86>  (33) 
halogenbond:ALA:86    0
halogenbond:ALA:86    0
Name: 31, dtype: object

>  <hbond:SER:87>  (33) 
hbond:SER:87    0
hbond:SER:87    0
Name: 31, dtype: object

>  <halogenbond:SER:87>  (33) 
halogenbond:SER:87    0
halogenbond:SER:87    0
Name: 31, dtype: object

>  <hbond:GLU:88>  (33) 
hbond:GLU:88    0
hbond:GLU:88    0
Name: 31, dtype: object

>  <halogenbond:GLU:88>  (33) 
halogenbond:GLU:88    0
halogenbond:GLU:88    0
Name: 31, dtype: object

>  <hydroph_interaction:TYR:89>  (33) 
hydroph_interaction:TYR:89    0
hydroph_interaction:TYR:89    0
Name: 31, dtype: object

>  <pistack:TYR:89>  (33) 
pistack:TYR:89    0
pistack:TYR:89    0
Name: 31, dtype: object

>  <hbond:TYR:89>  (33) 
hbond:TYR:89    0
hbond:TYR:89    0
Name: 31, dtype: object

>  <hbond:TYR:90>  (33) 
hbond:TYR:90    0
hbond:TYR:90    0
Name: 31, dtype: object

>  <hydroph_interaction:TYR:90>  (33) 
hydroph_interaction:TYR:90    0
hydroph_interaction:TYR:90    0
Name: 31, dtype: object

>  <pistack:TYR:90>  (33) 
pistack:TYR:90    0
pistack:TYR:90    0
Name: 31, dtype: object

>  <hbond:ARG:93>  (33) 
hbond:ARG:93    0
hbond:ARG:93    0
Name: 31, dtype: object

>  <saltbridge:ARG:93>  (33) 
saltbridge:ARG:93    0
saltbridge:ARG:93    0
Name: 31, dtype: object

>  <hydroph_interaction:ARG:93>  (33) 
hydroph_interaction:ARG:93    0
hydroph_interaction:ARG:93    0
Name: 31, dtype: object

>  <halogenbond:GLN:95>  (33) 
halogenbond:GLN:95    0
halogenbond:GLN:95    0
Name: 31, dtype: object

>  <hbond:GLN:95>  (33) 
hbond:GLN:95    0
hbond:GLN:95    0
Name: 31, dtype: object

>  <hydroph_interaction:GLN:95>  (33) 
hydroph_interaction:GLN:95    0
hydroph_interaction:GLN:95    0
Name: 31, dtype: object

>  <hydroph_interaction:LEU:98>  (33) 
hydroph_interaction:LEU:98    1
hydroph_interaction:LEU:98    1
Name: 31, dtype: object

>  <hydroph_interaction:LEU:100>  (33) 
hydroph_interaction:LEU:100    2
hydroph_interaction:LEU:100    2
Name: 31, dtype: object

>  <hbond:SER:105>  (33) 
hbond:SER:105    0
hbond:SER:105    0
Name: 31, dtype: object

>  <halogenbond:SER:105>  (33) 
halogenbond:SER:105    0
halogenbond:SER:105    0
Name: 31, dtype: object

>  <hydroph_interaction:PRO:107>  (33) 
hydroph_interaction:PRO:107    0
hydroph_interaction:PRO:107    0
Name: 31, dtype: object

>  <hbond:PRO:107>  (33) 
hbond:PRO:107    0
hbond:PRO:107    0
Name: 31, dtype: object

>  <halogenbond:PRO:107>  (33) 
halogenbond:PRO:107    0
halogenbond:PRO:107    0
Name: 31, dtype: object

>  <hbond:ASP:109>  (33) 
hbond:ASP:109    0
hbond:ASP:109    0
Name: 31, dtype: object

>  <hbond:CYS:110>  (33) 
hbond:CYS:110    0
hbond:CYS:110    0
Name: 31, dtype: object

>  <halogenbond:CYS:110>  (33) 
halogenbond:CYS:110    0
halogenbond:CYS:110    0
Name: 31, dtype: object

>  <hydroph_interaction:VAL:124>  (33) 
hydroph_interaction:VAL:124    0
hydroph_interaction:VAL:124    0
Name: 31, dtype: object

>  <hbond:SER:125>  (33) 
hbond:SER:125    0
hbond:SER:125    0
Name: 31, dtype: object

>  <halogenbond:SER:125>  (33) 
halogenbond:SER:125    0
halogenbond:SER:125    0
Name: 31, dtype: object

>  <hydroph_interaction:THR:126>  (33) 
hydroph_interaction:THR:126    0
hydroph_interaction:THR:126    0
Name: 31, dtype: object

>  <hbond:THR:126>  (33) 
hbond:THR:126    0
hbond:THR:126    0
Name: 31, dtype: object

>  <halogenbond:THR:126>  (33) 
halogenbond:THR:126    0
halogenbond:THR:126    0
Name: 31, dtype: object

>  <hbond:GLY:127>  (33) 
hbond:GLY:127    0
hbond:GLY:127    0
Name: 31, dtype: object

>  <halogenbond:GLY:127>  (33) 
halogenbond:GLY:127    0
halogenbond:GLY:127    0
Name: 31, dtype: object

>  <hbond:GLY:128>  (33) 
hbond:GLY:128    0
hbond:GLY:128    0
Name: 31, dtype: object

>  <hbond:ASN:129>  (33) 
hbond:ASN:129    0
hbond:ASN:129    0
Name: 31, dtype: object

>  <hydroph_interaction:ASN:129>  (33) 
hydroph_interaction:ASN:129    0
hydroph_interaction:ASN:129    0
Name: 31, dtype: object

>  <halogenbond:ASN:129>  (33) 
halogenbond:ASN:129    1
halogenbond:ASN:129    1
Name: 31, dtype: object

>  <hydroph_interaction:LEU:131>  (33) 
hydroph_interaction:LEU:131    2
hydroph_interaction:LEU:131    2
Name: 31, dtype: object

>  <hbond:LEU:131>  (33) 
hbond:LEU:131    0
hbond:LEU:131    0
Name: 31, dtype: object

>  <halogenbond:LEU:131>  (33) 
halogenbond:LEU:131    0
halogenbond:LEU:131    0
Name: 31, dtype: object

>  <hbond:VAL:132>  (33) 
hbond:VAL:132    0
hbond:VAL:132    0
Name: 31, dtype: object

$$$$
PV_002756345926
     RDKit          3D

 17 19  0  0  0  0  0  0  0  0999 V2000
   30.7817    8.3288    8.1426 C   0  0  0  0  0  0  0  0  0  0  0  0
   31.2174    9.6256    7.7702 N   0  0  0  0  0  0  0  0  0  0  0  0
   30.7317   10.6823    8.3699 C   0  0  0  0  0  0  0  0  0  0  0  0
   31.3572   11.9075    7.8761 C   0  0  0  0  0  0  0  0  0  0  0  0
   30.9252   13.1553    8.6020 C   0  0  0  0  0  0  0  0  0  0  0  0
   29.6274   13.4853    8.9398 C   0  0  0  0  0  0  0  0  0  0  0  0
   29.3796   14.6277    9.6926 C   0  0  0  0  0  0  0  0  0  0  0  0
   30.4938   15.4164   10.0814 C   0  0  0  0  0  0  0  0  0  0  0  0
   31.7493   15.0782    9.7098 C   0  0  0  0  0  0  0  0  0  0  0  0
   31.9701   13.9667    8.9795 C   0  0  0  0  0  0  0  0  0  0  0  0
   33.6091   13.6030    8.5590 Cl  0  0  0  0  0  0  0  0  0  0  0  0
   32.2448   11.4820    6.8630 C   0  0  0  0  0  0  0  0  0  0  0  0
   33.0718   12.1960    6.0581 N   0  0  0  0  0  0  0  0  0  0  0  0
   33.8324   11.4236    5.2127 C   0  0  0  0  0  0  0  0  0  0  0  0
   33.8349   10.0403    5.1128 C   0  0  0  0  0  0  0  0  0  0  0  0
   32.9653    9.3379    5.9533 C   0  0  0  0  0  0  0  0  0  0  0  0
   32.1565   10.0544    6.8324 C   0  0  0  0  0  0  0  0  0  0  0  0
  1  2  1  0
  2  3  1  0
  3  4  2  0
  4  5  1  0
  5  6  2  0
  6  7  1  0
  7  8  2  0
  8  9  1  0
  9 10  2  0
 10 11  1  0
  4 12  1  0
 12 13  2  0
 13 14  1  0
 14 15  2  0
 15 16  1  0
 16 17  2  0
 17  2  1  0
 10  5  1  0
 17 12  1  0
A    1
 C1 
A    2
 N1 
A    3
 C2 
A    4
 C3 
A    5
 C4 
A    6
 C5 
A    7
 C6 
A    8
 C7 
A    9
 C8 
A   10
 C9 
A   11
CL1 
A   12
 C10
A   13
 N2 
A   14
 C11
A   15
 C12
A   16
 C13
A   17
 C14
M  END
>  <ref_pdb>  (34) 
Ax0310a

>  <ref_mols>  (34) 
Ax0451a,Ax0812a

>  <original SMILES>  (34) 
Cn1cc(-c2ccccc2Cl)c2ncccc21

>  <rationale>  (34) 
info halogenbond:G127; hydroph_interaction:Y90+V84; 

>  <intxn_cluster_10>  (34) 
7

>  <intxn_cluster_rank_10>  (34) 
4

>  <N_interactions>  (34) 
3

>  <∆∆G>  (34) 
-7.527046

>  <$/mg>  (34) 
163.0

>  <comRMSD>  (34) 
0.692797

>  <N_rotatable_bonds>  (34) 
2

>  <deep_P1_sidechain>  (34) 
False

>  <farthest_distance_to_substrate>  (34) 
2.653948

>  <hbond:SER:7>  (34) 
hbond:SER:7    0
hbond:SER:7    0
Name: 32, dtype: object

>  <hydroph_interaction:ASN:19>  (34) 
hydroph_interaction:ASN:19    0
hydroph_interaction:ASN:19    0
Name: 32, dtype: object

>  <halogenbond:ASN:19>  (34) 
halogenbond:ASN:19    0
halogenbond:ASN:19    0
Name: 32, dtype: object

>  <hbond:ARG:20>  (34) 
hbond:ARG:20    0
hbond:ARG:20    0
Name: 32, dtype: object

>  <hydroph_interaction:ARG:20>  (34) 
hydroph_interaction:ARG:20    0
hydroph_interaction:ARG:20    0
Name: 32, dtype: object

>  <hbond:HIS:21>  (34) 
hbond:HIS:21    0
hbond:HIS:21    0
Name: 32, dtype: object

>  <hydroph_interaction:HIS:21>  (34) 
hydroph_interaction:HIS:21    0
hydroph_interaction:HIS:21    0
Name: 32, dtype: object

>  <saltbridge:HIS:21>  (34) 
saltbridge:HIS:21    0
saltbridge:HIS:21    0
Name: 32, dtype: object

>  <pistack:HIS:21>  (34) 
pistack:HIS:21    0
pistack:HIS:21    0
Name: 32, dtype: object

>  <pication:HIS:21>  (34) 
pication:HIS:21    0
pication:HIS:21    0
Name: 32, dtype: object

>  <hydroph_interaction:LEU:22>  (34) 
hydroph_interaction:LEU:22    0
hydroph_interaction:LEU:22    0
Name: 32, dtype: object

>  <hbond:SER:36>  (34) 
hbond:SER:36    0
hbond:SER:36    0
Name: 32, dtype: object

>  <hbond:ASP:39>  (34) 
hbond:ASP:39    0
hbond:ASP:39    0
Name: 32, dtype: object

>  <saltbridge:ASP:39>  (34) 
saltbridge:ASP:39    0
saltbridge:ASP:39    0
Name: 32, dtype: object

>  <hydroph_interaction:ASP:39>  (34) 
hydroph_interaction:ASP:39    0
hydroph_interaction:ASP:39    0
Name: 32, dtype: object

>  <halogenbond:ASP:39>  (34) 
halogenbond:ASP:39    0
halogenbond:ASP:39    0
Name: 32, dtype: object

>  <hydroph_interaction:ILE:82>  (34) 
hydroph_interaction:ILE:82    0
hydroph_interaction:ILE:82    0
Name: 32, dtype: object

>  <hydroph_interaction:PHE:83>  (34) 
hydroph_interaction:PHE:83    0
hydroph_interaction:PHE:83    0
Name: 32, dtype: object

>  <hbond:PHE:83>  (34) 
hbond:PHE:83    0
hbond:PHE:83    0
Name: 32, dtype: object

>  <halogenbond:PHE:83>  (34) 
halogenbond:PHE:83    0
halogenbond:PHE:83    0
Name: 32, dtype: object

>  <hydroph_interaction:VAL:84>  (34) 
hydroph_interaction:VAL:84    1
hydroph_interaction:VAL:84    1
Name: 32, dtype: object

>  <hydroph_interaction:GLU:85>  (34) 
hydroph_interaction:GLU:85    0
hydroph_interaction:GLU:85    0
Name: 32, dtype: object

>  <hbond:GLU:85>  (34) 
hbond:GLU:85    0
hbond:GLU:85    0
Name: 32, dtype: object

>  <halogenbond:GLU:85>  (34) 
halogenbond:GLU:85    0
halogenbond:GLU:85    0
Name: 32, dtype: object

>  <halogenbond:ALA:86>  (34) 
halogenbond:ALA:86    0
halogenbond:ALA:86    0
Name: 32, dtype: object

>  <hbond:SER:87>  (34) 
hbond:SER:87    0
hbond:SER:87    0
Name: 32, dtype: object

>  <halogenbond:SER:87>  (34) 
halogenbond:SER:87    0
halogenbond:SER:87    0
Name: 32, dtype: object

>  <hbond:GLU:88>  (34) 
hbond:GLU:88    0
hbond:GLU:88    0
Name: 32, dtype: object

>  <halogenbond:GLU:88>  (34) 
halogenbond:GLU:88    0
halogenbond:GLU:88    0
Name: 32, dtype: object

>  <hydroph_interaction:TYR:89>  (34) 
hydroph_interaction:TYR:89    0
hydroph_interaction:TYR:89    0
Name: 32, dtype: object

>  <pistack:TYR:89>  (34) 
pistack:TYR:89    0
pistack:TYR:89    0
Name: 32, dtype: object

>  <hbond:TYR:89>  (34) 
hbond:TYR:89    0
hbond:TYR:89    0
Name: 32, dtype: object

>  <hbond:TYR:90>  (34) 
hbond:TYR:90    0
hbond:TYR:90    0
Name: 32, dtype: object

>  <hydroph_interaction:TYR:90>  (34) 
hydroph_interaction:TYR:90    1
hydroph_interaction:TYR:90    1
Name: 32, dtype: object

>  <pistack:TYR:90>  (34) 
pistack:TYR:90    0
pistack:TYR:90    0
Name: 32, dtype: object

>  <hbond:ARG:93>  (34) 
hbond:ARG:93    0
hbond:ARG:93    0
Name: 32, dtype: object

>  <saltbridge:ARG:93>  (34) 
saltbridge:ARG:93    0
saltbridge:ARG:93    0
Name: 32, dtype: object

>  <hydroph_interaction:ARG:93>  (34) 
hydroph_interaction:ARG:93    0
hydroph_interaction:ARG:93    0
Name: 32, dtype: object

>  <halogenbond:GLN:95>  (34) 
halogenbond:GLN:95    0
halogenbond:GLN:95    0
Name: 32, dtype: object

>  <hbond:GLN:95>  (34) 
hbond:GLN:95    0
hbond:GLN:95    0
Name: 32, dtype: object

>  <hydroph_interaction:GLN:95>  (34) 
hydroph_interaction:GLN:95    0
hydroph_interaction:GLN:95    0
Name: 32, dtype: object

>  <hydroph_interaction:LEU:98>  (34) 
hydroph_interaction:LEU:98    0
hydroph_interaction:LEU:98    0
Name: 32, dtype: object

>  <hydroph_interaction:LEU:100>  (34) 
hydroph_interaction:LEU:100    0
hydroph_interaction:LEU:100    0
Name: 32, dtype: object

>  <hbond:SER:105>  (34) 
hbond:SER:105    0
hbond:SER:105    0
Name: 32, dtype: object

>  <halogenbond:SER:105>  (34) 
halogenbond:SER:105    0
halogenbond:SER:105    0
Name: 32, dtype: object

>  <hydroph_interaction:PRO:107>  (34) 
hydroph_interaction:PRO:107    0
hydroph_interaction:PRO:107    0
Name: 32, dtype: object

>  <hbond:PRO:107>  (34) 
hbond:PRO:107    0
hbond:PRO:107    0
Name: 32, dtype: object

>  <halogenbond:PRO:107>  (34) 
halogenbond:PRO:107    0
halogenbond:PRO:107    0
Name: 32, dtype: object

>  <hbond:ASP:109>  (34) 
hbond:ASP:109    0
hbond:ASP:109    0
Name: 32, dtype: object

>  <hbond:CYS:110>  (34) 
hbond:CYS:110    0
hbond:CYS:110    0
Name: 32, dtype: object

>  <halogenbond:CYS:110>  (34) 
halogenbond:CYS:110    0
halogenbond:CYS:110    0
Name: 32, dtype: object

>  <hydroph_interaction:VAL:124>  (34) 
hydroph_interaction:VAL:124    0
hydroph_interaction:VAL:124    0
Name: 32, dtype: object

>  <hbond:SER:125>  (34) 
hbond:SER:125    0
hbond:SER:125    0
Name: 32, dtype: object

>  <halogenbond:SER:125>  (34) 
halogenbond:SER:125    0
halogenbond:SER:125    0
Name: 32, dtype: object

>  <hydroph_interaction:THR:126>  (34) 
hydroph_interaction:THR:126    0
hydroph_interaction:THR:126    0
Name: 32, dtype: object

>  <hbond:THR:126>  (34) 
hbond:THR:126    0
hbond:THR:126    0
Name: 32, dtype: object

>  <halogenbond:THR:126>  (34) 
halogenbond:THR:126    0
halogenbond:THR:126    0
Name: 32, dtype: object

>  <hbond:GLY:127>  (34) 
hbond:GLY:127    0
hbond:GLY:127    0
Name: 32, dtype: object

>  <halogenbond:GLY:127>  (34) 
halogenbond:GLY:127    1
halogenbond:GLY:127    1
Name: 32, dtype: object

>  <hbond:GLY:128>  (34) 
hbond:GLY:128    0
hbond:GLY:128    0
Name: 32, dtype: object

>  <hbond:ASN:129>  (34) 
hbond:ASN:129    0
hbond:ASN:129    0
Name: 32, dtype: object

>  <hydroph_interaction:ASN:129>  (34) 
hydroph_interaction:ASN:129    0
hydroph_interaction:ASN:129    0
Name: 32, dtype: object

>  <halogenbond:ASN:129>  (34) 
halogenbond:ASN:129    0
halogenbond:ASN:129    0
Name: 32, dtype: object

>  <hydroph_interaction:LEU:131>  (34) 
hydroph_interaction:LEU:131    0
hydroph_interaction:LEU:131    0
Name: 32, dtype: object

>  <hbond:LEU:131>  (34) 
hbond:LEU:131    0
hbond:LEU:131    0
Name: 32, dtype: object

>  <halogenbond:LEU:131>  (34) 
halogenbond:LEU:131    0
halogenbond:LEU:131    0
Name: 32, dtype: object

>  <hbond:VAL:132>  (34) 
hbond:VAL:132    0
hbond:VAL:132    0
Name: 32, dtype: object

$$$$
PV_003568212715
     RDKit          3D

 24 25  0  0  0  0  0  0  0  0999 V2000
   29.9963    7.8255   10.3307 C   0  0  0  0  0  0  0  0  0  0  0  0
   30.9246    8.2321    9.3921 N   0  0  0  0  0  0  0  0  0  0  0  0
   30.3916    8.7601    8.3134 C   0  0  0  0  0  0  0  0  0  0  0  0
   29.2493    8.5321    8.0163 O   0  0  0  0  0  0  0  0  0  0  0  0
   31.2968    9.5641    7.5343 C   0  0  0  0  0  0  0  0  0  0  0  0
   32.2798    8.9741    6.8435 N   0  0  0  0  0  0  0  0  0  0  0  0
   32.8981    9.9937    6.2465 N   0  0  0  0  0  0  0  0  0  0  0  0
   34.0248    9.7149    5.3960 C   0  0  0  0  0  0  0  0  0  0  0  0
   32.3548   11.2090    6.5329 C   0  0  0  0  0  0  0  0  0  0  0  0
   31.2947   10.9727    7.3744 C   0  0  0  0  0  0  0  0  0  0  0  0
   30.4160   11.8929    7.9335 N   0  0  0  0  0  0  0  0  0  0  0  0
   29.5255   12.6288    7.1815 C   0  0  0  0  0  0  0  0  0  0  0  0
   29.5561   12.7912    5.9713 O   0  0  0  0  0  0  0  0  0  0  0  0
   28.5668   13.2028    7.9518 N   0  0  0  0  0  0  0  0  0  0  0  0
   28.8102   14.5238    8.4745 C   0  0  1  0  0  0  0  0  0  0  0  0
   27.5182   14.9482    9.0964 C   0  0  0  0  0  0  0  0  0  0  0  0
   29.9904   14.5132    9.4676 C   0  0  0  0  0  0  0  0  0  0  0  0
   29.5961   15.0925   10.7416 N   0  0  0  0  0  0  0  0  0  0  0  0
   30.4381   16.0576   11.2662 C   0  0  0  0  0  0  0  0  0  0  0  0
   30.0950   16.6639   12.4695 C   0  0  0  0  0  0  0  0  0  0  0  0
   30.9051   17.6327   13.0434 C   0  0  0  0  0  0  0  0  0  0  0  0
   32.0734   18.0001   12.4060 C   0  0  0  0  0  0  0  0  0  0  0  0
   32.4255   17.4207   11.2066 C   0  0  0  0  0  0  0  0  0  0  0  0
   31.6125   16.4534   10.6446 C   0  0  0  0  0  0  0  0  0  0  0  0
  1  2  1  0
  2  3  1  0
  3  4  2  0
  3  5  1  0
  5  6  2  0
  6  7  1  0
  7  8  1  0
  7  9  1  0
  9 10  2  0
 10 11  1  0
 11 12  1  0
 12 13  2  0
 12 14  1  0
 14 15  1  0
 15 16  1  1
 15 17  1  0
 17 18  1  0
 18 19  1  0
 19 20  2  0
 20 21  1  0
 21 22  2  0
 22 23  1  0
 23 24  2  0
 10  5  1  0
 24 19  1  0
A    1
 C1 
A    2
 N1 
A    3
 C2 
A    4
 O1 
A    5
 C3 
A    6
 N2 
A    7
 N3 
A    8
 C4 
A    9
 C5 
A   10
 C6 
A   11
 N4 
A   12
 C7 
A   13
 O2 
A   14
 N5 
A   15
 C8 
A   16
 C9 
A   17
 C10
A   18
 N6 
A   19
 C11
A   20
 C12
A   21
 C13
A   22
 C14
A   23
 C15
A   24
 C16
M  END
>  <ref_pdb>  (35) 
Ax0310a

>  <ref_mols>  (35) 
Ax0310a,Ax0375a

>  <original SMILES>  (35) 
CNC(=O)c1nn(C)cc1NC(=O)NC(C)CNc1ccccc1

>  <rationale>  (35) 
info hbond:S125+S105+H21+T126+C110; hydroph_interaction:Y89+Y90+V84+Q95+R93; 

>  <intxn_cluster_10>  (35) 
4

>  <intxn_cluster_rank_10>  (35) 
5

>  <N_interactions>  (35) 
12

>  <∆∆G>  (35) 
-11.742339

>  <$/mg>  (35) 
163.0

>  <comRMSD>  (35) 
0.514617

>  <N_rotatable_bonds>  (35) 
9

>  <deep_P1_sidechain>  (35) 
True

>  <farthest_distance_to_substrate>  (35) 
3.774164

>  <hbond:SER:7>  (35) 
hbond:SER:7    0
hbond:SER:7    0
Name: 33, dtype: object

>  <hydroph_interaction:ASN:19>  (35) 
hydroph_interaction:ASN:19    0
hydroph_interaction:ASN:19    0
Name: 33, dtype: object

>  <halogenbond:ASN:19>  (35) 
halogenbond:ASN:19    0
halogenbond:ASN:19    0
Name: 33, dtype: object

>  <hbond:ARG:20>  (35) 
hbond:ARG:20    0
hbond:ARG:20    0
Name: 33, dtype: object

>  <hydroph_interaction:ARG:20>  (35) 
hydroph_interaction:ARG:20    0
hydroph_interaction:ARG:20    0
Name: 33, dtype: object

>  <hbond:HIS:21>  (35) 
hbond:HIS:21    1
hbond:HIS:21    1
Name: 33, dtype: object

>  <hydroph_interaction:HIS:21>  (35) 
hydroph_interaction:HIS:21    0
hydroph_interaction:HIS:21    0
Name: 33, dtype: object

>  <saltbridge:HIS:21>  (35) 
saltbridge:HIS:21    0
saltbridge:HIS:21    0
Name: 33, dtype: object

>  <pistack:HIS:21>  (35) 
pistack:HIS:21    0
pistack:HIS:21    0
Name: 33, dtype: object

>  <pication:HIS:21>  (35) 
pication:HIS:21    0
pication:HIS:21    0
Name: 33, dtype: object

>  <hydroph_interaction:LEU:22>  (35) 
hydroph_interaction:LEU:22    0
hydroph_interaction:LEU:22    0
Name: 33, dtype: object

>  <hbond:SER:36>  (35) 
hbond:SER:36    0
hbond:SER:36    0
Name: 33, dtype: object

>  <hbond:ASP:39>  (35) 
hbond:ASP:39    0
hbond:ASP:39    0
Name: 33, dtype: object

>  <saltbridge:ASP:39>  (35) 
saltbridge:ASP:39    0
saltbridge:ASP:39    0
Name: 33, dtype: object

>  <hydroph_interaction:ASP:39>  (35) 
hydroph_interaction:ASP:39    0
hydroph_interaction:ASP:39    0
Name: 33, dtype: object

>  <halogenbond:ASP:39>  (35) 
halogenbond:ASP:39    0
halogenbond:ASP:39    0
Name: 33, dtype: object

>  <hydroph_interaction:ILE:82>  (35) 
hydroph_interaction:ILE:82    0
hydroph_interaction:ILE:82    0
Name: 33, dtype: object

>  <hydroph_interaction:PHE:83>  (35) 
hydroph_interaction:PHE:83    0
hydroph_interaction:PHE:83    0
Name: 33, dtype: object

>  <hbond:PHE:83>  (35) 
hbond:PHE:83    0
hbond:PHE:83    0
Name: 33, dtype: object

>  <halogenbond:PHE:83>  (35) 
halogenbond:PHE:83    0
halogenbond:PHE:83    0
Name: 33, dtype: object

>  <hydroph_interaction:VAL:84>  (35) 
hydroph_interaction:VAL:84    2
hydroph_interaction:VAL:84    2
Name: 33, dtype: object

>  <hydroph_interaction:GLU:85>  (35) 
hydroph_interaction:GLU:85    0
hydroph_interaction:GLU:85    0
Name: 33, dtype: object

>  <hbond:GLU:85>  (35) 
hbond:GLU:85    0
hbond:GLU:85    0
Name: 33, dtype: object

>  <halogenbond:GLU:85>  (35) 
halogenbond:GLU:85    0
halogenbond:GLU:85    0
Name: 33, dtype: object

>  <halogenbond:ALA:86>  (35) 
halogenbond:ALA:86    0
halogenbond:ALA:86    0
Name: 33, dtype: object

>  <hbond:SER:87>  (35) 
hbond:SER:87    0
hbond:SER:87    0
Name: 33, dtype: object

>  <halogenbond:SER:87>  (35) 
halogenbond:SER:87    0
halogenbond:SER:87    0
Name: 33, dtype: object

>  <hbond:GLU:88>  (35) 
hbond:GLU:88    0
hbond:GLU:88    0
Name: 33, dtype: object

>  <halogenbond:GLU:88>  (35) 
halogenbond:GLU:88    0
halogenbond:GLU:88    0
Name: 33, dtype: object

>  <hydroph_interaction:TYR:89>  (35) 
hydroph_interaction:TYR:89    1
hydroph_interaction:TYR:89    1
Name: 33, dtype: object

>  <pistack:TYR:89>  (35) 
pistack:TYR:89    0
pistack:TYR:89    0
Name: 33, dtype: object

>  <hbond:TYR:89>  (35) 
hbond:TYR:89    0
hbond:TYR:89    0
Name: 33, dtype: object

>  <hbond:TYR:90>  (35) 
hbond:TYR:90    0
hbond:TYR:90    0
Name: 33, dtype: object

>  <hydroph_interaction:TYR:90>  (35) 
hydroph_interaction:TYR:90    2
hydroph_interaction:TYR:90    2
Name: 33, dtype: object

>  <pistack:TYR:90>  (35) 
pistack:TYR:90    0
pistack:TYR:90    0
Name: 33, dtype: object

>  <hbond:ARG:93>  (35) 
hbond:ARG:93    0
hbond:ARG:93    0
Name: 33, dtype: object

>  <saltbridge:ARG:93>  (35) 
saltbridge:ARG:93    0
saltbridge:ARG:93    0
Name: 33, dtype: object

>  <hydroph_interaction:ARG:93>  (35) 
hydroph_interaction:ARG:93    1
hydroph_interaction:ARG:93    1
Name: 33, dtype: object

>  <halogenbond:GLN:95>  (35) 
halogenbond:GLN:95    0
halogenbond:GLN:95    0
Name: 33, dtype: object

>  <hbond:GLN:95>  (35) 
hbond:GLN:95    0
hbond:GLN:95    0
Name: 33, dtype: object

>  <hydroph_interaction:GLN:95>  (35) 
hydroph_interaction:GLN:95    1
hydroph_interaction:GLN:95    1
Name: 33, dtype: object

>  <hydroph_interaction:LEU:98>  (35) 
hydroph_interaction:LEU:98    0
hydroph_interaction:LEU:98    0
Name: 33, dtype: object

>  <hydroph_interaction:LEU:100>  (35) 
hydroph_interaction:LEU:100    0
hydroph_interaction:LEU:100    0
Name: 33, dtype: object

>  <hbond:SER:105>  (35) 
hbond:SER:105    1
hbond:SER:105    1
Name: 33, dtype: object

>  <halogenbond:SER:105>  (35) 
halogenbond:SER:105    0
halogenbond:SER:105    0
Name: 33, dtype: object

>  <hydroph_interaction:PRO:107>  (35) 
hydroph_interaction:PRO:107    0
hydroph_interaction:PRO:107    0
Name: 33, dtype: object

>  <hbond:PRO:107>  (35) 
hbond:PRO:107    0
hbond:PRO:107    0
Name: 33, dtype: object

>  <halogenbond:PRO:107>  (35) 
halogenbond:PRO:107    0
halogenbond:PRO:107    0
Name: 33, dtype: object

>  <hbond:ASP:109>  (35) 
hbond:ASP:109    0
hbond:ASP:109    0
Name: 33, dtype: object

>  <hbond:CYS:110>  (35) 
hbond:CYS:110    1
hbond:CYS:110    1
Name: 33, dtype: object

>  <halogenbond:CYS:110>  (35) 
halogenbond:CYS:110    0
halogenbond:CYS:110    0
Name: 33, dtype: object

>  <hydroph_interaction:VAL:124>  (35) 
hydroph_interaction:VAL:124    0
hydroph_interaction:VAL:124    0
Name: 33, dtype: object

>  <hbond:SER:125>  (35) 
hbond:SER:125    1
hbond:SER:125    1
Name: 33, dtype: object

>  <halogenbond:SER:125>  (35) 
halogenbond:SER:125    0
halogenbond:SER:125    0
Name: 33, dtype: object

>  <hydroph_interaction:THR:126>  (35) 
hydroph_interaction:THR:126    0
hydroph_interaction:THR:126    0
Name: 33, dtype: object

>  <hbond:THR:126>  (35) 
hbond:THR:126    1
hbond:THR:126    1
Name: 33, dtype: object

>  <halogenbond:THR:126>  (35) 
halogenbond:THR:126    0
halogenbond:THR:126    0
Name: 33, dtype: object

>  <hbond:GLY:127>  (35) 
hbond:GLY:127    0
hbond:GLY:127    0
Name: 33, dtype: object

>  <halogenbond:GLY:127>  (35) 
halogenbond:GLY:127    0
halogenbond:GLY:127    0
Name: 33, dtype: object

>  <hbond:GLY:128>  (35) 
hbond:GLY:128    0
hbond:GLY:128    0
Name: 33, dtype: object

>  <hbond:ASN:129>  (35) 
hbond:ASN:129    0
hbond:ASN:129    0
Name: 33, dtype: object

>  <hydroph_interaction:ASN:129>  (35) 
hydroph_interaction:ASN:129    0
hydroph_interaction:ASN:129    0
Name: 33, dtype: object

>  <halogenbond:ASN:129>  (35) 
halogenbond:ASN:129    0
halogenbond:ASN:129    0
Name: 33, dtype: object

>  <hydroph_interaction:LEU:131>  (35) 
hydroph_interaction:LEU:131    0
hydroph_interaction:LEU:131    0
Name: 33, dtype: object

>  <hbond:LEU:131>  (35) 
hbond:LEU:131    0
hbond:LEU:131    0
Name: 33, dtype: object

>  <halogenbond:LEU:131>  (35) 
halogenbond:LEU:131    0
halogenbond:LEU:131    0
Name: 33, dtype: object

>  <hbond:VAL:132>  (35) 
hbond:VAL:132    0
hbond:VAL:132    0
Name: 33, dtype: object

$$$$
Z2775849874
     RDKit          3D

 23 25  0  0  0  0  0  0  0  0999 V2000
   26.1690   18.5987   11.1182 C   0  0  0  0  0  0  0  0  0  0  0  0
   26.6569   17.2527   11.6028 C   0  0  2  0  0  0  0  0  0  0  0  0
   27.4393   17.5713   12.7390 O   0  0  0  0  0  0  0  0  0  0  0  0
   27.5815   16.5501   10.6033 C   0  0  0  0  0  0  0  0  0  0  0  0
   27.0423   15.6818    9.5282 C   0  0  0  0  0  0  0  0  0  0  0  0
   27.9809   15.3862    8.3812 C   0  0  0  0  0  0  0  0  0  0  0  0
   28.9442   14.5670    8.7966 N   0  0  0  0  0  0  0  0  0  0  0  0
   29.1954   13.3028    7.6590 S   0  0  0  0  0  6  0  0  0  0  0  0
   29.3847   13.8930    6.3556 O   0  0  0  0  0  0  0  0  0  0  0  0
   28.1419   12.3690    7.8131 O   0  0  0  0  0  0  0  0  0  0  0  0
   30.7782   12.7448    8.2248 C   0  0  0  0  0  0  0  0  0  0  0  0
   31.1516   11.3337    7.8453 C   0  0  0  0  0  0  0  0  0  0  0  0
   30.5423   10.2312    8.4422 C   0  0  0  0  0  0  0  0  0  0  0  0
   30.9166    8.9599    8.1095 C   0  0  0  0  0  0  0  0  0  0  0  0
   31.9052    8.7901    7.1710 C   0  0  0  0  0  0  0  0  0  0  0  0
   32.5185    9.8625    6.5565 C   0  0  0  0  0  0  0  0  0  0  0  0
   33.5168    9.6822    5.6077 C   0  0  0  0  0  0  0  0  0  0  0  0
   34.1847   10.8807    4.9396 C   0  0  0  0  0  0  0  0  0  0  0  0
   33.6927   12.0865    5.3836 C   0  0  0  0  0  0  0  0  0  0  0  0
   32.7198   12.2476    6.3126 N   0  0  0  0  0  0  0  0  0  0  0  0
   32.1454   11.1677    6.8855 C   0  0  0  0  0  0  0  0  0  0  0  0
   28.9748   14.3709   10.2975 C   0  0  0  0  0  0  0  0  0  0  0  0
   28.6498   15.6035   11.2093 C   0  0  0  0  0  0  0  0  0  0  0  0
  2  1  1  6
  2  3  1  0
  2  4  1  0
  4  5  1  0
  5  6  1  0
  6  7  1  0
  7  8  1  0
  8  9  2  0
  8 10  2  0
  8 11  1  0
 11 12  1  0
 12 13  2  0
 13 14  1  0
 14 15  2  0
 15 16  1  0
 16 17  2  0
 17 18  1  0
 18 19  2  0
 19 20  1  0
 20 21  2  0
  7 22  1  0
 22 23  1  0
 23  4  1  0
 21 12  1  0
 21 16  1  0
A    1
 C1 
A    2
 C2 
A    3
 O1 
A    4
 C3 
A    5
 C4 
A    6
 C5 
A    7
 N1 
A    8
 S1 
A    9
 O2 
A   10
 O3 
A   11
 C6 
A   12
 C7 
A   13
 C8 
A   14
 C9 
A   15
 C10
A   16
 C11
A   17
 C12
A   18
 C13
A   19
 C14
A   20
 N2 
A   21
 C15
A   22
 C16
A   23
 C17
M  END
>  <ref_pdb>  (36) 
Ax0310a

>  <ref_mols>  (36) 
Ax0451a,Ax0554a

>  <original SMILES>  (36) 
C[C@H](O)C1CCN(S(=O)(=O)Cc2cccc3cccnc23)CC1

>  <rationale>  (36) 
info hbond:G127+S87+S36; hydroph_interaction:Y89+Y90+D39; pication:H21; saltbridge:D39; 

>  <intxn_cluster_10>  (36) 
1

>  <intxn_cluster_rank_10>  (36) 
5

>  <N_interactions>  (36) 
9

>  <∆∆G>  (36) 
-3.887146

>  <$/mg>  (36) 
0.0

>  <comRMSD>  (36) 
0.655134

>  <N_rotatable_bonds>  (36) 
6

>  <deep_P1_sidechain>  (36) 
False

>  <farthest_distance_to_substrate>  (36) 
2.601649

>  <hbond:SER:7>  (36) 
hbond:SER:7    0
hbond:SER:7    0
Name: 34, dtype: object

>  <hydroph_interaction:ASN:19>  (36) 
hydroph_interaction:ASN:19    0
hydroph_interaction:ASN:19    0
Name: 34, dtype: object

>  <halogenbond:ASN:19>  (36) 
halogenbond:ASN:19    0
halogenbond:ASN:19    0
Name: 34, dtype: object

>  <hbond:ARG:20>  (36) 
hbond:ARG:20    0
hbond:ARG:20    0
Name: 34, dtype: object

>  <hydroph_interaction:ARG:20>  (36) 
hydroph_interaction:ARG:20    0
hydroph_interaction:ARG:20    0
Name: 34, dtype: object

>  <hbond:HIS:21>  (36) 
hbond:HIS:21    0
hbond:HIS:21    0
Name: 34, dtype: object

>  <hydroph_interaction:HIS:21>  (36) 
hydroph_interaction:HIS:21    0
hydroph_interaction:HIS:21    0
Name: 34, dtype: object

>  <saltbridge:HIS:21>  (36) 
saltbridge:HIS:21    0
saltbridge:HIS:21    0
Name: 34, dtype: object

>  <pistack:HIS:21>  (36) 
pistack:HIS:21    0
pistack:HIS:21    0
Name: 34, dtype: object

>  <pication:HIS:21>  (36) 
pication:HIS:21    1
pication:HIS:21    1
Name: 34, dtype: object

>  <hydroph_interaction:LEU:22>  (36) 
hydroph_interaction:LEU:22    0
hydroph_interaction:LEU:22    0
Name: 34, dtype: object

>  <hbond:SER:36>  (36) 
hbond:SER:36    1
hbond:SER:36    1
Name: 34, dtype: object

>  <hbond:ASP:39>  (36) 
hbond:ASP:39    0
hbond:ASP:39    0
Name: 34, dtype: object

>  <saltbridge:ASP:39>  (36) 
saltbridge:ASP:39    1
saltbridge:ASP:39    1
Name: 34, dtype: object

>  <hydroph_interaction:ASP:39>  (36) 
hydroph_interaction:ASP:39    1
hydroph_interaction:ASP:39    1
Name: 34, dtype: object

>  <halogenbond:ASP:39>  (36) 
halogenbond:ASP:39    0
halogenbond:ASP:39    0
Name: 34, dtype: object

>  <hydroph_interaction:ILE:82>  (36) 
hydroph_interaction:ILE:82    0
hydroph_interaction:ILE:82    0
Name: 34, dtype: object

>  <hydroph_interaction:PHE:83>  (36) 
hydroph_interaction:PHE:83    0
hydroph_interaction:PHE:83    0
Name: 34, dtype: object

>  <hbond:PHE:83>  (36) 
hbond:PHE:83    0
hbond:PHE:83    0
Name: 34, dtype: object

>  <halogenbond:PHE:83>  (36) 
halogenbond:PHE:83    0
halogenbond:PHE:83    0
Name: 34, dtype: object

>  <hydroph_interaction:VAL:84>  (36) 
hydroph_interaction:VAL:84    0
hydroph_interaction:VAL:84    0
Name: 34, dtype: object

>  <hydroph_interaction:GLU:85>  (36) 
hydroph_interaction:GLU:85    0
hydroph_interaction:GLU:85    0
Name: 34, dtype: object

>  <hbond:GLU:85>  (36) 
hbond:GLU:85    0
hbond:GLU:85    0
Name: 34, dtype: object

>  <halogenbond:GLU:85>  (36) 
halogenbond:GLU:85    0
halogenbond:GLU:85    0
Name: 34, dtype: object

>  <halogenbond:ALA:86>  (36) 
halogenbond:ALA:86    0
halogenbond:ALA:86    0
Name: 34, dtype: object

>  <hbond:SER:87>  (36) 
hbond:SER:87    1
hbond:SER:87    1
Name: 34, dtype: object

>  <halogenbond:SER:87>  (36) 
halogenbond:SER:87    0
halogenbond:SER:87    0
Name: 34, dtype: object

>  <hbond:GLU:88>  (36) 
hbond:GLU:88    0
hbond:GLU:88    0
Name: 34, dtype: object

>  <halogenbond:GLU:88>  (36) 
halogenbond:GLU:88    0
halogenbond:GLU:88    0
Name: 34, dtype: object

>  <hydroph_interaction:TYR:89>  (36) 
hydroph_interaction:TYR:89    1
hydroph_interaction:TYR:89    1
Name: 34, dtype: object

>  <pistack:TYR:89>  (36) 
pistack:TYR:89    0
pistack:TYR:89    0
Name: 34, dtype: object

>  <hbond:TYR:89>  (36) 
hbond:TYR:89    0
hbond:TYR:89    0
Name: 34, dtype: object

>  <hbond:TYR:90>  (36) 
hbond:TYR:90    0
hbond:TYR:90    0
Name: 34, dtype: object

>  <hydroph_interaction:TYR:90>  (36) 
hydroph_interaction:TYR:90    2
hydroph_interaction:TYR:90    2
Name: 34, dtype: object

>  <pistack:TYR:90>  (36) 
pistack:TYR:90    0
pistack:TYR:90    0
Name: 34, dtype: object

>  <hbond:ARG:93>  (36) 
hbond:ARG:93    0
hbond:ARG:93    0
Name: 34, dtype: object

>  <saltbridge:ARG:93>  (36) 
saltbridge:ARG:93    0
saltbridge:ARG:93    0
Name: 34, dtype: object

>  <hydroph_interaction:ARG:93>  (36) 
hydroph_interaction:ARG:93    0
hydroph_interaction:ARG:93    0
Name: 34, dtype: object

>  <halogenbond:GLN:95>  (36) 
halogenbond:GLN:95    0
halogenbond:GLN:95    0
Name: 34, dtype: object

>  <hbond:GLN:95>  (36) 
hbond:GLN:95    0
hbond:GLN:95    0
Name: 34, dtype: object

>  <hydroph_interaction:GLN:95>  (36) 
hydroph_interaction:GLN:95    0
hydroph_interaction:GLN:95    0
Name: 34, dtype: object

>  <hydroph_interaction:LEU:98>  (36) 
hydroph_interaction:LEU:98    0
hydroph_interaction:LEU:98    0
Name: 34, dtype: object

>  <hydroph_interaction:LEU:100>  (36) 
hydroph_interaction:LEU:100    0
hydroph_interaction:LEU:100    0
Name: 34, dtype: object

>  <hbond:SER:105>  (36) 
hbond:SER:105    0
hbond:SER:105    0
Name: 34, dtype: object

>  <halogenbond:SER:105>  (36) 
halogenbond:SER:105    0
halogenbond:SER:105    0
Name: 34, dtype: object

>  <hydroph_interaction:PRO:107>  (36) 
hydroph_interaction:PRO:107    0
hydroph_interaction:PRO:107    0
Name: 34, dtype: object

>  <hbond:PRO:107>  (36) 
hbond:PRO:107    0
hbond:PRO:107    0
Name: 34, dtype: object

>  <halogenbond:PRO:107>  (36) 
halogenbond:PRO:107    0
halogenbond:PRO:107    0
Name: 34, dtype: object

>  <hbond:ASP:109>  (36) 
hbond:ASP:109    0
hbond:ASP:109    0
Name: 34, dtype: object

>  <hbond:CYS:110>  (36) 
hbond:CYS:110    0
hbond:CYS:110    0
Name: 34, dtype: object

>  <halogenbond:CYS:110>  (36) 
halogenbond:CYS:110    0
halogenbond:CYS:110    0
Name: 34, dtype: object

>  <hydroph_interaction:VAL:124>  (36) 
hydroph_interaction:VAL:124    0
hydroph_interaction:VAL:124    0
Name: 34, dtype: object

>  <hbond:SER:125>  (36) 
hbond:SER:125    0
hbond:SER:125    0
Name: 34, dtype: object

>  <halogenbond:SER:125>  (36) 
halogenbond:SER:125    0
halogenbond:SER:125    0
Name: 34, dtype: object

>  <hydroph_interaction:THR:126>  (36) 
hydroph_interaction:THR:126    0
hydroph_interaction:THR:126    0
Name: 34, dtype: object

>  <hbond:THR:126>  (36) 
hbond:THR:126    0
hbond:THR:126    0
Name: 34, dtype: object

>  <halogenbond:THR:126>  (36) 
halogenbond:THR:126    0
halogenbond:THR:126    0
Name: 34, dtype: object

>  <hbond:GLY:127>  (36) 
hbond:GLY:127    1
hbond:GLY:127    1
Name: 34, dtype: object

>  <halogenbond:GLY:127>  (36) 
halogenbond:GLY:127    0
halogenbond:GLY:127    0
Name: 34, dtype: object

>  <hbond:GLY:128>  (36) 
hbond:GLY:128    0
hbond:GLY:128    0
Name: 34, dtype: object

>  <hbond:ASN:129>  (36) 
hbond:ASN:129    0
hbond:ASN:129    0
Name: 34, dtype: object

>  <hydroph_interaction:ASN:129>  (36) 
hydroph_interaction:ASN:129    0
hydroph_interaction:ASN:129    0
Name: 34, dtype: object

>  <halogenbond:ASN:129>  (36) 
halogenbond:ASN:129    0
halogenbond:ASN:129    0
Name: 34, dtype: object

>  <hydroph_interaction:LEU:131>  (36) 
hydroph_interaction:LEU:131    0
hydroph_interaction:LEU:131    0
Name: 34, dtype: object

>  <hbond:LEU:131>  (36) 
hbond:LEU:131    0
hbond:LEU:131    0
Name: 34, dtype: object

>  <halogenbond:LEU:131>  (36) 
halogenbond:LEU:131    0
halogenbond:LEU:131    0
Name: 34, dtype: object

>  <hbond:VAL:132>  (36) 
hbond:VAL:132    0
hbond:VAL:132    0
Name: 34, dtype: object

$$$$
Z2450144222
     RDKit          3D

 18 18  0  0  0  0  0  0  0  0999 V2000
   28.1865   14.1757   10.1807 C   0  0  0  0  0  0  0  0  0  0  0  0
   28.8646   14.3618    8.8322 C   0  0  0  0  0  0  0  0  0  0  0  0
   30.1959   13.7255    8.7420 N   0  0  0  0  0  0  0  0  0  0  0  0
   30.4098   13.1633    7.3972 C   0  0  0  0  0  0  0  0  0  0  0  0
   30.9995   11.7470    7.3163 C   0  0  0  0  0  0  0  0  0  0  0  0
   32.0679   11.4906    6.4443 C   0  0  0  0  0  0  0  0  0  0  0  0
   32.6019   10.2201    6.3369 C   0  0  0  0  0  0  0  0  0  0  0  0
   32.0760    9.1934    7.0959 C   0  0  0  0  0  0  0  0  0  0  0  0
   31.0330    9.4335    7.9567 C   0  0  0  0  0  0  0  0  0  0  0  0
   30.5072    8.3005    8.7355 C   0  0  0  0  0  0  0  0  0  0  0  0
   29.3130    7.8187    8.3622 N   0  0  0  0  0  0  0  0  0  0  0  0
   31.0948    7.8075    9.6603 O   0  0  0  0  0  0  0  0  0  0  0  0
   30.4943   10.7129    8.0725 C   0  0  0  0  0  0  0  0  0  0  0  0
   31.2496   14.3560    9.4507 C   0  0  0  0  0  0  0  0  0  0  0  0
   32.3219   13.7988    9.6468 O   0  0  0  0  0  0  0  0  0  0  0  0
   31.0826   15.7797    9.9327 C   0  0  0  0  0  0  0  0  0  0  0  0
   31.0326   15.7347   11.4196 C   0  0  0  0  0  0  0  0  0  0  0  0
   31.3107   17.0481   11.9987 N   0  0  0  0  0  0  0  0  0  0  0  0
  1  2  1  0
  2  3  1  0
  3  4  1  0
  4  5  1  0
  5  6  2  0
  6  7  1  0
  7  8  2  0
  8  9  1  0
  9 10  1  0
 10 11  1  0
 10 12  2  0
  9 13  2  0
  3 14  1  0
 14 15  2  0
 14 16  1  0
 16 17  1  0
 17 18  1  0
 13  5  1  0
A    1
 C1 
A    2
 C2 
A    3
 N1 
A    4
 C3 
A    5
 C4 
A    6
 C5 
A    7
 C6 
A    8
 C7 
A    9
 C8 
A   10
 C9 
A   11
 N2 
A   12
 O1 
A   13
 C10
A   14
 C11
A   15
 O2 
A   16
 C12
A   17
 C13
A   18
 N3 
M  END
>  <ref_pdb>  (37) 
Ax0310a

>  <ref_mols>  (37) 
Ax0554a,Ax0451a

>  <original SMILES>  (37) 
CCN(Cc1cccc(C(N)=O)c1)C(=O)CCN

>  <rationale>  (37) 
info hbond:D109+G127+S105+S87+P107+R93+Q95; hydroph_interaction:P107+Y90; 

>  <intxn_cluster_10>  (37) 
5

>  <intxn_cluster_rank_10>  (37) 
6

>  <N_interactions>  (37) 
10

>  <∆∆G>  (37) 
-7.94617

>  <$/mg>  (37) 
163.0

>  <comRMSD>  (37) 
0.580932

>  <N_rotatable_bonds>  (37) 
8

>  <deep_P1_sidechain>  (37) 
True

>  <farthest_distance_to_substrate>  (37) 
3.408869

>  <hbond:SER:7>  (37) 
hbond:SER:7    0
hbond:SER:7    0
Name: 35, dtype: object

>  <hydroph_interaction:ASN:19>  (37) 
hydroph_interaction:ASN:19    0
hydroph_interaction:ASN:19    0
Name: 35, dtype: object

>  <halogenbond:ASN:19>  (37) 
halogenbond:ASN:19    0
halogenbond:ASN:19    0
Name: 35, dtype: object

>  <hbond:ARG:20>  (37) 
hbond:ARG:20    0
hbond:ARG:20    0
Name: 35, dtype: object

>  <hydroph_interaction:ARG:20>  (37) 
hydroph_interaction:ARG:20    0
hydroph_interaction:ARG:20    0
Name: 35, dtype: object

>  <hbond:HIS:21>  (37) 
hbond:HIS:21    0
hbond:HIS:21    0
Name: 35, dtype: object

>  <hydroph_interaction:HIS:21>  (37) 
hydroph_interaction:HIS:21    0
hydroph_interaction:HIS:21    0
Name: 35, dtype: object

>  <saltbridge:HIS:21>  (37) 
saltbridge:HIS:21    0
saltbridge:HIS:21    0
Name: 35, dtype: object

>  <pistack:HIS:21>  (37) 
pistack:HIS:21    0
pistack:HIS:21    0
Name: 35, dtype: object

>  <pication:HIS:21>  (37) 
pication:HIS:21    0
pication:HIS:21    0
Name: 35, dtype: object

>  <hydroph_interaction:LEU:22>  (37) 
hydroph_interaction:LEU:22    0
hydroph_interaction:LEU:22    0
Name: 35, dtype: object

>  <hbond:SER:36>  (37) 
hbond:SER:36    0
hbond:SER:36    0
Name: 35, dtype: object

>  <hbond:ASP:39>  (37) 
hbond:ASP:39    0
hbond:ASP:39    0
Name: 35, dtype: object

>  <saltbridge:ASP:39>  (37) 
saltbridge:ASP:39    0
saltbridge:ASP:39    0
Name: 35, dtype: object

>  <hydroph_interaction:ASP:39>  (37) 
hydroph_interaction:ASP:39    0
hydroph_interaction:ASP:39    0
Name: 35, dtype: object

>  <halogenbond:ASP:39>  (37) 
halogenbond:ASP:39    0
halogenbond:ASP:39    0
Name: 35, dtype: object

>  <hydroph_interaction:ILE:82>  (37) 
hydroph_interaction:ILE:82    0
hydroph_interaction:ILE:82    0
Name: 35, dtype: object

>  <hydroph_interaction:PHE:83>  (37) 
hydroph_interaction:PHE:83    0
hydroph_interaction:PHE:83    0
Name: 35, dtype: object

>  <hbond:PHE:83>  (37) 
hbond:PHE:83    0
hbond:PHE:83    0
Name: 35, dtype: object

>  <halogenbond:PHE:83>  (37) 
halogenbond:PHE:83    0
halogenbond:PHE:83    0
Name: 35, dtype: object

>  <hydroph_interaction:VAL:84>  (37) 
hydroph_interaction:VAL:84    0
hydroph_interaction:VAL:84    0
Name: 35, dtype: object

>  <hydroph_interaction:GLU:85>  (37) 
hydroph_interaction:GLU:85    0
hydroph_interaction:GLU:85    0
Name: 35, dtype: object

>  <hbond:GLU:85>  (37) 
hbond:GLU:85    0
hbond:GLU:85    0
Name: 35, dtype: object

>  <halogenbond:GLU:85>  (37) 
halogenbond:GLU:85    0
halogenbond:GLU:85    0
Name: 35, dtype: object

>  <halogenbond:ALA:86>  (37) 
halogenbond:ALA:86    0
halogenbond:ALA:86    0
Name: 35, dtype: object

>  <hbond:SER:87>  (37) 
hbond:SER:87    1
hbond:SER:87    1
Name: 35, dtype: object

>  <halogenbond:SER:87>  (37) 
halogenbond:SER:87    0
halogenbond:SER:87    0
Name: 35, dtype: object

>  <hbond:GLU:88>  (37) 
hbond:GLU:88    0
hbond:GLU:88    0
Name: 35, dtype: object

>  <halogenbond:GLU:88>  (37) 
halogenbond:GLU:88    0
halogenbond:GLU:88    0
Name: 35, dtype: object

>  <hydroph_interaction:TYR:89>  (37) 
hydroph_interaction:TYR:89    0
hydroph_interaction:TYR:89    0
Name: 35, dtype: object

>  <pistack:TYR:89>  (37) 
pistack:TYR:89    0
pistack:TYR:89    0
Name: 35, dtype: object

>  <hbond:TYR:89>  (37) 
hbond:TYR:89    0
hbond:TYR:89    0
Name: 35, dtype: object

>  <hbond:TYR:90>  (37) 
hbond:TYR:90    0
hbond:TYR:90    0
Name: 35, dtype: object

>  <hydroph_interaction:TYR:90>  (37) 
hydroph_interaction:TYR:90    2
hydroph_interaction:TYR:90    2
Name: 35, dtype: object

>  <pistack:TYR:90>  (37) 
pistack:TYR:90    0
pistack:TYR:90    0
Name: 35, dtype: object

>  <hbond:ARG:93>  (37) 
hbond:ARG:93    1
hbond:ARG:93    1
Name: 35, dtype: object

>  <saltbridge:ARG:93>  (37) 
saltbridge:ARG:93    0
saltbridge:ARG:93    0
Name: 35, dtype: object

>  <hydroph_interaction:ARG:93>  (37) 
hydroph_interaction:ARG:93    0
hydroph_interaction:ARG:93    0
Name: 35, dtype: object

>  <halogenbond:GLN:95>  (37) 
halogenbond:GLN:95    0
halogenbond:GLN:95    0
Name: 35, dtype: object

>  <hbond:GLN:95>  (37) 
hbond:GLN:95    1
hbond:GLN:95    1
Name: 35, dtype: object

>  <hydroph_interaction:GLN:95>  (37) 
hydroph_interaction:GLN:95    0
hydroph_interaction:GLN:95    0
Name: 35, dtype: object

>  <hydroph_interaction:LEU:98>  (37) 
hydroph_interaction:LEU:98    0
hydroph_interaction:LEU:98    0
Name: 35, dtype: object

>  <hydroph_interaction:LEU:100>  (37) 
hydroph_interaction:LEU:100    0
hydroph_interaction:LEU:100    0
Name: 35, dtype: object

>  <hbond:SER:105>  (37) 
hbond:SER:105    1
hbond:SER:105    1
Name: 35, dtype: object

>  <halogenbond:SER:105>  (37) 
halogenbond:SER:105    0
halogenbond:SER:105    0
Name: 35, dtype: object

>  <hydroph_interaction:PRO:107>  (37) 
hydroph_interaction:PRO:107    1
hydroph_interaction:PRO:107    1
Name: 35, dtype: object

>  <hbond:PRO:107>  (37) 
hbond:PRO:107    1
hbond:PRO:107    1
Name: 35, dtype: object

>  <halogenbond:PRO:107>  (37) 
halogenbond:PRO:107    0
halogenbond:PRO:107    0
Name: 35, dtype: object

>  <hbond:ASP:109>  (37) 
hbond:ASP:109    1
hbond:ASP:109    1
Name: 35, dtype: object

>  <hbond:CYS:110>  (37) 
hbond:CYS:110    0
hbond:CYS:110    0
Name: 35, dtype: object

>  <halogenbond:CYS:110>  (37) 
halogenbond:CYS:110    0
halogenbond:CYS:110    0
Name: 35, dtype: object

>  <hydroph_interaction:VAL:124>  (37) 
hydroph_interaction:VAL:124    0
hydroph_interaction:VAL:124    0
Name: 35, dtype: object

>  <hbond:SER:125>  (37) 
hbond:SER:125    0
hbond:SER:125    0
Name: 35, dtype: object

>  <halogenbond:SER:125>  (37) 
halogenbond:SER:125    0
halogenbond:SER:125    0
Name: 35, dtype: object

>  <hydroph_interaction:THR:126>  (37) 
hydroph_interaction:THR:126    0
hydroph_interaction:THR:126    0
Name: 35, dtype: object

>  <hbond:THR:126>  (37) 
hbond:THR:126    0
hbond:THR:126    0
Name: 35, dtype: object

>  <halogenbond:THR:126>  (37) 
halogenbond:THR:126    0
halogenbond:THR:126    0
Name: 35, dtype: object

>  <hbond:GLY:127>  (37) 
hbond:GLY:127    1
hbond:GLY:127    1
Name: 35, dtype: object

>  <halogenbond:GLY:127>  (37) 
halogenbond:GLY:127    0
halogenbond:GLY:127    0
Name: 35, dtype: object

>  <hbond:GLY:128>  (37) 
hbond:GLY:128    0
hbond:GLY:128    0
Name: 35, dtype: object

>  <hbond:ASN:129>  (37) 
hbond:ASN:129    0
hbond:ASN:129    0
Name: 35, dtype: object

>  <hydroph_interaction:ASN:129>  (37) 
hydroph_interaction:ASN:129    0
hydroph_interaction:ASN:129    0
Name: 35, dtype: object

>  <halogenbond:ASN:129>  (37) 
halogenbond:ASN:129    0
halogenbond:ASN:129    0
Name: 35, dtype: object

>  <hydroph_interaction:LEU:131>  (37) 
hydroph_interaction:LEU:131    0
hydroph_interaction:LEU:131    0
Name: 35, dtype: object

>  <hbond:LEU:131>  (37) 
hbond:LEU:131    0
hbond:LEU:131    0
Name: 35, dtype: object

>  <halogenbond:LEU:131>  (37) 
halogenbond:LEU:131    0
halogenbond:LEU:131    0
Name: 35, dtype: object

>  <hbond:VAL:132>  (37) 
hbond:VAL:132    0
hbond:VAL:132    0
Name: 35, dtype: object

$$$$
PV_004088162110
     RDKit          3D

 25 26  0  0  0  0  0  0  0  0999 V2000
   37.4996   12.8329   13.2087 C   0  0  0  0  0  0  0  0  0  0  0  0
   38.5909   13.4157   12.4752 N   0  0  0  0  0  0  0  0  0  0  0  0
   39.4466   12.6499   11.7167 C   0  0  0  0  0  0  0  0  0  0  0  0
   40.6631   12.6238   11.8505 O   0  0  0  0  0  0  0  0  0  0  0  0
   38.7663   11.9003   10.7830 N   0  0  0  0  0  0  0  0  0  0  0  0
   39.0287   12.0115    9.3504 C   0  0  0  0  0  0  0  0  0  0  0  0
   38.6689   13.4115    8.8372 C   0  0  0  0  0  0  0  0  0  0  0  0
   38.8169   14.3490    9.6274 O   0  0  0  0  0  0  0  0  0  0  0  0
   38.1867   13.4711    7.5018 N   0  0  0  0  0  0  0  0  0  0  0  0
   36.7949   13.5137    7.2230 C   0  0  0  0  0  0  0  0  0  0  0  0
   35.9588   14.2445    8.0403 C   0  0  0  0  0  0  0  0  0  0  0  0
   34.5992   14.2966    7.8358 C   0  0  0  0  0  0  0  0  0  0  0  0
   34.0250   13.5949    6.7975 C   0  0  0  0  0  0  0  0  0  0  0  0
   34.8111   12.8340    5.9425 C   0  0  0  0  0  0  0  0  0  0  0  0
   34.2483   12.0625    4.9086 N   0  0  0  0  0  0  0  0  0  0  0  0
   33.6983   10.8089    5.1997 C   0  0  0  0  0  0  0  0  0  0  0  0
   33.8496    9.7740    4.5607 O   0  0  0  0  0  0  0  0  0  0  0  0
   32.8357   10.8314    6.4755 C   0  0  1  0  0  0  0  0  0  0  0  0
   31.8975   12.0097    6.4337 C   0  0  0  0  0  0  0  0  0  0  0  0
   31.4541   12.3959    7.7847 C   0  0  0  0  0  0  0  0  0  0  0  0
   30.2794   11.1509    8.3145 S   0  0  0  0  0  0  0  0  0  0  0  0
   30.9325    9.5239    7.8069 C   0  0  2  0  0  0  0  0  0  0  0  0
   30.8757    8.6011    8.9834 C   0  0  0  0  0  0  0  0  0  0  0  0
   32.1475    9.4970    6.8330 C   0  0  0  0  0  0  0  0  0  0  0  0
   36.2165   12.8057    6.1359 C   0  0  0  0  0  0  0  0  0  0  0  0
  1  2  1  0
  2  3  1  0
  3  4  2  0
  3  5  1  0
  5  6  1  0
  6  7  1  0
  7  8  2  0
  7  9  1  0
  9 10  1  0
 10 11  2  0
 11 12  1  0
 12 13  2  0
 13 14  1  0
 14 15  1  0
 15 16  1  0
 16 17  2  0
 18 16  1  6
 18 19  1  0
 19 20  1  0
 20 21  1  0
 21 22  1  0
 22 23  1  1
 22 24  1  0
 14 25  2  0
 25 10  1  0
 24 18  1  0
A    1
 C1 
A    2
 N1 
A    3
 C2 
A    4
 O1 
A    5
 N2 
A    6
 C3 
A    7
 C4 
A    8
 O2 
A    9
 N3 
A   10
 C5 
A   11
 C6 
A   12
 C7 
A   13
 C8 
A   14
 C9 
A   15
 N4 
A   16
 C10
A   17
 O3 
A   18
 C11
A   19
 C12
A   20
 C13
A   21
 S1 
A   22
 C14
A   23
 C15
A   24
 C16
A   25
 C17
M  END
>  <ref_pdb>  (38) 
Ax0310a

>  <ref_mols>  (38) 
Ax0554a,Ax0739a

>  <original SMILES>  (38) 
CNC(=O)NCC(=O)Nc1cccc(NC(=O)C2CCSC(C)C2)c1

>  <rationale>  (38) 
info hbond:G127+E85+F83; hydroph_interaction:P107+V124+V84+E85; 

>  <intxn_cluster_10>  (38) 
4

>  <intxn_cluster_rank_10>  (38) 
3

>  <N_interactions>  (38) 
8

>  <∆∆G>  (38) 
-7.37463

>  <$/mg>  (38) 
244.5

>  <comRMSD>  (38) 
0.976309

>  <N_rotatable_bonds>  (38) 
7

>  <deep_P1_sidechain>  (38) 
True

>  <farthest_distance_to_substrate>  (38) 
3.584839

>  <hbond:SER:7>  (38) 
hbond:SER:7    0
hbond:SER:7    0
Name: 36, dtype: object

>  <hydroph_interaction:ASN:19>  (38) 
hydroph_interaction:ASN:19    0
hydroph_interaction:ASN:19    0
Name: 36, dtype: object

>  <halogenbond:ASN:19>  (38) 
halogenbond:ASN:19    0
halogenbond:ASN:19    0
Name: 36, dtype: object

>  <hbond:ARG:20>  (38) 
hbond:ARG:20    0
hbond:ARG:20    0
Name: 36, dtype: object

>  <hydroph_interaction:ARG:20>  (38) 
hydroph_interaction:ARG:20    0
hydroph_interaction:ARG:20    0
Name: 36, dtype: object

>  <hbond:HIS:21>  (38) 
hbond:HIS:21    0
hbond:HIS:21    0
Name: 36, dtype: object

>  <hydroph_interaction:HIS:21>  (38) 
hydroph_interaction:HIS:21    0
hydroph_interaction:HIS:21    0
Name: 36, dtype: object

>  <saltbridge:HIS:21>  (38) 
saltbridge:HIS:21    0
saltbridge:HIS:21    0
Name: 36, dtype: object

>  <pistack:HIS:21>  (38) 
pistack:HIS:21    0
pistack:HIS:21    0
Name: 36, dtype: object

>  <pication:HIS:21>  (38) 
pication:HIS:21    0
pication:HIS:21    0
Name: 36, dtype: object

>  <hydroph_interaction:LEU:22>  (38) 
hydroph_interaction:LEU:22    0
hydroph_interaction:LEU:22    0
Name: 36, dtype: object

>  <hbond:SER:36>  (38) 
hbond:SER:36    0
hbond:SER:36    0
Name: 36, dtype: object

>  <hbond:ASP:39>  (38) 
hbond:ASP:39    0
hbond:ASP:39    0
Name: 36, dtype: object

>  <saltbridge:ASP:39>  (38) 
saltbridge:ASP:39    0
saltbridge:ASP:39    0
Name: 36, dtype: object

>  <hydroph_interaction:ASP:39>  (38) 
hydroph_interaction:ASP:39    0
hydroph_interaction:ASP:39    0
Name: 36, dtype: object

>  <halogenbond:ASP:39>  (38) 
halogenbond:ASP:39    0
halogenbond:ASP:39    0
Name: 36, dtype: object

>  <hydroph_interaction:ILE:82>  (38) 
hydroph_interaction:ILE:82    0
hydroph_interaction:ILE:82    0
Name: 36, dtype: object

>  <hydroph_interaction:PHE:83>  (38) 
hydroph_interaction:PHE:83    0
hydroph_interaction:PHE:83    0
Name: 36, dtype: object

>  <hbond:PHE:83>  (38) 
hbond:PHE:83    1
hbond:PHE:83    1
Name: 36, dtype: object

>  <halogenbond:PHE:83>  (38) 
halogenbond:PHE:83    0
halogenbond:PHE:83    0
Name: 36, dtype: object

>  <hydroph_interaction:VAL:84>  (38) 
hydroph_interaction:VAL:84    1
hydroph_interaction:VAL:84    1
Name: 36, dtype: object

>  <hydroph_interaction:GLU:85>  (38) 
hydroph_interaction:GLU:85    1
hydroph_interaction:GLU:85    1
Name: 36, dtype: object

>  <hbond:GLU:85>  (38) 
hbond:GLU:85    2
hbond:GLU:85    2
Name: 36, dtype: object

>  <halogenbond:GLU:85>  (38) 
halogenbond:GLU:85    0
halogenbond:GLU:85    0
Name: 36, dtype: object

>  <halogenbond:ALA:86>  (38) 
halogenbond:ALA:86    0
halogenbond:ALA:86    0
Name: 36, dtype: object

>  <hbond:SER:87>  (38) 
hbond:SER:87    0
hbond:SER:87    0
Name: 36, dtype: object

>  <halogenbond:SER:87>  (38) 
halogenbond:SER:87    0
halogenbond:SER:87    0
Name: 36, dtype: object

>  <hbond:GLU:88>  (38) 
hbond:GLU:88    0
hbond:GLU:88    0
Name: 36, dtype: object

>  <halogenbond:GLU:88>  (38) 
halogenbond:GLU:88    0
halogenbond:GLU:88    0
Name: 36, dtype: object

>  <hydroph_interaction:TYR:89>  (38) 
hydroph_interaction:TYR:89    0
hydroph_interaction:TYR:89    0
Name: 36, dtype: object

>  <pistack:TYR:89>  (38) 
pistack:TYR:89    0
pistack:TYR:89    0
Name: 36, dtype: object

>  <hbond:TYR:89>  (38) 
hbond:TYR:89    0
hbond:TYR:89    0
Name: 36, dtype: object

>  <hbond:TYR:90>  (38) 
hbond:TYR:90    0
hbond:TYR:90    0
Name: 36, dtype: object

>  <hydroph_interaction:TYR:90>  (38) 
hydroph_interaction:TYR:90    0
hydroph_interaction:TYR:90    0
Name: 36, dtype: object

>  <pistack:TYR:90>  (38) 
pistack:TYR:90    0
pistack:TYR:90    0
Name: 36, dtype: object

>  <hbond:ARG:93>  (38) 
hbond:ARG:93    0
hbond:ARG:93    0
Name: 36, dtype: object

>  <saltbridge:ARG:93>  (38) 
saltbridge:ARG:93    0
saltbridge:ARG:93    0
Name: 36, dtype: object

>  <hydroph_interaction:ARG:93>  (38) 
hydroph_interaction:ARG:93    0
hydroph_interaction:ARG:93    0
Name: 36, dtype: object

>  <halogenbond:GLN:95>  (38) 
halogenbond:GLN:95    0
halogenbond:GLN:95    0
Name: 36, dtype: object

>  <hbond:GLN:95>  (38) 
hbond:GLN:95    0
hbond:GLN:95    0
Name: 36, dtype: object

>  <hydroph_interaction:GLN:95>  (38) 
hydroph_interaction:GLN:95    0
hydroph_interaction:GLN:95    0
Name: 36, dtype: object

>  <hydroph_interaction:LEU:98>  (38) 
hydroph_interaction:LEU:98    0
hydroph_interaction:LEU:98    0
Name: 36, dtype: object

>  <hydroph_interaction:LEU:100>  (38) 
hydroph_interaction:LEU:100    0
hydroph_interaction:LEU:100    0
Name: 36, dtype: object

>  <hbond:SER:105>  (38) 
hbond:SER:105    0
hbond:SER:105    0
Name: 36, dtype: object

>  <halogenbond:SER:105>  (38) 
halogenbond:SER:105    0
halogenbond:SER:105    0
Name: 36, dtype: object

>  <hydroph_interaction:PRO:107>  (38) 
hydroph_interaction:PRO:107    1
hydroph_interaction:PRO:107    1
Name: 36, dtype: object

>  <hbond:PRO:107>  (38) 
hbond:PRO:107    0
hbond:PRO:107    0
Name: 36, dtype: object

>  <halogenbond:PRO:107>  (38) 
halogenbond:PRO:107    0
halogenbond:PRO:107    0
Name: 36, dtype: object

>  <hbond:ASP:109>  (38) 
hbond:ASP:109    0
hbond:ASP:109    0
Name: 36, dtype: object

>  <hbond:CYS:110>  (38) 
hbond:CYS:110    0
hbond:CYS:110    0
Name: 36, dtype: object

>  <halogenbond:CYS:110>  (38) 
halogenbond:CYS:110    0
halogenbond:CYS:110    0
Name: 36, dtype: object

>  <hydroph_interaction:VAL:124>  (38) 
hydroph_interaction:VAL:124    1
hydroph_interaction:VAL:124    1
Name: 36, dtype: object

>  <hbond:SER:125>  (38) 
hbond:SER:125    0
hbond:SER:125    0
Name: 36, dtype: object

>  <halogenbond:SER:125>  (38) 
halogenbond:SER:125    0
halogenbond:SER:125    0
Name: 36, dtype: object

>  <hydroph_interaction:THR:126>  (38) 
hydroph_interaction:THR:126    0
hydroph_interaction:THR:126    0
Name: 36, dtype: object

>  <hbond:THR:126>  (38) 
hbond:THR:126    0
hbond:THR:126    0
Name: 36, dtype: object

>  <halogenbond:THR:126>  (38) 
halogenbond:THR:126    0
halogenbond:THR:126    0
Name: 36, dtype: object

>  <hbond:GLY:127>  (38) 
hbond:GLY:127    1
hbond:GLY:127    1
Name: 36, dtype: object

>  <halogenbond:GLY:127>  (38) 
halogenbond:GLY:127    0
halogenbond:GLY:127    0
Name: 36, dtype: object

>  <hbond:GLY:128>  (38) 
hbond:GLY:128    0
hbond:GLY:128    0
Name: 36, dtype: object

>  <hbond:ASN:129>  (38) 
hbond:ASN:129    0
hbond:ASN:129    0
Name: 36, dtype: object

>  <hydroph_interaction:ASN:129>  (38) 
hydroph_interaction:ASN:129    0
hydroph_interaction:ASN:129    0
Name: 36, dtype: object

>  <halogenbond:ASN:129>  (38) 
halogenbond:ASN:129    0
halogenbond:ASN:129    0
Name: 36, dtype: object

>  <hydroph_interaction:LEU:131>  (38) 
hydroph_interaction:LEU:131    0
hydroph_interaction:LEU:131    0
Name: 36, dtype: object

>  <hbond:LEU:131>  (38) 
hbond:LEU:131    0
hbond:LEU:131    0
Name: 36, dtype: object

>  <halogenbond:LEU:131>  (38) 
halogenbond:LEU:131    0
halogenbond:LEU:131    0
Name: 36, dtype: object

>  <hbond:VAL:132>  (38) 
hbond:VAL:132    0
hbond:VAL:132    0
Name: 36, dtype: object

$$$$
PV_002871207302
     RDKit          3D

 12 12  0  0  0  0  0  0  0  0999 V2000
   30.5192    9.9457    8.3446 C   0  0  0  0  0  0  0  0  0  0  0  0
   31.5913   10.4289    7.4127 C   0  0  0  0  0  0  0  0  0  0  0  0
   32.2829    9.4683    6.6709 C   0  0  0  0  0  0  0  0  0  0  0  0
   33.2674    9.7424    5.7948 N   0  0  0  0  0  0  0  0  0  0  0  0
   33.5913   11.0343    5.6359 C   0  0  0  0  0  0  0  0  0  0  0  0
   32.9787   12.0731    6.3181 C   0  0  0  0  0  0  0  0  0  0  0  0
   31.9574   11.7767    7.2294 C   0  0  0  0  0  0  0  0  0  0  0  0
   31.1877   13.1362    8.1183 S   0  0  0  0  0  0  0  0  0  0  0  0
   29.5025   13.2020    7.4368 C   0  0  0  0  0  0  0  0  0  0  0  0
   28.5933   14.1206    8.1737 C   0  0  0  0  0  0  0  0  0  0  0  0
   29.5765   13.5926    6.1397 F   0  0  0  0  0  0  0  0  0  0  0  0
   28.9523   11.9789    7.3906 F   0  0  0  0  0  0  0  0  0  0  0  0
  1  2  1  0
  2  3  2  0
  3  4  1  0
  4  5  2  0
  5  6  1  0
  6  7  2  0
  7  8  1  0
  8  9  1  0
  9 10  1  0
  9 11  1  0
  9 12  1  0
  7  2  1  0
A    1
 C1 
A    2
 C2 
A    3
 C3 
A    4
 N1 
A    5
 C4 
A    6
 C5 
A    7
 C6 
A    8
 S1 
A    9
 C7 
A   10
 C8 
A   11
 F1 
A   12
 F2 
M  END
>  <ref_pdb>  (39) 
Ax0310a

>  <ref_mols>  (39) 
Ax0554a,Ax0351a

>  <original SMILES>  (39) 
Cc1cnccc1SC(C)(F)F

>  <rationale>  (39) 
info halogenbond:P107; 

>  <intxn_cluster_10>  (39) 
9

>  <intxn_cluster_rank_10>  (39) 
4

>  <N_interactions>  (39) 
1

>  <∆∆G>  (39) 
-7.628964

>  <$/mg>  (39) 
0.0

>  <comRMSD>  (39) 
0.959627

>  <N_rotatable_bonds>  (39) 
4

>  <deep_P1_sidechain>  (39) 
False

>  <farthest_distance_to_substrate>  (39) 
2.387161

>  <hbond:SER:7>  (39) 
hbond:SER:7    0
hbond:SER:7    0
Name: 37, dtype: object

>  <hydroph_interaction:ASN:19>  (39) 
hydroph_interaction:ASN:19    0
hydroph_interaction:ASN:19    0
Name: 37, dtype: object

>  <halogenbond:ASN:19>  (39) 
halogenbond:ASN:19    0
halogenbond:ASN:19    0
Name: 37, dtype: object

>  <hbond:ARG:20>  (39) 
hbond:ARG:20    0
hbond:ARG:20    0
Name: 37, dtype: object

>  <hydroph_interaction:ARG:20>  (39) 
hydroph_interaction:ARG:20    0
hydroph_interaction:ARG:20    0
Name: 37, dtype: object

>  <hbond:HIS:21>  (39) 
hbond:HIS:21    0
hbond:HIS:21    0
Name: 37, dtype: object

>  <hydroph_interaction:HIS:21>  (39) 
hydroph_interaction:HIS:21    0
hydroph_interaction:HIS:21    0
Name: 37, dtype: object

>  <saltbridge:HIS:21>  (39) 
saltbridge:HIS:21    0
saltbridge:HIS:21    0
Name: 37, dtype: object

>  <pistack:HIS:21>  (39) 
pistack:HIS:21    0
pistack:HIS:21    0
Name: 37, dtype: object

>  <pication:HIS:21>  (39) 
pication:HIS:21    0
pication:HIS:21    0
Name: 37, dtype: object

>  <hydroph_interaction:LEU:22>  (39) 
hydroph_interaction:LEU:22    0
hydroph_interaction:LEU:22    0
Name: 37, dtype: object

>  <hbond:SER:36>  (39) 
hbond:SER:36    0
hbond:SER:36    0
Name: 37, dtype: object

>  <hbond:ASP:39>  (39) 
hbond:ASP:39    0
hbond:ASP:39    0
Name: 37, dtype: object

>  <saltbridge:ASP:39>  (39) 
saltbridge:ASP:39    0
saltbridge:ASP:39    0
Name: 37, dtype: object

>  <hydroph_interaction:ASP:39>  (39) 
hydroph_interaction:ASP:39    0
hydroph_interaction:ASP:39    0
Name: 37, dtype: object

>  <halogenbond:ASP:39>  (39) 
halogenbond:ASP:39    0
halogenbond:ASP:39    0
Name: 37, dtype: object

>  <hydroph_interaction:ILE:82>  (39) 
hydroph_interaction:ILE:82    0
hydroph_interaction:ILE:82    0
Name: 37, dtype: object

>  <hydroph_interaction:PHE:83>  (39) 
hydroph_interaction:PHE:83    0
hydroph_interaction:PHE:83    0
Name: 37, dtype: object

>  <hbond:PHE:83>  (39) 
hbond:PHE:83    0
hbond:PHE:83    0
Name: 37, dtype: object

>  <halogenbond:PHE:83>  (39) 
halogenbond:PHE:83    0
halogenbond:PHE:83    0
Name: 37, dtype: object

>  <hydroph_interaction:VAL:84>  (39) 
hydroph_interaction:VAL:84    0
hydroph_interaction:VAL:84    0
Name: 37, dtype: object

>  <hydroph_interaction:GLU:85>  (39) 
hydroph_interaction:GLU:85    0
hydroph_interaction:GLU:85    0
Name: 37, dtype: object

>  <hbond:GLU:85>  (39) 
hbond:GLU:85    0
hbond:GLU:85    0
Name: 37, dtype: object

>  <halogenbond:GLU:85>  (39) 
halogenbond:GLU:85    0
halogenbond:GLU:85    0
Name: 37, dtype: object

>  <halogenbond:ALA:86>  (39) 
halogenbond:ALA:86    0
halogenbond:ALA:86    0
Name: 37, dtype: object

>  <hbond:SER:87>  (39) 
hbond:SER:87    0
hbond:SER:87    0
Name: 37, dtype: object

>  <halogenbond:SER:87>  (39) 
halogenbond:SER:87    0
halogenbond:SER:87    0
Name: 37, dtype: object

>  <hbond:GLU:88>  (39) 
hbond:GLU:88    0
hbond:GLU:88    0
Name: 37, dtype: object

>  <halogenbond:GLU:88>  (39) 
halogenbond:GLU:88    0
halogenbond:GLU:88    0
Name: 37, dtype: object

>  <hydroph_interaction:TYR:89>  (39) 
hydroph_interaction:TYR:89    0
hydroph_interaction:TYR:89    0
Name: 37, dtype: object

>  <pistack:TYR:89>  (39) 
pistack:TYR:89    0
pistack:TYR:89    0
Name: 37, dtype: object

>  <hbond:TYR:89>  (39) 
hbond:TYR:89    0
hbond:TYR:89    0
Name: 37, dtype: object

>  <hbond:TYR:90>  (39) 
hbond:TYR:90    0
hbond:TYR:90    0
Name: 37, dtype: object

>  <hydroph_interaction:TYR:90>  (39) 
hydroph_interaction:TYR:90    0
hydroph_interaction:TYR:90    0
Name: 37, dtype: object

>  <pistack:TYR:90>  (39) 
pistack:TYR:90    0
pistack:TYR:90    0
Name: 37, dtype: object

>  <hbond:ARG:93>  (39) 
hbond:ARG:93    0
hbond:ARG:93    0
Name: 37, dtype: object

>  <saltbridge:ARG:93>  (39) 
saltbridge:ARG:93    0
saltbridge:ARG:93    0
Name: 37, dtype: object

>  <hydroph_interaction:ARG:93>  (39) 
hydroph_interaction:ARG:93    0
hydroph_interaction:ARG:93    0
Name: 37, dtype: object

>  <halogenbond:GLN:95>  (39) 
halogenbond:GLN:95    0
halogenbond:GLN:95    0
Name: 37, dtype: object

>  <hbond:GLN:95>  (39) 
hbond:GLN:95    0
hbond:GLN:95    0
Name: 37, dtype: object

>  <hydroph_interaction:GLN:95>  (39) 
hydroph_interaction:GLN:95    0
hydroph_interaction:GLN:95    0
Name: 37, dtype: object

>  <hydroph_interaction:LEU:98>  (39) 
hydroph_interaction:LEU:98    0
hydroph_interaction:LEU:98    0
Name: 37, dtype: object

>  <hydroph_interaction:LEU:100>  (39) 
hydroph_interaction:LEU:100    0
hydroph_interaction:LEU:100    0
Name: 37, dtype: object

>  <hbond:SER:105>  (39) 
hbond:SER:105    0
hbond:SER:105    0
Name: 37, dtype: object

>  <halogenbond:SER:105>  (39) 
halogenbond:SER:105    0
halogenbond:SER:105    0
Name: 37, dtype: object

>  <hydroph_interaction:PRO:107>  (39) 
hydroph_interaction:PRO:107    0
hydroph_interaction:PRO:107    0
Name: 37, dtype: object

>  <hbond:PRO:107>  (39) 
hbond:PRO:107    0
hbond:PRO:107    0
Name: 37, dtype: object

>  <halogenbond:PRO:107>  (39) 
halogenbond:PRO:107    1
halogenbond:PRO:107    1
Name: 37, dtype: object

>  <hbond:ASP:109>  (39) 
hbond:ASP:109    0
hbond:ASP:109    0
Name: 37, dtype: object

>  <hbond:CYS:110>  (39) 
hbond:CYS:110    0
hbond:CYS:110    0
Name: 37, dtype: object

>  <halogenbond:CYS:110>  (39) 
halogenbond:CYS:110    0
halogenbond:CYS:110    0
Name: 37, dtype: object

>  <hydroph_interaction:VAL:124>  (39) 
hydroph_interaction:VAL:124    0
hydroph_interaction:VAL:124    0
Name: 37, dtype: object

>  <hbond:SER:125>  (39) 
hbond:SER:125    0
hbond:SER:125    0
Name: 37, dtype: object

>  <halogenbond:SER:125>  (39) 
halogenbond:SER:125    0
halogenbond:SER:125    0
Name: 37, dtype: object

>  <hydroph_interaction:THR:126>  (39) 
hydroph_interaction:THR:126    0
hydroph_interaction:THR:126    0
Name: 37, dtype: object

>  <hbond:THR:126>  (39) 
hbond:THR:126    0
hbond:THR:126    0
Name: 37, dtype: object

>  <halogenbond:THR:126>  (39) 
halogenbond:THR:126    0
halogenbond:THR:126    0
Name: 37, dtype: object

>  <hbond:GLY:127>  (39) 
hbond:GLY:127    0
hbond:GLY:127    0
Name: 37, dtype: object

>  <halogenbond:GLY:127>  (39) 
halogenbond:GLY:127    0
halogenbond:GLY:127    0
Name: 37, dtype: object

>  <hbond:GLY:128>  (39) 
hbond:GLY:128    0
hbond:GLY:128    0
Name: 37, dtype: object

>  <hbond:ASN:129>  (39) 
hbond:ASN:129    0
hbond:ASN:129    0
Name: 37, dtype: object

>  <hydroph_interaction:ASN:129>  (39) 
hydroph_interaction:ASN:129    0
hydroph_interaction:ASN:129    0
Name: 37, dtype: object

>  <halogenbond:ASN:129>  (39) 
halogenbond:ASN:129    0
halogenbond:ASN:129    0
Name: 37, dtype: object

>  <hydroph_interaction:LEU:131>  (39) 
hydroph_interaction:LEU:131    0
hydroph_interaction:LEU:131    0
Name: 37, dtype: object

>  <hbond:LEU:131>  (39) 
hbond:LEU:131    0
hbond:LEU:131    0
Name: 37, dtype: object

>  <halogenbond:LEU:131>  (39) 
halogenbond:LEU:131    0
halogenbond:LEU:131    0
Name: 37, dtype: object

>  <hbond:VAL:132>  (39) 
hbond:VAL:132    0
hbond:VAL:132    0
Name: 37, dtype: object

$$$$
Z4254493835
     RDKit          3D

 15 16  0  0  0  0  0  0  0  0999 V2000
   30.3086    8.6272    8.8455 C   0  0  0  0  0  0  0  0  0  0  0  0
   31.0994    9.4976    7.9112 C   0  0  0  0  0  0  0  0  0  0  0  0
   32.0787    8.8846    7.1750 N   0  0  0  0  0  0  0  0  0  0  0  0
   32.5954    9.9094    6.4878 N   0  0  0  0  0  0  0  0  0  0  0  0
   33.6388    9.5994    5.6601 C   0  0  0  0  0  0  0  0  0  0  0  0
   32.0023   11.1302    6.7254 C   0  0  0  0  0  0  0  0  0  0  0  0
   32.4200   12.2988    6.0920 C   0  0  0  0  0  0  0  0  0  0  0  0
   31.0135   10.8775    7.6574 C   0  0  0  0  0  0  0  0  0  0  0  0
   30.1310   11.7230    8.2404 N   0  0  0  0  0  0  0  0  0  0  0  0
   30.0071   13.1233    7.8657 C   0  0  1  0  0  0  0  0  0  0  0  0
   29.2867   13.2211    6.6962 C   0  0  0  0  0  0  0  0  0  0  0  0
   28.4831   14.4978    6.6558 C   0  0  0  0  0  0  0  0  0  0  0  0
   28.5508   14.9932    8.0807 C   0  0  0  0  0  0  0  0  0  0  0  0
   29.0333   13.9020    8.8281 C   0  0  1  0  0  0  0  0  0  0  0  0
   27.9526   13.1416    9.1072 F   0  0  0  0  0  0  0  0  0  0  0  0
  1  2  1  0
  2  3  2  0
  3  4  1  0
  4  5  1  0
  4  6  1  0
  6  7  1  0
  6  8  2  0
  8  9  1  0
 10  9  1  1
 10 11  1  0
 11 12  1  0
 12 13  1  0
 13 14  1  0
 14 15  1  6
  8  2  1  0
 14 10  1  0
A    1
 C1 
A    2
 C2 
A    3
 N1 
A    4
 N2 
A    5
 C3 
A    6
 C4 
A    7
 C5 
A    8
 C6 
A    9
 N3 
A   10
 C7 
A   11
 C8 
A   12
 C9 
A   13
 C10
A   14
 C11
A   15
 F1 
M  END
>  <ref_pdb>  (40) 
Ax0310a

>  <ref_mols>  (40) 
Ax0310a,Ax0451a,Ax0719a

>  <original SMILES>  (40) 
Cc1nn(C)c(C)c1NC1CCC[C@H]1F

>  <rationale>  (40) 
info halogenbond:C110; hbond:S125; hydroph_interaction:P107+V124; 

>  <intxn_cluster_10>  (40) 
4

>  <intxn_cluster_rank_10>  (40) 
6

>  <N_interactions>  (40) 
4

>  <∆∆G>  (40) 
-9.289851

>  <$/mg>  (40) 
0.0

>  <comRMSD>  (40) 
0.919069

>  <N_rotatable_bonds>  (40) 
5

>  <deep_P1_sidechain>  (40) 
True

>  <farthest_distance_to_substrate>  (40) 
2.475209

>  <hbond:SER:7>  (40) 
hbond:SER:7    0
hbond:SER:7    0
Name: 38, dtype: object

>  <hydroph_interaction:ASN:19>  (40) 
hydroph_interaction:ASN:19    0
hydroph_interaction:ASN:19    0
Name: 38, dtype: object

>  <halogenbond:ASN:19>  (40) 
halogenbond:ASN:19    0
halogenbond:ASN:19    0
Name: 38, dtype: object

>  <hbond:ARG:20>  (40) 
hbond:ARG:20    0
hbond:ARG:20    0
Name: 38, dtype: object

>  <hydroph_interaction:ARG:20>  (40) 
hydroph_interaction:ARG:20    0
hydroph_interaction:ARG:20    0
Name: 38, dtype: object

>  <hbond:HIS:21>  (40) 
hbond:HIS:21    0
hbond:HIS:21    0
Name: 38, dtype: object

>  <hydroph_interaction:HIS:21>  (40) 
hydroph_interaction:HIS:21    0
hydroph_interaction:HIS:21    0
Name: 38, dtype: object

>  <saltbridge:HIS:21>  (40) 
saltbridge:HIS:21    0
saltbridge:HIS:21    0
Name: 38, dtype: object

>  <pistack:HIS:21>  (40) 
pistack:HIS:21    0
pistack:HIS:21    0
Name: 38, dtype: object

>  <pication:HIS:21>  (40) 
pication:HIS:21    0
pication:HIS:21    0
Name: 38, dtype: object

>  <hydroph_interaction:LEU:22>  (40) 
hydroph_interaction:LEU:22    0
hydroph_interaction:LEU:22    0
Name: 38, dtype: object

>  <hbond:SER:36>  (40) 
hbond:SER:36    0
hbond:SER:36    0
Name: 38, dtype: object

>  <hbond:ASP:39>  (40) 
hbond:ASP:39    0
hbond:ASP:39    0
Name: 38, dtype: object

>  <saltbridge:ASP:39>  (40) 
saltbridge:ASP:39    0
saltbridge:ASP:39    0
Name: 38, dtype: object

>  <hydroph_interaction:ASP:39>  (40) 
hydroph_interaction:ASP:39    0
hydroph_interaction:ASP:39    0
Name: 38, dtype: object

>  <halogenbond:ASP:39>  (40) 
halogenbond:ASP:39    0
halogenbond:ASP:39    0
Name: 38, dtype: object

>  <hydroph_interaction:ILE:82>  (40) 
hydroph_interaction:ILE:82    0
hydroph_interaction:ILE:82    0
Name: 38, dtype: object

>  <hydroph_interaction:PHE:83>  (40) 
hydroph_interaction:PHE:83    0
hydroph_interaction:PHE:83    0
Name: 38, dtype: object

>  <hbond:PHE:83>  (40) 
hbond:PHE:83    0
hbond:PHE:83    0
Name: 38, dtype: object

>  <halogenbond:PHE:83>  (40) 
halogenbond:PHE:83    0
halogenbond:PHE:83    0
Name: 38, dtype: object

>  <hydroph_interaction:VAL:84>  (40) 
hydroph_interaction:VAL:84    0
hydroph_interaction:VAL:84    0
Name: 38, dtype: object

>  <hydroph_interaction:GLU:85>  (40) 
hydroph_interaction:GLU:85    0
hydroph_interaction:GLU:85    0
Name: 38, dtype: object

>  <hbond:GLU:85>  (40) 
hbond:GLU:85    0
hbond:GLU:85    0
Name: 38, dtype: object

>  <halogenbond:GLU:85>  (40) 
halogenbond:GLU:85    0
halogenbond:GLU:85    0
Name: 38, dtype: object

>  <halogenbond:ALA:86>  (40) 
halogenbond:ALA:86    0
halogenbond:ALA:86    0
Name: 38, dtype: object

>  <hbond:SER:87>  (40) 
hbond:SER:87    0
hbond:SER:87    0
Name: 38, dtype: object

>  <halogenbond:SER:87>  (40) 
halogenbond:SER:87    0
halogenbond:SER:87    0
Name: 38, dtype: object

>  <hbond:GLU:88>  (40) 
hbond:GLU:88    0
hbond:GLU:88    0
Name: 38, dtype: object

>  <halogenbond:GLU:88>  (40) 
halogenbond:GLU:88    0
halogenbond:GLU:88    0
Name: 38, dtype: object

>  <hydroph_interaction:TYR:89>  (40) 
hydroph_interaction:TYR:89    0
hydroph_interaction:TYR:89    0
Name: 38, dtype: object

>  <pistack:TYR:89>  (40) 
pistack:TYR:89    0
pistack:TYR:89    0
Name: 38, dtype: object

>  <hbond:TYR:89>  (40) 
hbond:TYR:89    0
hbond:TYR:89    0
Name: 38, dtype: object

>  <hbond:TYR:90>  (40) 
hbond:TYR:90    0
hbond:TYR:90    0
Name: 38, dtype: object

>  <hydroph_interaction:TYR:90>  (40) 
hydroph_interaction:TYR:90    0
hydroph_interaction:TYR:90    0
Name: 38, dtype: object

>  <pistack:TYR:90>  (40) 
pistack:TYR:90    0
pistack:TYR:90    0
Name: 38, dtype: object

>  <hbond:ARG:93>  (40) 
hbond:ARG:93    0
hbond:ARG:93    0
Name: 38, dtype: object

>  <saltbridge:ARG:93>  (40) 
saltbridge:ARG:93    0
saltbridge:ARG:93    0
Name: 38, dtype: object

>  <hydroph_interaction:ARG:93>  (40) 
hydroph_interaction:ARG:93    0
hydroph_interaction:ARG:93    0
Name: 38, dtype: object

>  <halogenbond:GLN:95>  (40) 
halogenbond:GLN:95    0
halogenbond:GLN:95    0
Name: 38, dtype: object

>  <hbond:GLN:95>  (40) 
hbond:GLN:95    0
hbond:GLN:95    0
Name: 38, dtype: object

>  <hydroph_interaction:GLN:95>  (40) 
hydroph_interaction:GLN:95    0
hydroph_interaction:GLN:95    0
Name: 38, dtype: object

>  <hydroph_interaction:LEU:98>  (40) 
hydroph_interaction:LEU:98    0
hydroph_interaction:LEU:98    0
Name: 38, dtype: object

>  <hydroph_interaction:LEU:100>  (40) 
hydroph_interaction:LEU:100    0
hydroph_interaction:LEU:100    0
Name: 38, dtype: object

>  <hbond:SER:105>  (40) 
hbond:SER:105    0
hbond:SER:105    0
Name: 38, dtype: object

>  <halogenbond:SER:105>  (40) 
halogenbond:SER:105    0
halogenbond:SER:105    0
Name: 38, dtype: object

>  <hydroph_interaction:PRO:107>  (40) 
hydroph_interaction:PRO:107    1
hydroph_interaction:PRO:107    1
Name: 38, dtype: object

>  <hbond:PRO:107>  (40) 
hbond:PRO:107    0
hbond:PRO:107    0
Name: 38, dtype: object

>  <halogenbond:PRO:107>  (40) 
halogenbond:PRO:107    0
halogenbond:PRO:107    0
Name: 38, dtype: object

>  <hbond:ASP:109>  (40) 
hbond:ASP:109    0
hbond:ASP:109    0
Name: 38, dtype: object

>  <hbond:CYS:110>  (40) 
hbond:CYS:110    0
hbond:CYS:110    0
Name: 38, dtype: object

>  <halogenbond:CYS:110>  (40) 
halogenbond:CYS:110    1
halogenbond:CYS:110    1
Name: 38, dtype: object

>  <hydroph_interaction:VAL:124>  (40) 
hydroph_interaction:VAL:124    1
hydroph_interaction:VAL:124    1
Name: 38, dtype: object

>  <hbond:SER:125>  (40) 
hbond:SER:125    1
hbond:SER:125    1
Name: 38, dtype: object

>  <halogenbond:SER:125>  (40) 
halogenbond:SER:125    0
halogenbond:SER:125    0
Name: 38, dtype: object

>  <hydroph_interaction:THR:126>  (40) 
hydroph_interaction:THR:126    0
hydroph_interaction:THR:126    0
Name: 38, dtype: object

>  <hbond:THR:126>  (40) 
hbond:THR:126    0
hbond:THR:126    0
Name: 38, dtype: object

>  <halogenbond:THR:126>  (40) 
halogenbond:THR:126    0
halogenbond:THR:126    0
Name: 38, dtype: object

>  <hbond:GLY:127>  (40) 
hbond:GLY:127    0
hbond:GLY:127    0
Name: 38, dtype: object

>  <halogenbond:GLY:127>  (40) 
halogenbond:GLY:127    0
halogenbond:GLY:127    0
Name: 38, dtype: object

>  <hbond:GLY:128>  (40) 
hbond:GLY:128    0
hbond:GLY:128    0
Name: 38, dtype: object

>  <hbond:ASN:129>  (40) 
hbond:ASN:129    0
hbond:ASN:129    0
Name: 38, dtype: object

>  <hydroph_interaction:ASN:129>  (40) 
hydroph_interaction:ASN:129    0
hydroph_interaction:ASN:129    0
Name: 38, dtype: object

>  <halogenbond:ASN:129>  (40) 
halogenbond:ASN:129    0
halogenbond:ASN:129    0
Name: 38, dtype: object

>  <hydroph_interaction:LEU:131>  (40) 
hydroph_interaction:LEU:131    0
hydroph_interaction:LEU:131    0
Name: 38, dtype: object

>  <hbond:LEU:131>  (40) 
hbond:LEU:131    0
hbond:LEU:131    0
Name: 38, dtype: object

>  <halogenbond:LEU:131>  (40) 
halogenbond:LEU:131    0
halogenbond:LEU:131    0
Name: 38, dtype: object

>  <hbond:VAL:132>  (40) 
hbond:VAL:132    0
hbond:VAL:132    0
Name: 38, dtype: object

$$$$
PV_003026487343
     RDKit          3D

 14 15  0  0  0  0  0  0  0  0999 V2000
   30.4408    8.0650    8.7078 C   0  0  0  0  0  0  0  0  0  0  0  0
   31.0322    9.2181    7.9970 C   0  0  0  0  0  0  0  0  0  0  0  0
   30.5320   10.4135    8.3351 C   0  0  0  0  0  0  0  0  0  0  0  0
   30.9597   11.6717    7.7756 C   0  0  0  0  0  0  0  0  0  0  0  0
   30.3599   12.8295    8.2255 C   0  0  0  0  0  0  0  0  0  0  0  0
   28.9622   13.2290    7.8571 C   0  0  0  0  0  0  0  0  0  0  0  0
   28.2419   12.4568    7.0239 F   0  0  0  0  0  0  0  0  0  0  0  0
   28.4229   14.3471    8.3603 F   0  0  0  0  0  0  0  0  0  0  0  0
   31.9669   11.5721    6.8242 C   0  0  0  0  0  0  0  0  0  0  0  0
   32.5288   12.4643    6.1863 O   0  0  0  0  0  0  0  0  0  0  0  0
   33.4694   11.8842    5.3613 C   0  0  0  0  0  0  0  0  0  0  0  0
   33.4699   10.5162    5.5203 C   0  0  0  0  0  0  0  0  0  0  0  0
   32.4941   10.3486    6.4671 C   0  0  0  0  0  0  0  0  0  0  0  0
   32.0487    9.1534    7.0326 C   0  0  0  0  0  0  0  0  0  0  0  0
  1  2  1  0
  2  3  2  0
  3  4  1  0
  4  5  1  0
  5  6  2  3
  6  7  1  0
  6  8  1  0
  4  9  2  0
  9 10  1  0
 10 11  1  0
 11 12  2  0
 12 13  1  0
 13 14  2  0
 14  2  1  0
 13  9  1  0
A    1
 C1 
A    2
 C2 
A    3
 C3 
A    4
 C4 
A    5
 C5 
A    6
 C6 
A    7
 F1 
A    8
 F2 
A    9
 C7 
A   10
 O1 
A   11
 C8 
A   12
 C9 
A   13
 C10
A   14
 C11
M  END
>  <ref_pdb>  (41) 
Ax0310a

>  <ref_mols>  (41) 
Ax0554a,Ax0528a

>  <original SMILES>  (41) 
Cc1cc(C=C(F)F)c2occc2c1

>  <rationale>  (41) 
info halogenbond:P107; hydroph_interaction:V124; 

>  <intxn_cluster_10>  (41) 
9

>  <intxn_cluster_rank_10>  (41) 
6

>  <N_interactions>  (41) 
2

>  <∆∆G>  (41) 
-8.47566

>  <$/mg>  (41) 
163.0

>  <comRMSD>  (41) 
0.759472

>  <N_rotatable_bonds>  (41) 
2

>  <deep_P1_sidechain>  (41) 
True

>  <farthest_distance_to_substrate>  (41) 
2.333906

>  <hbond:SER:7>  (41) 
hbond:SER:7    0
hbond:SER:7    0
Name: 39, dtype: object

>  <hydroph_interaction:ASN:19>  (41) 
hydroph_interaction:ASN:19    0
hydroph_interaction:ASN:19    0
Name: 39, dtype: object

>  <halogenbond:ASN:19>  (41) 
halogenbond:ASN:19    0
halogenbond:ASN:19    0
Name: 39, dtype: object

>  <hbond:ARG:20>  (41) 
hbond:ARG:20    0
hbond:ARG:20    0
Name: 39, dtype: object

>  <hydroph_interaction:ARG:20>  (41) 
hydroph_interaction:ARG:20    0
hydroph_interaction:ARG:20    0
Name: 39, dtype: object

>  <hbond:HIS:21>  (41) 
hbond:HIS:21    0
hbond:HIS:21    0
Name: 39, dtype: object

>  <hydroph_interaction:HIS:21>  (41) 
hydroph_interaction:HIS:21    0
hydroph_interaction:HIS:21    0
Name: 39, dtype: object

>  <saltbridge:HIS:21>  (41) 
saltbridge:HIS:21    0
saltbridge:HIS:21    0
Name: 39, dtype: object

>  <pistack:HIS:21>  (41) 
pistack:HIS:21    0
pistack:HIS:21    0
Name: 39, dtype: object

>  <pication:HIS:21>  (41) 
pication:HIS:21    0
pication:HIS:21    0
Name: 39, dtype: object

>  <hydroph_interaction:LEU:22>  (41) 
hydroph_interaction:LEU:22    0
hydroph_interaction:LEU:22    0
Name: 39, dtype: object

>  <hbond:SER:36>  (41) 
hbond:SER:36    0
hbond:SER:36    0
Name: 39, dtype: object

>  <hbond:ASP:39>  (41) 
hbond:ASP:39    0
hbond:ASP:39    0
Name: 39, dtype: object

>  <saltbridge:ASP:39>  (41) 
saltbridge:ASP:39    0
saltbridge:ASP:39    0
Name: 39, dtype: object

>  <hydroph_interaction:ASP:39>  (41) 
hydroph_interaction:ASP:39    0
hydroph_interaction:ASP:39    0
Name: 39, dtype: object

>  <halogenbond:ASP:39>  (41) 
halogenbond:ASP:39    0
halogenbond:ASP:39    0
Name: 39, dtype: object

>  <hydroph_interaction:ILE:82>  (41) 
hydroph_interaction:ILE:82    0
hydroph_interaction:ILE:82    0
Name: 39, dtype: object

>  <hydroph_interaction:PHE:83>  (41) 
hydroph_interaction:PHE:83    0
hydroph_interaction:PHE:83    0
Name: 39, dtype: object

>  <hbond:PHE:83>  (41) 
hbond:PHE:83    0
hbond:PHE:83    0
Name: 39, dtype: object

>  <halogenbond:PHE:83>  (41) 
halogenbond:PHE:83    0
halogenbond:PHE:83    0
Name: 39, dtype: object

>  <hydroph_interaction:VAL:84>  (41) 
hydroph_interaction:VAL:84    0
hydroph_interaction:VAL:84    0
Name: 39, dtype: object

>  <hydroph_interaction:GLU:85>  (41) 
hydroph_interaction:GLU:85    0
hydroph_interaction:GLU:85    0
Name: 39, dtype: object

>  <hbond:GLU:85>  (41) 
hbond:GLU:85    0
hbond:GLU:85    0
Name: 39, dtype: object

>  <halogenbond:GLU:85>  (41) 
halogenbond:GLU:85    0
halogenbond:GLU:85    0
Name: 39, dtype: object

>  <halogenbond:ALA:86>  (41) 
halogenbond:ALA:86    0
halogenbond:ALA:86    0
Name: 39, dtype: object

>  <hbond:SER:87>  (41) 
hbond:SER:87    0
hbond:SER:87    0
Name: 39, dtype: object

>  <halogenbond:SER:87>  (41) 
halogenbond:SER:87    0
halogenbond:SER:87    0
Name: 39, dtype: object

>  <hbond:GLU:88>  (41) 
hbond:GLU:88    0
hbond:GLU:88    0
Name: 39, dtype: object

>  <halogenbond:GLU:88>  (41) 
halogenbond:GLU:88    0
halogenbond:GLU:88    0
Name: 39, dtype: object

>  <hydroph_interaction:TYR:89>  (41) 
hydroph_interaction:TYR:89    0
hydroph_interaction:TYR:89    0
Name: 39, dtype: object

>  <pistack:TYR:89>  (41) 
pistack:TYR:89    0
pistack:TYR:89    0
Name: 39, dtype: object

>  <hbond:TYR:89>  (41) 
hbond:TYR:89    0
hbond:TYR:89    0
Name: 39, dtype: object

>  <hbond:TYR:90>  (41) 
hbond:TYR:90    0
hbond:TYR:90    0
Name: 39, dtype: object

>  <hydroph_interaction:TYR:90>  (41) 
hydroph_interaction:TYR:90    0
hydroph_interaction:TYR:90    0
Name: 39, dtype: object

>  <pistack:TYR:90>  (41) 
pistack:TYR:90    0
pistack:TYR:90    0
Name: 39, dtype: object

>  <hbond:ARG:93>  (41) 
hbond:ARG:93    0
hbond:ARG:93    0
Name: 39, dtype: object

>  <saltbridge:ARG:93>  (41) 
saltbridge:ARG:93    0
saltbridge:ARG:93    0
Name: 39, dtype: object

>  <hydroph_interaction:ARG:93>  (41) 
hydroph_interaction:ARG:93    0
hydroph_interaction:ARG:93    0
Name: 39, dtype: object

>  <halogenbond:GLN:95>  (41) 
halogenbond:GLN:95    0
halogenbond:GLN:95    0
Name: 39, dtype: object

>  <hbond:GLN:95>  (41) 
hbond:GLN:95    0
hbond:GLN:95    0
Name: 39, dtype: object

>  <hydroph_interaction:GLN:95>  (41) 
hydroph_interaction:GLN:95    0
hydroph_interaction:GLN:95    0
Name: 39, dtype: object

>  <hydroph_interaction:LEU:98>  (41) 
hydroph_interaction:LEU:98    0
hydroph_interaction:LEU:98    0
Name: 39, dtype: object

>  <hydroph_interaction:LEU:100>  (41) 
hydroph_interaction:LEU:100    0
hydroph_interaction:LEU:100    0
Name: 39, dtype: object

>  <hbond:SER:105>  (41) 
hbond:SER:105    0
hbond:SER:105    0
Name: 39, dtype: object

>  <halogenbond:SER:105>  (41) 
halogenbond:SER:105    0
halogenbond:SER:105    0
Name: 39, dtype: object

>  <hydroph_interaction:PRO:107>  (41) 
hydroph_interaction:PRO:107    0
hydroph_interaction:PRO:107    0
Name: 39, dtype: object

>  <hbond:PRO:107>  (41) 
hbond:PRO:107    0
hbond:PRO:107    0
Name: 39, dtype: object

>  <halogenbond:PRO:107>  (41) 
halogenbond:PRO:107    1
halogenbond:PRO:107    1
Name: 39, dtype: object

>  <hbond:ASP:109>  (41) 
hbond:ASP:109    0
hbond:ASP:109    0
Name: 39, dtype: object

>  <hbond:CYS:110>  (41) 
hbond:CYS:110    0
hbond:CYS:110    0
Name: 39, dtype: object

>  <halogenbond:CYS:110>  (41) 
halogenbond:CYS:110    0
halogenbond:CYS:110    0
Name: 39, dtype: object

>  <hydroph_interaction:VAL:124>  (41) 
hydroph_interaction:VAL:124    1
hydroph_interaction:VAL:124    1
Name: 39, dtype: object

>  <hbond:SER:125>  (41) 
hbond:SER:125    0
hbond:SER:125    0
Name: 39, dtype: object

>  <halogenbond:SER:125>  (41) 
halogenbond:SER:125    0
halogenbond:SER:125    0
Name: 39, dtype: object

>  <hydroph_interaction:THR:126>  (41) 
hydroph_interaction:THR:126    0
hydroph_interaction:THR:126    0
Name: 39, dtype: object

>  <hbond:THR:126>  (41) 
hbond:THR:126    0
hbond:THR:126    0
Name: 39, dtype: object

>  <halogenbond:THR:126>  (41) 
halogenbond:THR:126    0
halogenbond:THR:126    0
Name: 39, dtype: object

>  <hbond:GLY:127>  (41) 
hbond:GLY:127    0
hbond:GLY:127    0
Name: 39, dtype: object

>  <halogenbond:GLY:127>  (41) 
halogenbond:GLY:127    0
halogenbond:GLY:127    0
Name: 39, dtype: object

>  <hbond:GLY:128>  (41) 
hbond:GLY:128    0
hbond:GLY:128    0
Name: 39, dtype: object

>  <hbond:ASN:129>  (41) 
hbond:ASN:129    0
hbond:ASN:129    0
Name: 39, dtype: object

>  <hydroph_interaction:ASN:129>  (41) 
hydroph_interaction:ASN:129    0
hydroph_interaction:ASN:129    0
Name: 39, dtype: object

>  <halogenbond:ASN:129>  (41) 
halogenbond:ASN:129    0
halogenbond:ASN:129    0
Name: 39, dtype: object

>  <hydroph_interaction:LEU:131>  (41) 
hydroph_interaction:LEU:131    0
hydroph_interaction:LEU:131    0
Name: 39, dtype: object

>  <hbond:LEU:131>  (41) 
hbond:LEU:131    0
hbond:LEU:131    0
Name: 39, dtype: object

>  <halogenbond:LEU:131>  (41) 
halogenbond:LEU:131    0
halogenbond:LEU:131    0
Name: 39, dtype: object

>  <hbond:VAL:132>  (41) 
hbond:VAL:132    0
hbond:VAL:132    0
Name: 39, dtype: object

$$$$
Z3620420712
     RDKit          3D

 16 16  0  0  0  0  0  0  0  0999 V2000
   30.8178    8.3371    8.7299 C   0  0  0  0  0  0  0  0  0  0  0  0
   31.1429    9.5146    7.9851 N   0  0  0  0  0  0  0  0  0  0  0  0
   30.4737   10.6457    8.1725 C   0  0  0  0  0  0  0  0  0  0  0  0
   31.0289   11.6727    7.2808 C   0  0  0  0  0  0  0  0  0  0  0  0
   30.4611   13.0800    7.2635 C   0  0  0  0  0  0  0  0  0  0  0  0
   29.9689   13.4435    8.5835 N   0  0  0  0  0  0  0  0  0  0  0  0
   28.7022   14.5096    8.6827 S   0  0  0  0  0  6  0  0  0  0  0  0
   29.2481   15.8177    8.4247 O   0  0  0  0  0  0  0  0  0  0  0  0
   27.6218   14.0211    7.8667 O   0  0  0  0  0  0  0  0  0  0  0  0
   28.3500   14.4812   10.4317 C   0  0  0  0  0  0  0  0  0  0  0  0
   29.7488   15.0615   11.3320 Cl  0  0  0  0  0  0  0  0  0  0  0  0
   32.0650   10.9743    6.6131 C   0  0  0  0  0  0  0  0  0  0  0  0
   33.0080   11.5871    5.5544 C   0  0  0  0  0  0  0  0  0  0  0  0
   33.9860   12.3310    6.1412 F   0  0  0  0  0  0  0  0  0  0  0  0
   33.6542   10.6197    4.8417 F   0  0  0  0  0  0  0  0  0  0  0  0
   32.1248    9.6565    7.0382 N   0  0  0  0  0  0  0  0  0  0  0  0
  1  2  1  0
  2  3  1  0
  3  4  2  0
  4  5  1  0
  5  6  1  0
  6  7  1  0
  7  8  2  0
  7  9  2  0
  7 10  1  0
 10 11  1  0
  4 12  1  0
 12 13  1  0
 13 14  1  0
 13 15  1  0
 12 16  2  0
 16  2  1  0
A    1
 C1 
A    2
 N1 
A    3
 C2 
A    4
 C3 
A    5
 C4 
A    6
 N2 
A    7
 S1 
A    8
 O1 
A    9
 O2 
A   10
 C5 
A   11
CL1 
A   12
 C6 
A   13
 C7 
A   14
 F1 
A   15
 F2 
A   16
 N3 
M  END
>  <ref_pdb>  (42) 
Ax0310a

>  <ref_mols>  (42) 
Ax0451a,Ax0739a

>  <original SMILES>  (42) 
Cn1cc(CNS(=O)(=O)CCl)c(C(F)F)n1

>  <rationale>  (42) 
info halogenbond:Q95; hbond:S125+S87+Y90; 

>  <intxn_cluster_10>  (42) 
2

>  <intxn_cluster_rank_10>  (42) 
4

>  <N_interactions>  (42) 
4

>  <∆∆G>  (42) 
-7.358727

>  <$/mg>  (42) 
0.0

>  <comRMSD>  (42) 
0.778581

>  <N_rotatable_bonds>  (42) 
6

>  <deep_P1_sidechain>  (42) 
False

>  <farthest_distance_to_substrate>  (42) 
2.31287

>  <hbond:SER:7>  (42) 
hbond:SER:7    0
hbond:SER:7    0
Name: 40, dtype: object

>  <hydroph_interaction:ASN:19>  (42) 
hydroph_interaction:ASN:19    0
hydroph_interaction:ASN:19    0
Name: 40, dtype: object

>  <halogenbond:ASN:19>  (42) 
halogenbond:ASN:19    0
halogenbond:ASN:19    0
Name: 40, dtype: object

>  <hbond:ARG:20>  (42) 
hbond:ARG:20    0
hbond:ARG:20    0
Name: 40, dtype: object

>  <hydroph_interaction:ARG:20>  (42) 
hydroph_interaction:ARG:20    0
hydroph_interaction:ARG:20    0
Name: 40, dtype: object

>  <hbond:HIS:21>  (42) 
hbond:HIS:21    0
hbond:HIS:21    0
Name: 40, dtype: object

>  <hydroph_interaction:HIS:21>  (42) 
hydroph_interaction:HIS:21    0
hydroph_interaction:HIS:21    0
Name: 40, dtype: object

>  <saltbridge:HIS:21>  (42) 
saltbridge:HIS:21    0
saltbridge:HIS:21    0
Name: 40, dtype: object

>  <pistack:HIS:21>  (42) 
pistack:HIS:21    0
pistack:HIS:21    0
Name: 40, dtype: object

>  <pication:HIS:21>  (42) 
pication:HIS:21    0
pication:HIS:21    0
Name: 40, dtype: object

>  <hydroph_interaction:LEU:22>  (42) 
hydroph_interaction:LEU:22    0
hydroph_interaction:LEU:22    0
Name: 40, dtype: object

>  <hbond:SER:36>  (42) 
hbond:SER:36    0
hbond:SER:36    0
Name: 40, dtype: object

>  <hbond:ASP:39>  (42) 
hbond:ASP:39    0
hbond:ASP:39    0
Name: 40, dtype: object

>  <saltbridge:ASP:39>  (42) 
saltbridge:ASP:39    0
saltbridge:ASP:39    0
Name: 40, dtype: object

>  <hydroph_interaction:ASP:39>  (42) 
hydroph_interaction:ASP:39    0
hydroph_interaction:ASP:39    0
Name: 40, dtype: object

>  <halogenbond:ASP:39>  (42) 
halogenbond:ASP:39    0
halogenbond:ASP:39    0
Name: 40, dtype: object

>  <hydroph_interaction:ILE:82>  (42) 
hydroph_interaction:ILE:82    0
hydroph_interaction:ILE:82    0
Name: 40, dtype: object

>  <hydroph_interaction:PHE:83>  (42) 
hydroph_interaction:PHE:83    0
hydroph_interaction:PHE:83    0
Name: 40, dtype: object

>  <hbond:PHE:83>  (42) 
hbond:PHE:83    0
hbond:PHE:83    0
Name: 40, dtype: object

>  <halogenbond:PHE:83>  (42) 
halogenbond:PHE:83    0
halogenbond:PHE:83    0
Name: 40, dtype: object

>  <hydroph_interaction:VAL:84>  (42) 
hydroph_interaction:VAL:84    0
hydroph_interaction:VAL:84    0
Name: 40, dtype: object

>  <hydroph_interaction:GLU:85>  (42) 
hydroph_interaction:GLU:85    0
hydroph_interaction:GLU:85    0
Name: 40, dtype: object

>  <hbond:GLU:85>  (42) 
hbond:GLU:85    0
hbond:GLU:85    0
Name: 40, dtype: object

>  <halogenbond:GLU:85>  (42) 
halogenbond:GLU:85    0
halogenbond:GLU:85    0
Name: 40, dtype: object

>  <halogenbond:ALA:86>  (42) 
halogenbond:ALA:86    0
halogenbond:ALA:86    0
Name: 40, dtype: object

>  <hbond:SER:87>  (42) 
hbond:SER:87    1
hbond:SER:87    1
Name: 40, dtype: object

>  <halogenbond:SER:87>  (42) 
halogenbond:SER:87    0
halogenbond:SER:87    0
Name: 40, dtype: object

>  <hbond:GLU:88>  (42) 
hbond:GLU:88    0
hbond:GLU:88    0
Name: 40, dtype: object

>  <halogenbond:GLU:88>  (42) 
halogenbond:GLU:88    0
halogenbond:GLU:88    0
Name: 40, dtype: object

>  <hydroph_interaction:TYR:89>  (42) 
hydroph_interaction:TYR:89    0
hydroph_interaction:TYR:89    0
Name: 40, dtype: object

>  <pistack:TYR:89>  (42) 
pistack:TYR:89    0
pistack:TYR:89    0
Name: 40, dtype: object

>  <hbond:TYR:89>  (42) 
hbond:TYR:89    0
hbond:TYR:89    0
Name: 40, dtype: object

>  <hbond:TYR:90>  (42) 
hbond:TYR:90    1
hbond:TYR:90    1
Name: 40, dtype: object

>  <hydroph_interaction:TYR:90>  (42) 
hydroph_interaction:TYR:90    0
hydroph_interaction:TYR:90    0
Name: 40, dtype: object

>  <pistack:TYR:90>  (42) 
pistack:TYR:90    0
pistack:TYR:90    0
Name: 40, dtype: object

>  <hbond:ARG:93>  (42) 
hbond:ARG:93    0
hbond:ARG:93    0
Name: 40, dtype: object

>  <saltbridge:ARG:93>  (42) 
saltbridge:ARG:93    0
saltbridge:ARG:93    0
Name: 40, dtype: object

>  <hydroph_interaction:ARG:93>  (42) 
hydroph_interaction:ARG:93    0
hydroph_interaction:ARG:93    0
Name: 40, dtype: object

>  <halogenbond:GLN:95>  (42) 
halogenbond:GLN:95    1
halogenbond:GLN:95    1
Name: 40, dtype: object

>  <hbond:GLN:95>  (42) 
hbond:GLN:95    0
hbond:GLN:95    0
Name: 40, dtype: object

>  <hydroph_interaction:GLN:95>  (42) 
hydroph_interaction:GLN:95    0
hydroph_interaction:GLN:95    0
Name: 40, dtype: object

>  <hydroph_interaction:LEU:98>  (42) 
hydroph_interaction:LEU:98    0
hydroph_interaction:LEU:98    0
Name: 40, dtype: object

>  <hydroph_interaction:LEU:100>  (42) 
hydroph_interaction:LEU:100    0
hydroph_interaction:LEU:100    0
Name: 40, dtype: object

>  <hbond:SER:105>  (42) 
hbond:SER:105    0
hbond:SER:105    0
Name: 40, dtype: object

>  <halogenbond:SER:105>  (42) 
halogenbond:SER:105    0
halogenbond:SER:105    0
Name: 40, dtype: object

>  <hydroph_interaction:PRO:107>  (42) 
hydroph_interaction:PRO:107    0
hydroph_interaction:PRO:107    0
Name: 40, dtype: object

>  <hbond:PRO:107>  (42) 
hbond:PRO:107    0
hbond:PRO:107    0
Name: 40, dtype: object

>  <halogenbond:PRO:107>  (42) 
halogenbond:PRO:107    0
halogenbond:PRO:107    0
Name: 40, dtype: object

>  <hbond:ASP:109>  (42) 
hbond:ASP:109    0
hbond:ASP:109    0
Name: 40, dtype: object

>  <hbond:CYS:110>  (42) 
hbond:CYS:110    0
hbond:CYS:110    0
Name: 40, dtype: object

>  <halogenbond:CYS:110>  (42) 
halogenbond:CYS:110    0
halogenbond:CYS:110    0
Name: 40, dtype: object

>  <hydroph_interaction:VAL:124>  (42) 
hydroph_interaction:VAL:124    0
hydroph_interaction:VAL:124    0
Name: 40, dtype: object

>  <hbond:SER:125>  (42) 
hbond:SER:125    1
hbond:SER:125    1
Name: 40, dtype: object

>  <halogenbond:SER:125>  (42) 
halogenbond:SER:125    0
halogenbond:SER:125    0
Name: 40, dtype: object

>  <hydroph_interaction:THR:126>  (42) 
hydroph_interaction:THR:126    0
hydroph_interaction:THR:126    0
Name: 40, dtype: object

>  <hbond:THR:126>  (42) 
hbond:THR:126    0
hbond:THR:126    0
Name: 40, dtype: object

>  <halogenbond:THR:126>  (42) 
halogenbond:THR:126    0
halogenbond:THR:126    0
Name: 40, dtype: object

>  <hbond:GLY:127>  (42) 
hbond:GLY:127    0
hbond:GLY:127    0
Name: 40, dtype: object

>  <halogenbond:GLY:127>  (42) 
halogenbond:GLY:127    0
halogenbond:GLY:127    0
Name: 40, dtype: object

>  <hbond:GLY:128>  (42) 
hbond:GLY:128    0
hbond:GLY:128    0
Name: 40, dtype: object

>  <hbond:ASN:129>  (42) 
hbond:ASN:129    0
hbond:ASN:129    0
Name: 40, dtype: object

>  <hydroph_interaction:ASN:129>  (42) 
hydroph_interaction:ASN:129    0
hydroph_interaction:ASN:129    0
Name: 40, dtype: object

>  <halogenbond:ASN:129>  (42) 
halogenbond:ASN:129    0
halogenbond:ASN:129    0
Name: 40, dtype: object

>  <hydroph_interaction:LEU:131>  (42) 
hydroph_interaction:LEU:131    0
hydroph_interaction:LEU:131    0
Name: 40, dtype: object

>  <hbond:LEU:131>  (42) 
hbond:LEU:131    0
hbond:LEU:131    0
Name: 40, dtype: object

>  <halogenbond:LEU:131>  (42) 
halogenbond:LEU:131    0
halogenbond:LEU:131    0
Name: 40, dtype: object

>  <hbond:VAL:132>  (42) 
hbond:VAL:132    0
hbond:VAL:132    0
Name: 40, dtype: object

$$$$
Z4497063755
     RDKit          3D

 13 13  0  0  0  0  0  0  0  0999 V2000
   41.0338   12.3133   13.8176 C   0  0  0  0  0  0  0  0  0  0  0  0
   41.6361   13.4876   13.0609 C   0  0  0  0  0  0  0  0  0  0  0  0
   42.8288   13.7929   13.0654 O   0  0  0  0  0  0  0  0  0  0  0  0
   40.5773   14.2199   12.3369 N   0  0  0  0  0  0  0  0  0  0  0  0
   39.9608   13.6704   11.1730 C   0  0  0  0  0  0  0  0  0  0  0  0
   38.8954   12.6438   11.5320 C   0  0  0  0  0  0  0  0  0  0  0  0
   38.1072   13.0308   12.7255 C   0  0  0  0  0  0  0  0  0  0  0  0
   37.0065   12.1439   13.2233 C   0  0  0  0  0  0  0  0  0  0  0  0
   36.8879   10.9948   12.4205 C   0  0  0  0  0  0  0  0  0  0  0  0
   37.6627   10.7117   11.3330 C   0  0  0  0  0  0  0  0  0  0  0  0
   37.4027    9.5922   10.7168 F   0  0  0  0  0  0  0  0  0  0  0  0
   38.6487   11.5023   10.8792 C   0  0  0  0  0  0  0  0  0  0  0  0
   39.4396   11.1631    9.7222 C   0  0  0  0  0  0  0  0  0  0  0  0
  1  2  1  0
  2  3  2  0
  2  4  1  0
  4  5  1  0
  5  6  1  0
  6  7  2  0
  7  8  1  0
  8  9  2  0
  9 10  1  0
 10 11  1  0
 10 12  2  0
 12 13  1  0
 12  6  1  0
A    1
 C1 
A    2
 C2 
A    3
 O1 
A    4
 N1 
A    5
 C3 
A    6
 C4 
A    7
 C5 
A    8
 C6 
A    9
 C7 
A   10
 C8 
A   11
 F1 
A   12
 C9 
A   13
 C10
M  END
>  <ref_pdb>  (43) 
Ax0310a

>  <ref_mols>  (43) 
Ax0473a,Ax0812a

>  <original SMILES>  (43) 
CC(=O)NCc1cccc(F)c1C

>  <rationale>  (43) 
info halogenbond:L131; hbond:F83; hydroph_interaction:V84+I82+L100+L131+L98; 

>  <intxn_cluster_10>  (43) 
8

>  <intxn_cluster_rank_10>  (43) 
6

>  <N_interactions>  (43) 
8

>  <∆∆G>  (43) 
-6.405057

>  <$/mg>  (43) 
163.0

>  <comRMSD>  (43) 
0.793627

>  <N_rotatable_bonds>  (43) 
4

>  <deep_P1_sidechain>  (43) 
False

>  <farthest_distance_to_substrate>  (43) 
4.987253

>  <hbond:SER:7>  (43) 
hbond:SER:7    0
hbond:SER:7    0
Name: 41, dtype: object

>  <hydroph_interaction:ASN:19>  (43) 
hydroph_interaction:ASN:19    0
hydroph_interaction:ASN:19    0
Name: 41, dtype: object

>  <halogenbond:ASN:19>  (43) 
halogenbond:ASN:19    0
halogenbond:ASN:19    0
Name: 41, dtype: object

>  <hbond:ARG:20>  (43) 
hbond:ARG:20    0
hbond:ARG:20    0
Name: 41, dtype: object

>  <hydroph_interaction:ARG:20>  (43) 
hydroph_interaction:ARG:20    0
hydroph_interaction:ARG:20    0
Name: 41, dtype: object

>  <hbond:HIS:21>  (43) 
hbond:HIS:21    0
hbond:HIS:21    0
Name: 41, dtype: object

>  <hydroph_interaction:HIS:21>  (43) 
hydroph_interaction:HIS:21    0
hydroph_interaction:HIS:21    0
Name: 41, dtype: object

>  <saltbridge:HIS:21>  (43) 
saltbridge:HIS:21    0
saltbridge:HIS:21    0
Name: 41, dtype: object

>  <pistack:HIS:21>  (43) 
pistack:HIS:21    0
pistack:HIS:21    0
Name: 41, dtype: object

>  <pication:HIS:21>  (43) 
pication:HIS:21    0
pication:HIS:21    0
Name: 41, dtype: object

>  <hydroph_interaction:LEU:22>  (43) 
hydroph_interaction:LEU:22    0
hydroph_interaction:LEU:22    0
Name: 41, dtype: object

>  <hbond:SER:36>  (43) 
hbond:SER:36    0
hbond:SER:36    0
Name: 41, dtype: object

>  <hbond:ASP:39>  (43) 
hbond:ASP:39    0
hbond:ASP:39    0
Name: 41, dtype: object

>  <saltbridge:ASP:39>  (43) 
saltbridge:ASP:39    0
saltbridge:ASP:39    0
Name: 41, dtype: object

>  <hydroph_interaction:ASP:39>  (43) 
hydroph_interaction:ASP:39    0
hydroph_interaction:ASP:39    0
Name: 41, dtype: object

>  <halogenbond:ASP:39>  (43) 
halogenbond:ASP:39    0
halogenbond:ASP:39    0
Name: 41, dtype: object

>  <hydroph_interaction:ILE:82>  (43) 
hydroph_interaction:ILE:82    1
hydroph_interaction:ILE:82    1
Name: 41, dtype: object

>  <hydroph_interaction:PHE:83>  (43) 
hydroph_interaction:PHE:83    0
hydroph_interaction:PHE:83    0
Name: 41, dtype: object

>  <hbond:PHE:83>  (43) 
hbond:PHE:83    1
hbond:PHE:83    1
Name: 41, dtype: object

>  <halogenbond:PHE:83>  (43) 
halogenbond:PHE:83    0
halogenbond:PHE:83    0
Name: 41, dtype: object

>  <hydroph_interaction:VAL:84>  (43) 
hydroph_interaction:VAL:84    1
hydroph_interaction:VAL:84    1
Name: 41, dtype: object

>  <hydroph_interaction:GLU:85>  (43) 
hydroph_interaction:GLU:85    0
hydroph_interaction:GLU:85    0
Name: 41, dtype: object

>  <hbond:GLU:85>  (43) 
hbond:GLU:85    0
hbond:GLU:85    0
Name: 41, dtype: object

>  <halogenbond:GLU:85>  (43) 
halogenbond:GLU:85    0
halogenbond:GLU:85    0
Name: 41, dtype: object

>  <halogenbond:ALA:86>  (43) 
halogenbond:ALA:86    0
halogenbond:ALA:86    0
Name: 41, dtype: object

>  <hbond:SER:87>  (43) 
hbond:SER:87    0
hbond:SER:87    0
Name: 41, dtype: object

>  <halogenbond:SER:87>  (43) 
halogenbond:SER:87    0
halogenbond:SER:87    0
Name: 41, dtype: object

>  <hbond:GLU:88>  (43) 
hbond:GLU:88    0
hbond:GLU:88    0
Name: 41, dtype: object

>  <halogenbond:GLU:88>  (43) 
halogenbond:GLU:88    0
halogenbond:GLU:88    0
Name: 41, dtype: object

>  <hydroph_interaction:TYR:89>  (43) 
hydroph_interaction:TYR:89    0
hydroph_interaction:TYR:89    0
Name: 41, dtype: object

>  <pistack:TYR:89>  (43) 
pistack:TYR:89    0
pistack:TYR:89    0
Name: 41, dtype: object

>  <hbond:TYR:89>  (43) 
hbond:TYR:89    0
hbond:TYR:89    0
Name: 41, dtype: object

>  <hbond:TYR:90>  (43) 
hbond:TYR:90    0
hbond:TYR:90    0
Name: 41, dtype: object

>  <hydroph_interaction:TYR:90>  (43) 
hydroph_interaction:TYR:90    0
hydroph_interaction:TYR:90    0
Name: 41, dtype: object

>  <pistack:TYR:90>  (43) 
pistack:TYR:90    0
pistack:TYR:90    0
Name: 41, dtype: object

>  <hbond:ARG:93>  (43) 
hbond:ARG:93    0
hbond:ARG:93    0
Name: 41, dtype: object

>  <saltbridge:ARG:93>  (43) 
saltbridge:ARG:93    0
saltbridge:ARG:93    0
Name: 41, dtype: object

>  <hydroph_interaction:ARG:93>  (43) 
hydroph_interaction:ARG:93    0
hydroph_interaction:ARG:93    0
Name: 41, dtype: object

>  <halogenbond:GLN:95>  (43) 
halogenbond:GLN:95    0
halogenbond:GLN:95    0
Name: 41, dtype: object

>  <hbond:GLN:95>  (43) 
hbond:GLN:95    0
hbond:GLN:95    0
Name: 41, dtype: object

>  <hydroph_interaction:GLN:95>  (43) 
hydroph_interaction:GLN:95    0
hydroph_interaction:GLN:95    0
Name: 41, dtype: object

>  <hydroph_interaction:LEU:98>  (43) 
hydroph_interaction:LEU:98    1
hydroph_interaction:LEU:98    1
Name: 41, dtype: object

>  <hydroph_interaction:LEU:100>  (43) 
hydroph_interaction:LEU:100    2
hydroph_interaction:LEU:100    2
Name: 41, dtype: object

>  <hbond:SER:105>  (43) 
hbond:SER:105    0
hbond:SER:105    0
Name: 41, dtype: object

>  <halogenbond:SER:105>  (43) 
halogenbond:SER:105    0
halogenbond:SER:105    0
Name: 41, dtype: object

>  <hydroph_interaction:PRO:107>  (43) 
hydroph_interaction:PRO:107    0
hydroph_interaction:PRO:107    0
Name: 41, dtype: object

>  <hbond:PRO:107>  (43) 
hbond:PRO:107    0
hbond:PRO:107    0
Name: 41, dtype: object

>  <halogenbond:PRO:107>  (43) 
halogenbond:PRO:107    0
halogenbond:PRO:107    0
Name: 41, dtype: object

>  <hbond:ASP:109>  (43) 
hbond:ASP:109    0
hbond:ASP:109    0
Name: 41, dtype: object

>  <hbond:CYS:110>  (43) 
hbond:CYS:110    0
hbond:CYS:110    0
Name: 41, dtype: object

>  <halogenbond:CYS:110>  (43) 
halogenbond:CYS:110    0
halogenbond:CYS:110    0
Name: 41, dtype: object

>  <hydroph_interaction:VAL:124>  (43) 
hydroph_interaction:VAL:124    0
hydroph_interaction:VAL:124    0
Name: 41, dtype: object

>  <hbond:SER:125>  (43) 
hbond:SER:125    0
hbond:SER:125    0
Name: 41, dtype: object

>  <halogenbond:SER:125>  (43) 
halogenbond:SER:125    0
halogenbond:SER:125    0
Name: 41, dtype: object

>  <hydroph_interaction:THR:126>  (43) 
hydroph_interaction:THR:126    0
hydroph_interaction:THR:126    0
Name: 41, dtype: object

>  <hbond:THR:126>  (43) 
hbond:THR:126    0
hbond:THR:126    0
Name: 41, dtype: object

>  <halogenbond:THR:126>  (43) 
halogenbond:THR:126    0
halogenbond:THR:126    0
Name: 41, dtype: object

>  <hbond:GLY:127>  (43) 
hbond:GLY:127    0
hbond:GLY:127    0
Name: 41, dtype: object

>  <halogenbond:GLY:127>  (43) 
halogenbond:GLY:127    0
halogenbond:GLY:127    0
Name: 41, dtype: object

>  <hbond:GLY:128>  (43) 
hbond:GLY:128    0
hbond:GLY:128    0
Name: 41, dtype: object

>  <hbond:ASN:129>  (43) 
hbond:ASN:129    0
hbond:ASN:129    0
Name: 41, dtype: object

>  <hydroph_interaction:ASN:129>  (43) 
hydroph_interaction:ASN:129    0
hydroph_interaction:ASN:129    0
Name: 41, dtype: object

>  <halogenbond:ASN:129>  (43) 
halogenbond:ASN:129    0
halogenbond:ASN:129    0
Name: 41, dtype: object

>  <hydroph_interaction:LEU:131>  (43) 
hydroph_interaction:LEU:131    1
hydroph_interaction:LEU:131    1
Name: 41, dtype: object

>  <hbond:LEU:131>  (43) 
hbond:LEU:131    0
hbond:LEU:131    0
Name: 41, dtype: object

>  <halogenbond:LEU:131>  (43) 
halogenbond:LEU:131    1
halogenbond:LEU:131    1
Name: 41, dtype: object

>  <hbond:VAL:132>  (43) 
hbond:VAL:132    0
hbond:VAL:132    0
Name: 41, dtype: object

$$$$
Z2769837291
     RDKit          3D

 18 19  0  0  0  0  0  0  0  0999 V2000
   33.9529    9.0112    5.6265 C   0  0  0  0  0  0  0  0  0  0  0  0
   32.8588    9.6583    6.3698 C   0  0  0  0  0  0  0  0  0  0  0  0
   31.9133    9.0475    7.2314 C   0  0  0  0  0  0  0  0  0  0  0  0
   30.9364    9.8299    7.8751 C   0  0  0  0  0  0  0  0  0  0  0  0
   30.9047   11.2180    7.6521 C   0  0  0  0  0  0  0  0  0  0  0  0
   29.9638   12.2191    8.2272 C   0  0  0  0  0  0  0  0  0  0  0  0
   29.4460   13.1474    7.2165 N   0  0  0  0  0  0  0  0  0  0  0  0
   28.3446   13.9418    7.7636 C   0  0  0  0  0  0  0  0  0  0  0  0
   27.0186   13.4612    7.2582 C   0  0  0  0  0  0  0  0  0  0  0  0
   26.0227   13.0133    8.2388 C   0  0  0  0  0  0  0  0  0  0  0  0
   24.8620   12.6063    7.4694 C   0  0  0  0  0  0  0  0  0  0  0  0
   23.5536   12.0630    7.9699 C   0  0  0  0  0  0  0  0  0  0  0  0
   25.1159   12.7943    6.1562 N   0  0  0  0  0  0  0  0  0  0  0  0
   26.3916   13.3129    6.0368 N   0  0  0  0  0  0  0  0  0  0  0  0
   26.8733   13.6308    4.7102 C   0  0  0  0  0  0  0  0  0  0  0  0
   31.8637   11.7325    6.7962 C   0  0  0  0  0  0  0  0  0  0  0  0
   31.9106   13.0208    6.5313 F   0  0  0  0  0  0  0  0  0  0  0  0
   32.8060   10.9896    6.1754 C   0  0  0  0  0  0  0  0  0  0  0  0
  1  2  1  0
  2  3  2  0
  3  4  1  0
  4  5  2  0
  5  6  1  0
  6  7  1  0
  7  8  1  0
  8  9  1  0
  9 10  2  0
 10 11  1  0
 11 12  1  0
 11 13  2  0
 13 14  1  0
 14 15  1  0
  5 16  1  0
 16 17  1  0
 16 18  2  0
 18  2  1  0
 14  9  1  0
A    1
 C1 
A    2
 C2 
A    3
 C3 
A    4
 C4 
A    5
 C5 
A    6
 C6 
A    7
 N1 
A    8
 C7 
A    9
 C8 
A   10
 C9 
A   11
 C10
A   12
 C11
A   13
 N2 
A   14
 N3 
A   15
 C12
A   16
 C13
A   17
 F1 
A   18
 C14
M  END
>  <ref_pdb>  (44) 
Ax0310a

>  <ref_mols>  (44) 
Ax0554a,Ax0554a

>  <original SMILES>  (44) 
Cc1ccc(CNCc2cc(C)nn2C)c(F)c1

>  <rationale>  (44) 
info halogenbond:S87; hbond:S87; hydroph_interaction:L22; pistack:Y89; 

>  <intxn_cluster_10>  (44) 
2

>  <intxn_cluster_rank_10>  (44) 
7

>  <N_interactions>  (44) 
4

>  <∆∆G>  (44) 
-10.095889

>  <$/mg>  (44) 
163.0

>  <comRMSD>  (44) 
0.815047

>  <N_rotatable_bonds>  (44) 
7

>  <deep_P1_sidechain>  (44) 
False

>  <farthest_distance_to_substrate>  (44) 
3.089888

>  <hbond:SER:7>  (44) 
hbond:SER:7    0
hbond:SER:7    0
Name: 42, dtype: object

>  <hydroph_interaction:ASN:19>  (44) 
hydroph_interaction:ASN:19    0
hydroph_interaction:ASN:19    0
Name: 42, dtype: object

>  <halogenbond:ASN:19>  (44) 
halogenbond:ASN:19    0
halogenbond:ASN:19    0
Name: 42, dtype: object

>  <hbond:ARG:20>  (44) 
hbond:ARG:20    0
hbond:ARG:20    0
Name: 42, dtype: object

>  <hydroph_interaction:ARG:20>  (44) 
hydroph_interaction:ARG:20    0
hydroph_interaction:ARG:20    0
Name: 42, dtype: object

>  <hbond:HIS:21>  (44) 
hbond:HIS:21    0
hbond:HIS:21    0
Name: 42, dtype: object

>  <hydroph_interaction:HIS:21>  (44) 
hydroph_interaction:HIS:21    0
hydroph_interaction:HIS:21    0
Name: 42, dtype: object

>  <saltbridge:HIS:21>  (44) 
saltbridge:HIS:21    0
saltbridge:HIS:21    0
Name: 42, dtype: object

>  <pistack:HIS:21>  (44) 
pistack:HIS:21    0
pistack:HIS:21    0
Name: 42, dtype: object

>  <pication:HIS:21>  (44) 
pication:HIS:21    0
pication:HIS:21    0
Name: 42, dtype: object

>  <hydroph_interaction:LEU:22>  (44) 
hydroph_interaction:LEU:22    1
hydroph_interaction:LEU:22    1
Name: 42, dtype: object

>  <hbond:SER:36>  (44) 
hbond:SER:36    0
hbond:SER:36    0
Name: 42, dtype: object

>  <hbond:ASP:39>  (44) 
hbond:ASP:39    0
hbond:ASP:39    0
Name: 42, dtype: object

>  <saltbridge:ASP:39>  (44) 
saltbridge:ASP:39    0
saltbridge:ASP:39    0
Name: 42, dtype: object

>  <hydroph_interaction:ASP:39>  (44) 
hydroph_interaction:ASP:39    0
hydroph_interaction:ASP:39    0
Name: 42, dtype: object

>  <halogenbond:ASP:39>  (44) 
halogenbond:ASP:39    0
halogenbond:ASP:39    0
Name: 42, dtype: object

>  <hydroph_interaction:ILE:82>  (44) 
hydroph_interaction:ILE:82    0
hydroph_interaction:ILE:82    0
Name: 42, dtype: object

>  <hydroph_interaction:PHE:83>  (44) 
hydroph_interaction:PHE:83    0
hydroph_interaction:PHE:83    0
Name: 42, dtype: object

>  <hbond:PHE:83>  (44) 
hbond:PHE:83    0
hbond:PHE:83    0
Name: 42, dtype: object

>  <halogenbond:PHE:83>  (44) 
halogenbond:PHE:83    0
halogenbond:PHE:83    0
Name: 42, dtype: object

>  <hydroph_interaction:VAL:84>  (44) 
hydroph_interaction:VAL:84    0
hydroph_interaction:VAL:84    0
Name: 42, dtype: object

>  <hydroph_interaction:GLU:85>  (44) 
hydroph_interaction:GLU:85    0
hydroph_interaction:GLU:85    0
Name: 42, dtype: object

>  <hbond:GLU:85>  (44) 
hbond:GLU:85    0
hbond:GLU:85    0
Name: 42, dtype: object

>  <halogenbond:GLU:85>  (44) 
halogenbond:GLU:85    0
halogenbond:GLU:85    0
Name: 42, dtype: object

>  <halogenbond:ALA:86>  (44) 
halogenbond:ALA:86    0
halogenbond:ALA:86    0
Name: 42, dtype: object

>  <hbond:SER:87>  (44) 
hbond:SER:87    1
hbond:SER:87    1
Name: 42, dtype: object

>  <halogenbond:SER:87>  (44) 
halogenbond:SER:87    1
halogenbond:SER:87    1
Name: 42, dtype: object

>  <hbond:GLU:88>  (44) 
hbond:GLU:88    0
hbond:GLU:88    0
Name: 42, dtype: object

>  <halogenbond:GLU:88>  (44) 
halogenbond:GLU:88    0
halogenbond:GLU:88    0
Name: 42, dtype: object

>  <hydroph_interaction:TYR:89>  (44) 
hydroph_interaction:TYR:89    0
hydroph_interaction:TYR:89    0
Name: 42, dtype: object

>  <pistack:TYR:89>  (44) 
pistack:TYR:89    1
pistack:TYR:89    1
Name: 42, dtype: object

>  <hbond:TYR:89>  (44) 
hbond:TYR:89    0
hbond:TYR:89    0
Name: 42, dtype: object

>  <hbond:TYR:90>  (44) 
hbond:TYR:90    0
hbond:TYR:90    0
Name: 42, dtype: object

>  <hydroph_interaction:TYR:90>  (44) 
hydroph_interaction:TYR:90    0
hydroph_interaction:TYR:90    0
Name: 42, dtype: object

>  <pistack:TYR:90>  (44) 
pistack:TYR:90    0
pistack:TYR:90    0
Name: 42, dtype: object

>  <hbond:ARG:93>  (44) 
hbond:ARG:93    0
hbond:ARG:93    0
Name: 42, dtype: object

>  <saltbridge:ARG:93>  (44) 
saltbridge:ARG:93    0
saltbridge:ARG:93    0
Name: 42, dtype: object

>  <hydroph_interaction:ARG:93>  (44) 
hydroph_interaction:ARG:93    0
hydroph_interaction:ARG:93    0
Name: 42, dtype: object

>  <halogenbond:GLN:95>  (44) 
halogenbond:GLN:95    0
halogenbond:GLN:95    0
Name: 42, dtype: object

>  <hbond:GLN:95>  (44) 
hbond:GLN:95    0
hbond:GLN:95    0
Name: 42, dtype: object

>  <hydroph_interaction:GLN:95>  (44) 
hydroph_interaction:GLN:95    0
hydroph_interaction:GLN:95    0
Name: 42, dtype: object

>  <hydroph_interaction:LEU:98>  (44) 
hydroph_interaction:LEU:98    0
hydroph_interaction:LEU:98    0
Name: 42, dtype: object

>  <hydroph_interaction:LEU:100>  (44) 
hydroph_interaction:LEU:100    0
hydroph_interaction:LEU:100    0
Name: 42, dtype: object

>  <hbond:SER:105>  (44) 
hbond:SER:105    0
hbond:SER:105    0
Name: 42, dtype: object

>  <halogenbond:SER:105>  (44) 
halogenbond:SER:105    0
halogenbond:SER:105    0
Name: 42, dtype: object

>  <hydroph_interaction:PRO:107>  (44) 
hydroph_interaction:PRO:107    0
hydroph_interaction:PRO:107    0
Name: 42, dtype: object

>  <hbond:PRO:107>  (44) 
hbond:PRO:107    0
hbond:PRO:107    0
Name: 42, dtype: object

>  <halogenbond:PRO:107>  (44) 
halogenbond:PRO:107    0
halogenbond:PRO:107    0
Name: 42, dtype: object

>  <hbond:ASP:109>  (44) 
hbond:ASP:109    0
hbond:ASP:109    0
Name: 42, dtype: object

>  <hbond:CYS:110>  (44) 
hbond:CYS:110    0
hbond:CYS:110    0
Name: 42, dtype: object

>  <halogenbond:CYS:110>  (44) 
halogenbond:CYS:110    0
halogenbond:CYS:110    0
Name: 42, dtype: object

>  <hydroph_interaction:VAL:124>  (44) 
hydroph_interaction:VAL:124    0
hydroph_interaction:VAL:124    0
Name: 42, dtype: object

>  <hbond:SER:125>  (44) 
hbond:SER:125    0
hbond:SER:125    0
Name: 42, dtype: object

>  <halogenbond:SER:125>  (44) 
halogenbond:SER:125    0
halogenbond:SER:125    0
Name: 42, dtype: object

>  <hydroph_interaction:THR:126>  (44) 
hydroph_interaction:THR:126    0
hydroph_interaction:THR:126    0
Name: 42, dtype: object

>  <hbond:THR:126>  (44) 
hbond:THR:126    0
hbond:THR:126    0
Name: 42, dtype: object

>  <halogenbond:THR:126>  (44) 
halogenbond:THR:126    0
halogenbond:THR:126    0
Name: 42, dtype: object

>  <hbond:GLY:127>  (44) 
hbond:GLY:127    0
hbond:GLY:127    0
Name: 42, dtype: object

>  <halogenbond:GLY:127>  (44) 
halogenbond:GLY:127    0
halogenbond:GLY:127    0
Name: 42, dtype: object

>  <hbond:GLY:128>  (44) 
hbond:GLY:128    0
hbond:GLY:128    0
Name: 42, dtype: object

>  <hbond:ASN:129>  (44) 
hbond:ASN:129    0
hbond:ASN:129    0
Name: 42, dtype: object

>  <hydroph_interaction:ASN:129>  (44) 
hydroph_interaction:ASN:129    0
hydroph_interaction:ASN:129    0
Name: 42, dtype: object

>  <halogenbond:ASN:129>  (44) 
halogenbond:ASN:129    0
halogenbond:ASN:129    0
Name: 42, dtype: object

>  <hydroph_interaction:LEU:131>  (44) 
hydroph_interaction:LEU:131    0
hydroph_interaction:LEU:131    0
Name: 42, dtype: object

>  <hbond:LEU:131>  (44) 
hbond:LEU:131    0
hbond:LEU:131    0
Name: 42, dtype: object

>  <halogenbond:LEU:131>  (44) 
halogenbond:LEU:131    0
halogenbond:LEU:131    0
Name: 42, dtype: object

>  <hbond:VAL:132>  (44) 
hbond:VAL:132    0
hbond:VAL:132    0
Name: 42, dtype: object

$$$$
Z3060016155
     RDKit          3D

 16 16  0  0  0  0  0  0  0  0999 V2000
   40.2555   13.9999   11.7560 C   0  0  0  0  0  0  0  0  0  0  0  0
   39.5500   12.8407   11.0682 C   0  0  1  0  0  0  0  0  0  0  0  0
   40.4836   12.0127   10.2522 N   0  0  0  0  0  0  0  0  0  0  0  0
   40.9398   12.5165    9.0053 C   0  0  0  0  0  0  0  0  0  0  0  0
   40.2207   12.5753    8.0107 O   0  0  0  0  0  0  0  0  0  0  0  0
   42.3242   12.9493    9.0195 C   0  0  0  0  0  0  0  0  0  0  0  0
   43.0034   13.8395    8.2224 C   0  0  0  0  0  0  0  0  0  0  0  0
   44.3517   13.9571    8.5974 C   0  0  0  0  0  0  0  0  0  0  0  0
   44.5027   13.1029    9.6687 C   0  0  0  0  0  0  0  0  0  0  0  0
   43.2838   12.5015    9.9162 N   0  0  0  0  0  0  0  0  0  0  0  0
   43.0556   11.5368   10.9775 C   0  0  0  0  0  0  0  0  0  0  0  0
   38.6450   11.9962   11.9623 C   0  0  0  0  0  0  0  0  0  0  0  0
   37.6191   12.8156   12.7386 C   0  0  0  0  0  0  0  0  0  0  0  0
   39.3932   11.3068   13.0951 C   0  0  0  0  0  0  0  0  0  0  0  0
   37.8482   10.9860   11.0978 C   0  0  0  0  0  0  0  0  0  0  0  0
   36.9475   10.2272   11.9047 O   0  0  0  0  0  0  0  0  0  0  0  0
  2  1  1  1
  2  3  1  0
  3  4  1  0
  4  5  2  0
  4  6  1  0
  6  7  2  0
  7  8  1  0
  8  9  2  0
  9 10  1  0
 10 11  1  0
  2 12  1  0
 12 13  1  0
 12 14  1  0
 12 15  1  0
 15 16  1  0
 10  6  1  0
A    1
 C1 
A    2
 C2 
A    3
 N1 
A    4
 C3 
A    5
 O1 
A    6
 C4 
A    7
 C5 
A    8
 C6 
A    9
 C7 
A   10
 N2 
A   11
 C8 
A   12
 C9 
A   13
 C10
A   14
 C11
A   15
 C12
A   16
 O2 
M  END
>  <ref_pdb>  (45) 
Ax0310a

>  <ref_mols>  (45) 
Ax0473a,Ax0416a

>  <original SMILES>  (45) 
CC(NC(=O)c1cccn1C)C(C)(C)CO

>  <rationale>  (45) 
info hbond:G128+L131; hydroph_interaction:V84+L100+L131; 

>  <intxn_cluster_10>  (45) 
4

>  <intxn_cluster_rank_10>  (45) 
2

>  <N_interactions>  (45) 
5

>  <∆∆G>  (45) 
-8.034316

>  <$/mg>  (45) 
0.0

>  <comRMSD>  (45) 
0.886324

>  <N_rotatable_bonds>  (45) 
9

>  <deep_P1_sidechain>  (45) 
False

>  <farthest_distance_to_substrate>  (45) 
4.676594

>  <hbond:SER:7>  (45) 
hbond:SER:7    0
hbond:SER:7    0
Name: 43, dtype: object

>  <hydroph_interaction:ASN:19>  (45) 
hydroph_interaction:ASN:19    0
hydroph_interaction:ASN:19    0
Name: 43, dtype: object

>  <halogenbond:ASN:19>  (45) 
halogenbond:ASN:19    0
halogenbond:ASN:19    0
Name: 43, dtype: object

>  <hbond:ARG:20>  (45) 
hbond:ARG:20    0
hbond:ARG:20    0
Name: 43, dtype: object

>  <hydroph_interaction:ARG:20>  (45) 
hydroph_interaction:ARG:20    0
hydroph_interaction:ARG:20    0
Name: 43, dtype: object

>  <hbond:HIS:21>  (45) 
hbond:HIS:21    0
hbond:HIS:21    0
Name: 43, dtype: object

>  <hydroph_interaction:HIS:21>  (45) 
hydroph_interaction:HIS:21    0
hydroph_interaction:HIS:21    0
Name: 43, dtype: object

>  <saltbridge:HIS:21>  (45) 
saltbridge:HIS:21    0
saltbridge:HIS:21    0
Name: 43, dtype: object

>  <pistack:HIS:21>  (45) 
pistack:HIS:21    0
pistack:HIS:21    0
Name: 43, dtype: object

>  <pication:HIS:21>  (45) 
pication:HIS:21    0
pication:HIS:21    0
Name: 43, dtype: object

>  <hydroph_interaction:LEU:22>  (45) 
hydroph_interaction:LEU:22    0
hydroph_interaction:LEU:22    0
Name: 43, dtype: object

>  <hbond:SER:36>  (45) 
hbond:SER:36    0
hbond:SER:36    0
Name: 43, dtype: object

>  <hbond:ASP:39>  (45) 
hbond:ASP:39    0
hbond:ASP:39    0
Name: 43, dtype: object

>  <saltbridge:ASP:39>  (45) 
saltbridge:ASP:39    0
saltbridge:ASP:39    0
Name: 43, dtype: object

>  <hydroph_interaction:ASP:39>  (45) 
hydroph_interaction:ASP:39    0
hydroph_interaction:ASP:39    0
Name: 43, dtype: object

>  <halogenbond:ASP:39>  (45) 
halogenbond:ASP:39    0
halogenbond:ASP:39    0
Name: 43, dtype: object

>  <hydroph_interaction:ILE:82>  (45) 
hydroph_interaction:ILE:82    0
hydroph_interaction:ILE:82    0
Name: 43, dtype: object

>  <hydroph_interaction:PHE:83>  (45) 
hydroph_interaction:PHE:83    0
hydroph_interaction:PHE:83    0
Name: 43, dtype: object

>  <hbond:PHE:83>  (45) 
hbond:PHE:83    0
hbond:PHE:83    0
Name: 43, dtype: object

>  <halogenbond:PHE:83>  (45) 
halogenbond:PHE:83    0
halogenbond:PHE:83    0
Name: 43, dtype: object

>  <hydroph_interaction:VAL:84>  (45) 
hydroph_interaction:VAL:84    1
hydroph_interaction:VAL:84    1
Name: 43, dtype: object

>  <hydroph_interaction:GLU:85>  (45) 
hydroph_interaction:GLU:85    0
hydroph_interaction:GLU:85    0
Name: 43, dtype: object

>  <hbond:GLU:85>  (45) 
hbond:GLU:85    0
hbond:GLU:85    0
Name: 43, dtype: object

>  <halogenbond:GLU:85>  (45) 
halogenbond:GLU:85    0
halogenbond:GLU:85    0
Name: 43, dtype: object

>  <halogenbond:ALA:86>  (45) 
halogenbond:ALA:86    0
halogenbond:ALA:86    0
Name: 43, dtype: object

>  <hbond:SER:87>  (45) 
hbond:SER:87    0
hbond:SER:87    0
Name: 43, dtype: object

>  <halogenbond:SER:87>  (45) 
halogenbond:SER:87    0
halogenbond:SER:87    0
Name: 43, dtype: object

>  <hbond:GLU:88>  (45) 
hbond:GLU:88    0
hbond:GLU:88    0
Name: 43, dtype: object

>  <halogenbond:GLU:88>  (45) 
halogenbond:GLU:88    0
halogenbond:GLU:88    0
Name: 43, dtype: object

>  <hydroph_interaction:TYR:89>  (45) 
hydroph_interaction:TYR:89    0
hydroph_interaction:TYR:89    0
Name: 43, dtype: object

>  <pistack:TYR:89>  (45) 
pistack:TYR:89    0
pistack:TYR:89    0
Name: 43, dtype: object

>  <hbond:TYR:89>  (45) 
hbond:TYR:89    0
hbond:TYR:89    0
Name: 43, dtype: object

>  <hbond:TYR:90>  (45) 
hbond:TYR:90    0
hbond:TYR:90    0
Name: 43, dtype: object

>  <hydroph_interaction:TYR:90>  (45) 
hydroph_interaction:TYR:90    0
hydroph_interaction:TYR:90    0
Name: 43, dtype: object

>  <pistack:TYR:90>  (45) 
pistack:TYR:90    0
pistack:TYR:90    0
Name: 43, dtype: object

>  <hbond:ARG:93>  (45) 
hbond:ARG:93    0
hbond:ARG:93    0
Name: 43, dtype: object

>  <saltbridge:ARG:93>  (45) 
saltbridge:ARG:93    0
saltbridge:ARG:93    0
Name: 43, dtype: object

>  <hydroph_interaction:ARG:93>  (45) 
hydroph_interaction:ARG:93    0
hydroph_interaction:ARG:93    0
Name: 43, dtype: object

>  <halogenbond:GLN:95>  (45) 
halogenbond:GLN:95    0
halogenbond:GLN:95    0
Name: 43, dtype: object

>  <hbond:GLN:95>  (45) 
hbond:GLN:95    0
hbond:GLN:95    0
Name: 43, dtype: object

>  <hydroph_interaction:GLN:95>  (45) 
hydroph_interaction:GLN:95    0
hydroph_interaction:GLN:95    0
Name: 43, dtype: object

>  <hydroph_interaction:LEU:98>  (45) 
hydroph_interaction:LEU:98    0
hydroph_interaction:LEU:98    0
Name: 43, dtype: object

>  <hydroph_interaction:LEU:100>  (45) 
hydroph_interaction:LEU:100    1
hydroph_interaction:LEU:100    1
Name: 43, dtype: object

>  <hbond:SER:105>  (45) 
hbond:SER:105    0
hbond:SER:105    0
Name: 43, dtype: object

>  <halogenbond:SER:105>  (45) 
halogenbond:SER:105    0
halogenbond:SER:105    0
Name: 43, dtype: object

>  <hydroph_interaction:PRO:107>  (45) 
hydroph_interaction:PRO:107    0
hydroph_interaction:PRO:107    0
Name: 43, dtype: object

>  <hbond:PRO:107>  (45) 
hbond:PRO:107    0
hbond:PRO:107    0
Name: 43, dtype: object

>  <halogenbond:PRO:107>  (45) 
halogenbond:PRO:107    0
halogenbond:PRO:107    0
Name: 43, dtype: object

>  <hbond:ASP:109>  (45) 
hbond:ASP:109    0
hbond:ASP:109    0
Name: 43, dtype: object

>  <hbond:CYS:110>  (45) 
hbond:CYS:110    0
hbond:CYS:110    0
Name: 43, dtype: object

>  <halogenbond:CYS:110>  (45) 
halogenbond:CYS:110    0
halogenbond:CYS:110    0
Name: 43, dtype: object

>  <hydroph_interaction:VAL:124>  (45) 
hydroph_interaction:VAL:124    0
hydroph_interaction:VAL:124    0
Name: 43, dtype: object

>  <hbond:SER:125>  (45) 
hbond:SER:125    0
hbond:SER:125    0
Name: 43, dtype: object

>  <halogenbond:SER:125>  (45) 
halogenbond:SER:125    0
halogenbond:SER:125    0
Name: 43, dtype: object

>  <hydroph_interaction:THR:126>  (45) 
hydroph_interaction:THR:126    0
hydroph_interaction:THR:126    0
Name: 43, dtype: object

>  <hbond:THR:126>  (45) 
hbond:THR:126    0
hbond:THR:126    0
Name: 43, dtype: object

>  <halogenbond:THR:126>  (45) 
halogenbond:THR:126    0
halogenbond:THR:126    0
Name: 43, dtype: object

>  <hbond:GLY:127>  (45) 
hbond:GLY:127    0
hbond:GLY:127    0
Name: 43, dtype: object

>  <halogenbond:GLY:127>  (45) 
halogenbond:GLY:127    0
halogenbond:GLY:127    0
Name: 43, dtype: object

>  <hbond:GLY:128>  (45) 
hbond:GLY:128    1
hbond:GLY:128    1
Name: 43, dtype: object

>  <hbond:ASN:129>  (45) 
hbond:ASN:129    0
hbond:ASN:129    0
Name: 43, dtype: object

>  <hydroph_interaction:ASN:129>  (45) 
hydroph_interaction:ASN:129    0
hydroph_interaction:ASN:129    0
Name: 43, dtype: object

>  <halogenbond:ASN:129>  (45) 
halogenbond:ASN:129    0
halogenbond:ASN:129    0
Name: 43, dtype: object

>  <hydroph_interaction:LEU:131>  (45) 
hydroph_interaction:LEU:131    1
hydroph_interaction:LEU:131    1
Name: 43, dtype: object

>  <hbond:LEU:131>  (45) 
hbond:LEU:131    1
hbond:LEU:131    1
Name: 43, dtype: object

>  <halogenbond:LEU:131>  (45) 
halogenbond:LEU:131    0
halogenbond:LEU:131    0
Name: 43, dtype: object

>  <hbond:VAL:132>  (45) 
hbond:VAL:132    0
hbond:VAL:132    0
Name: 43, dtype: object

$$$$
Z3612982914
     RDKit          3D

 19 20  0  0  0  0  0  0  0  0999 V2000
   27.7483   15.6920    9.0213 C   0  0  0  0  0  0  0  0  0  0  0  0
   27.6202   14.6276    8.0307 C   0  0  0  0  0  0  0  0  0  0  0  0
   26.6202   14.5657    7.1692 N   0  0  0  0  0  0  0  0  0  0  0  0
   26.8355   13.4660    6.4357 N   0  0  0  0  0  0  0  0  0  0  0  0
   25.8989   13.0933    5.3639 C   0  0  0  0  0  0  0  0  0  0  0  0
   26.4000   13.3432    4.1260 F   0  0  0  0  0  0  0  0  0  0  0  0
   25.5573   11.7765    5.3932 F   0  0  0  0  0  0  0  0  0  0  0  0
   27.9598   12.8380    6.8259 C   0  0  0  0  0  0  0  0  0  0  0  0
   28.4864   13.5758    7.8421 C   0  0  0  0  0  0  0  0  0  0  0  0
   29.6326   13.2954    8.4737 N   0  0  0  0  0  0  0  0  0  0  0  0
   30.5622   12.9872    7.5514 C   0  0  0  0  0  0  0  0  0  0  0  0
   30.9911   13.6737    6.6835 O   0  0  0  0  0  0  0  0  0  0  0  0
   31.0092   11.6695    7.5302 C   0  0  0  0  0  0  0  0  0  0  0  0
   30.5359   10.7432    8.3272 N   0  0  0  0  0  0  0  0  0  0  0  0
   31.2171    9.6835    7.9606 N   0  0  0  0  0  0  0  0  0  0  0  0
   30.9129    8.5042    8.6742 C   0  0  0  0  0  0  0  0  0  0  0  0
   32.1108    9.9307    6.9415 C   0  0  0  0  0  0  0  0  0  0  0  0
   33.0139    9.0142    6.2919 C   0  0  0  0  0  0  0  0  0  0  0  0
   31.9855   11.2160    6.6556 C   0  0  0  0  0  0  0  0  0  0  0  0
  1  2  1  0
  2  3  2  0
  3  4  1  0
  4  5  1  0
  5  6  1  0
  5  7  1  0
  4  8  1  0
  8  9  2  0
  9 10  1  0
 10 11  1  0
 11 12  2  0
 11 13  1  0
 13 14  2  0
 14 15  1  0
 15 16  1  0
 15 17  1  0
 17 18  1  0
 17 19  2  0
  9  2  1  0
 19 13  1  0
A    1
 C1 
A    2
 C2 
A    3
 N1 
A    4
 N2 
A    5
 C3 
A    6
 F1 
A    7
 F2 
A    8
 C4 
A    9
 C5 
A   10
 N3 
A   11
 C6 
A   12
 O1 
A   13
 C7 
A   14
 N4 
A   15
 N5 
A   16
 C8 
A   17
 C9 
A   18
 C10
A   19
 C11
M  END
>  <ref_pdb>  (46) 
Ax0310a

>  <ref_mols>  (46) 
Ax0451a,Ax0416a

>  <original SMILES>  (46) 
Cc1nn(C(F)F)cc1NC(=O)c1cc(C)n(C)n1

>  <rationale>  (46) 
info halogenbond:P107; hbond:S125; hydroph_interaction:P107+Y89+Y90; pication:H21; 

>  <intxn_cluster_10>  (46) 
9

>  <intxn_cluster_rank_10>  (46) 
5

>  <N_interactions>  (46) 
6

>  <∆∆G>  (46) 
-7.560999

>  <$/mg>  (46) 
0.0

>  <comRMSD>  (46) 
0.583088

>  <N_rotatable_bonds>  (46) 
6

>  <deep_P1_sidechain>  (46) 
False

>  <farthest_distance_to_substrate>  (46) 
2.92278

>  <hbond:SER:7>  (46) 
hbond:SER:7    0
hbond:SER:7    0
Name: 44, dtype: object

>  <hydroph_interaction:ASN:19>  (46) 
hydroph_interaction:ASN:19    0
hydroph_interaction:ASN:19    0
Name: 44, dtype: object

>  <halogenbond:ASN:19>  (46) 
halogenbond:ASN:19    0
halogenbond:ASN:19    0
Name: 44, dtype: object

>  <hbond:ARG:20>  (46) 
hbond:ARG:20    0
hbond:ARG:20    0
Name: 44, dtype: object

>  <hydroph_interaction:ARG:20>  (46) 
hydroph_interaction:ARG:20    0
hydroph_interaction:ARG:20    0
Name: 44, dtype: object

>  <hbond:HIS:21>  (46) 
hbond:HIS:21    0
hbond:HIS:21    0
Name: 44, dtype: object

>  <hydroph_interaction:HIS:21>  (46) 
hydroph_interaction:HIS:21    0
hydroph_interaction:HIS:21    0
Name: 44, dtype: object

>  <saltbridge:HIS:21>  (46) 
saltbridge:HIS:21    0
saltbridge:HIS:21    0
Name: 44, dtype: object

>  <pistack:HIS:21>  (46) 
pistack:HIS:21    0
pistack:HIS:21    0
Name: 44, dtype: object

>  <pication:HIS:21>  (46) 
pication:HIS:21    1
pication:HIS:21    1
Name: 44, dtype: object

>  <hydroph_interaction:LEU:22>  (46) 
hydroph_interaction:LEU:22    0
hydroph_interaction:LEU:22    0
Name: 44, dtype: object

>  <hbond:SER:36>  (46) 
hbond:SER:36    0
hbond:SER:36    0
Name: 44, dtype: object

>  <hbond:ASP:39>  (46) 
hbond:ASP:39    0
hbond:ASP:39    0
Name: 44, dtype: object

>  <saltbridge:ASP:39>  (46) 
saltbridge:ASP:39    0
saltbridge:ASP:39    0
Name: 44, dtype: object

>  <hydroph_interaction:ASP:39>  (46) 
hydroph_interaction:ASP:39    0
hydroph_interaction:ASP:39    0
Name: 44, dtype: object

>  <halogenbond:ASP:39>  (46) 
halogenbond:ASP:39    0
halogenbond:ASP:39    0
Name: 44, dtype: object

>  <hydroph_interaction:ILE:82>  (46) 
hydroph_interaction:ILE:82    0
hydroph_interaction:ILE:82    0
Name: 44, dtype: object

>  <hydroph_interaction:PHE:83>  (46) 
hydroph_interaction:PHE:83    0
hydroph_interaction:PHE:83    0
Name: 44, dtype: object

>  <hbond:PHE:83>  (46) 
hbond:PHE:83    0
hbond:PHE:83    0
Name: 44, dtype: object

>  <halogenbond:PHE:83>  (46) 
halogenbond:PHE:83    0
halogenbond:PHE:83    0
Name: 44, dtype: object

>  <hydroph_interaction:VAL:84>  (46) 
hydroph_interaction:VAL:84    0
hydroph_interaction:VAL:84    0
Name: 44, dtype: object

>  <hydroph_interaction:GLU:85>  (46) 
hydroph_interaction:GLU:85    0
hydroph_interaction:GLU:85    0
Name: 44, dtype: object

>  <hbond:GLU:85>  (46) 
hbond:GLU:85    0
hbond:GLU:85    0
Name: 44, dtype: object

>  <halogenbond:GLU:85>  (46) 
halogenbond:GLU:85    0
halogenbond:GLU:85    0
Name: 44, dtype: object

>  <halogenbond:ALA:86>  (46) 
halogenbond:ALA:86    0
halogenbond:ALA:86    0
Name: 44, dtype: object

>  <hbond:SER:87>  (46) 
hbond:SER:87    0
hbond:SER:87    0
Name: 44, dtype: object

>  <halogenbond:SER:87>  (46) 
halogenbond:SER:87    0
halogenbond:SER:87    0
Name: 44, dtype: object

>  <hbond:GLU:88>  (46) 
hbond:GLU:88    0
hbond:GLU:88    0
Name: 44, dtype: object

>  <halogenbond:GLU:88>  (46) 
halogenbond:GLU:88    0
halogenbond:GLU:88    0
Name: 44, dtype: object

>  <hydroph_interaction:TYR:89>  (46) 
hydroph_interaction:TYR:89    1
hydroph_interaction:TYR:89    1
Name: 44, dtype: object

>  <pistack:TYR:89>  (46) 
pistack:TYR:89    0
pistack:TYR:89    0
Name: 44, dtype: object

>  <hbond:TYR:89>  (46) 
hbond:TYR:89    0
hbond:TYR:89    0
Name: 44, dtype: object

>  <hbond:TYR:90>  (46) 
hbond:TYR:90    0
hbond:TYR:90    0
Name: 44, dtype: object

>  <hydroph_interaction:TYR:90>  (46) 
hydroph_interaction:TYR:90    1
hydroph_interaction:TYR:90    1
Name: 44, dtype: object

>  <pistack:TYR:90>  (46) 
pistack:TYR:90    0
pistack:TYR:90    0
Name: 44, dtype: object

>  <hbond:ARG:93>  (46) 
hbond:ARG:93    0
hbond:ARG:93    0
Name: 44, dtype: object

>  <saltbridge:ARG:93>  (46) 
saltbridge:ARG:93    0
saltbridge:ARG:93    0
Name: 44, dtype: object

>  <hydroph_interaction:ARG:93>  (46) 
hydroph_interaction:ARG:93    0
hydroph_interaction:ARG:93    0
Name: 44, dtype: object

>  <halogenbond:GLN:95>  (46) 
halogenbond:GLN:95    0
halogenbond:GLN:95    0
Name: 44, dtype: object

>  <hbond:GLN:95>  (46) 
hbond:GLN:95    0
hbond:GLN:95    0
Name: 44, dtype: object

>  <hydroph_interaction:GLN:95>  (46) 
hydroph_interaction:GLN:95    0
hydroph_interaction:GLN:95    0
Name: 44, dtype: object

>  <hydroph_interaction:LEU:98>  (46) 
hydroph_interaction:LEU:98    0
hydroph_interaction:LEU:98    0
Name: 44, dtype: object

>  <hydroph_interaction:LEU:100>  (46) 
hydroph_interaction:LEU:100    0
hydroph_interaction:LEU:100    0
Name: 44, dtype: object

>  <hbond:SER:105>  (46) 
hbond:SER:105    0
hbond:SER:105    0
Name: 44, dtype: object

>  <halogenbond:SER:105>  (46) 
halogenbond:SER:105    0
halogenbond:SER:105    0
Name: 44, dtype: object

>  <hydroph_interaction:PRO:107>  (46) 
hydroph_interaction:PRO:107    1
hydroph_interaction:PRO:107    1
Name: 44, dtype: object

>  <hbond:PRO:107>  (46) 
hbond:PRO:107    0
hbond:PRO:107    0
Name: 44, dtype: object

>  <halogenbond:PRO:107>  (46) 
halogenbond:PRO:107    1
halogenbond:PRO:107    1
Name: 44, dtype: object

>  <hbond:ASP:109>  (46) 
hbond:ASP:109    0
hbond:ASP:109    0
Name: 44, dtype: object

>  <hbond:CYS:110>  (46) 
hbond:CYS:110    0
hbond:CYS:110    0
Name: 44, dtype: object

>  <halogenbond:CYS:110>  (46) 
halogenbond:CYS:110    0
halogenbond:CYS:110    0
Name: 44, dtype: object

>  <hydroph_interaction:VAL:124>  (46) 
hydroph_interaction:VAL:124    0
hydroph_interaction:VAL:124    0
Name: 44, dtype: object

>  <hbond:SER:125>  (46) 
hbond:SER:125    1
hbond:SER:125    1
Name: 44, dtype: object

>  <halogenbond:SER:125>  (46) 
halogenbond:SER:125    0
halogenbond:SER:125    0
Name: 44, dtype: object

>  <hydroph_interaction:THR:126>  (46) 
hydroph_interaction:THR:126    0
hydroph_interaction:THR:126    0
Name: 44, dtype: object

>  <hbond:THR:126>  (46) 
hbond:THR:126    0
hbond:THR:126    0
Name: 44, dtype: object

>  <halogenbond:THR:126>  (46) 
halogenbond:THR:126    0
halogenbond:THR:126    0
Name: 44, dtype: object

>  <hbond:GLY:127>  (46) 
hbond:GLY:127    0
hbond:GLY:127    0
Name: 44, dtype: object

>  <halogenbond:GLY:127>  (46) 
halogenbond:GLY:127    0
halogenbond:GLY:127    0
Name: 44, dtype: object

>  <hbond:GLY:128>  (46) 
hbond:GLY:128    0
hbond:GLY:128    0
Name: 44, dtype: object

>  <hbond:ASN:129>  (46) 
hbond:ASN:129    0
hbond:ASN:129    0
Name: 44, dtype: object

>  <hydroph_interaction:ASN:129>  (46) 
hydroph_interaction:ASN:129    0
hydroph_interaction:ASN:129    0
Name: 44, dtype: object

>  <halogenbond:ASN:129>  (46) 
halogenbond:ASN:129    0
halogenbond:ASN:129    0
Name: 44, dtype: object

>  <hydroph_interaction:LEU:131>  (46) 
hydroph_interaction:LEU:131    0
hydroph_interaction:LEU:131    0
Name: 44, dtype: object

>  <hbond:LEU:131>  (46) 
hbond:LEU:131    0
hbond:LEU:131    0
Name: 44, dtype: object

>  <halogenbond:LEU:131>  (46) 
halogenbond:LEU:131    0
halogenbond:LEU:131    0
Name: 44, dtype: object

>  <hbond:VAL:132>  (46) 
hbond:VAL:132    0
hbond:VAL:132    0
Name: 44, dtype: object

$$$$
Z4033980364
     RDKit          3D

 17 17  0  0  0  0  0  0  0  0999 V2000
   32.6951   10.7681    6.1125 C   0  0  0  0  0  0  0  0  0  0  0  0
   31.7306   11.7062    6.8346 C   0  0  0  0  0  0  0  0  0  0  0  0
   30.7738   10.9736    7.6713 N   0  0  0  0  0  0  0  0  0  0  0  0
   29.7769   11.6776    8.3693 N   0  0  0  0  0  0  0  0  0  0  0  0
   29.1336   12.5524    7.6122 C   0  0  0  0  0  0  0  0  0  0  0  0
   29.1156   12.4238    6.4014 O   0  0  0  0  0  0  0  0  0  0  0  0
   28.4427   13.8297    8.1705 C   0  0  0  0  0  0  0  0  0  0  0  0
   28.2210   14.8150    7.2755 C   0  0  0  0  0  0  0  0  0  0  0  0
   28.1304   13.9358    9.4801 C   0  0  0  0  0  0  0  0  0  0  0  0
   27.6243   15.1796   10.1511 C   0  0  0  0  0  0  0  0  0  0  0  0
   27.9367   15.6265   11.4375 C   0  0  0  0  0  0  0  0  0  0  0  0
   27.4199   16.8085   11.8496 C   0  0  0  0  0  0  0  0  0  0  0  0
   26.6705   17.1861   10.6976 C   0  0  0  0  0  0  0  0  0  0  0  0
   26.7975   16.2033    9.6918 O   0  0  0  0  0  0  0  0  0  0  0  0
   31.0132    9.6039    7.8968 C   0  0  0  0  0  0  0  0  0  0  0  0
   30.3596    9.0204    8.9147 N   0  0  0  0  0  0  0  0  0  0  0  0
   31.7804    8.8874    7.2584 O   0  0  0  0  0  0  0  0  0  0  0  0
  1  2  1  0
  2  3  1  0
  3  4  1  0
  4  5  1  0
  5  6  2  0
  5  7  1  0
  7  8  1  0
  7  9  2  3
  9 10  1  0
 10 11  2  0
 11 12  1  0
 12 13  2  0
 13 14  1  0
  3 15  1  0
 15 16  1  0
 15 17  2  0
 14 10  1  0
A    1
 C1 
A    2
 C2 
A    3
 N1 
A    4
 N2 
A    5
 C3 
A    6
 O1 
A    7
 C4 
A    8
 C5 
A    9
 C6 
A   10
 C7 
A   11
 C8 
A   12
 C9 
A   13
 C10
A   14
 O2 
A   15
 C11
A   16
 N3 
A   17
 O3 
M  END
>  <ref_pdb>  (47) 
Ax0310a

>  <ref_mols>  (47) 
Ax0554a,Ax0732a

>  <original SMILES>  (47) 
CCN(NC(=O)C(C)=Cc1ccco1)C(N)=O

>  <rationale>  (47) 
info hbond:S125+S105+S87; hydroph_interaction:P107+Y89+Y90+D39; pistack:Y90; 

>  <intxn_cluster_10>  (47) 
4

>  <intxn_cluster_rank_10>  (47) 
8

>  <N_interactions>  (47) 
9

>  <∆∆G>  (47) 
-6.235297

>  <$/mg>  (47) 
163.0

>  <comRMSD>  (47) 
0.968615

>  <N_rotatable_bonds>  (47) 
5

>  <deep_P1_sidechain>  (47) 
True

>  <farthest_distance_to_substrate>  (47) 
2.22412

>  <hbond:SER:7>  (47) 
hbond:SER:7    0
hbond:SER:7    0
Name: 45, dtype: object

>  <hydroph_interaction:ASN:19>  (47) 
hydroph_interaction:ASN:19    0
hydroph_interaction:ASN:19    0
Name: 45, dtype: object

>  <halogenbond:ASN:19>  (47) 
halogenbond:ASN:19    0
halogenbond:ASN:19    0
Name: 45, dtype: object

>  <hbond:ARG:20>  (47) 
hbond:ARG:20    0
hbond:ARG:20    0
Name: 45, dtype: object

>  <hydroph_interaction:ARG:20>  (47) 
hydroph_interaction:ARG:20    0
hydroph_interaction:ARG:20    0
Name: 45, dtype: object

>  <hbond:HIS:21>  (47) 
hbond:HIS:21    0
hbond:HIS:21    0
Name: 45, dtype: object

>  <hydroph_interaction:HIS:21>  (47) 
hydroph_interaction:HIS:21    0
hydroph_interaction:HIS:21    0
Name: 45, dtype: object

>  <saltbridge:HIS:21>  (47) 
saltbridge:HIS:21    0
saltbridge:HIS:21    0
Name: 45, dtype: object

>  <pistack:HIS:21>  (47) 
pistack:HIS:21    0
pistack:HIS:21    0
Name: 45, dtype: object

>  <pication:HIS:21>  (47) 
pication:HIS:21    0
pication:HIS:21    0
Name: 45, dtype: object

>  <hydroph_interaction:LEU:22>  (47) 
hydroph_interaction:LEU:22    0
hydroph_interaction:LEU:22    0
Name: 45, dtype: object

>  <hbond:SER:36>  (47) 
hbond:SER:36    0
hbond:SER:36    0
Name: 45, dtype: object

>  <hbond:ASP:39>  (47) 
hbond:ASP:39    0
hbond:ASP:39    0
Name: 45, dtype: object

>  <saltbridge:ASP:39>  (47) 
saltbridge:ASP:39    0
saltbridge:ASP:39    0
Name: 45, dtype: object

>  <hydroph_interaction:ASP:39>  (47) 
hydroph_interaction:ASP:39    1
hydroph_interaction:ASP:39    1
Name: 45, dtype: object

>  <halogenbond:ASP:39>  (47) 
halogenbond:ASP:39    0
halogenbond:ASP:39    0
Name: 45, dtype: object

>  <hydroph_interaction:ILE:82>  (47) 
hydroph_interaction:ILE:82    0
hydroph_interaction:ILE:82    0
Name: 45, dtype: object

>  <hydroph_interaction:PHE:83>  (47) 
hydroph_interaction:PHE:83    0
hydroph_interaction:PHE:83    0
Name: 45, dtype: object

>  <hbond:PHE:83>  (47) 
hbond:PHE:83    0
hbond:PHE:83    0
Name: 45, dtype: object

>  <halogenbond:PHE:83>  (47) 
halogenbond:PHE:83    0
halogenbond:PHE:83    0
Name: 45, dtype: object

>  <hydroph_interaction:VAL:84>  (47) 
hydroph_interaction:VAL:84    0
hydroph_interaction:VAL:84    0
Name: 45, dtype: object

>  <hydroph_interaction:GLU:85>  (47) 
hydroph_interaction:GLU:85    0
hydroph_interaction:GLU:85    0
Name: 45, dtype: object

>  <hbond:GLU:85>  (47) 
hbond:GLU:85    0
hbond:GLU:85    0
Name: 45, dtype: object

>  <halogenbond:GLU:85>  (47) 
halogenbond:GLU:85    0
halogenbond:GLU:85    0
Name: 45, dtype: object

>  <halogenbond:ALA:86>  (47) 
halogenbond:ALA:86    0
halogenbond:ALA:86    0
Name: 45, dtype: object

>  <hbond:SER:87>  (47) 
hbond:SER:87    1
hbond:SER:87    1
Name: 45, dtype: object

>  <halogenbond:SER:87>  (47) 
halogenbond:SER:87    0
halogenbond:SER:87    0
Name: 45, dtype: object

>  <hbond:GLU:88>  (47) 
hbond:GLU:88    0
hbond:GLU:88    0
Name: 45, dtype: object

>  <halogenbond:GLU:88>  (47) 
halogenbond:GLU:88    0
halogenbond:GLU:88    0
Name: 45, dtype: object

>  <hydroph_interaction:TYR:89>  (47) 
hydroph_interaction:TYR:89    1
hydroph_interaction:TYR:89    1
Name: 45, dtype: object

>  <pistack:TYR:89>  (47) 
pistack:TYR:89    0
pistack:TYR:89    0
Name: 45, dtype: object

>  <hbond:TYR:89>  (47) 
hbond:TYR:89    0
hbond:TYR:89    0
Name: 45, dtype: object

>  <hbond:TYR:90>  (47) 
hbond:TYR:90    0
hbond:TYR:90    0
Name: 45, dtype: object

>  <hydroph_interaction:TYR:90>  (47) 
hydroph_interaction:TYR:90    1
hydroph_interaction:TYR:90    1
Name: 45, dtype: object

>  <pistack:TYR:90>  (47) 
pistack:TYR:90    1
pistack:TYR:90    1
Name: 45, dtype: object

>  <hbond:ARG:93>  (47) 
hbond:ARG:93    0
hbond:ARG:93    0
Name: 45, dtype: object

>  <saltbridge:ARG:93>  (47) 
saltbridge:ARG:93    0
saltbridge:ARG:93    0
Name: 45, dtype: object

>  <hydroph_interaction:ARG:93>  (47) 
hydroph_interaction:ARG:93    0
hydroph_interaction:ARG:93    0
Name: 45, dtype: object

>  <halogenbond:GLN:95>  (47) 
halogenbond:GLN:95    0
halogenbond:GLN:95    0
Name: 45, dtype: object

>  <hbond:GLN:95>  (47) 
hbond:GLN:95    0
hbond:GLN:95    0
Name: 45, dtype: object

>  <hydroph_interaction:GLN:95>  (47) 
hydroph_interaction:GLN:95    0
hydroph_interaction:GLN:95    0
Name: 45, dtype: object

>  <hydroph_interaction:LEU:98>  (47) 
hydroph_interaction:LEU:98    0
hydroph_interaction:LEU:98    0
Name: 45, dtype: object

>  <hydroph_interaction:LEU:100>  (47) 
hydroph_interaction:LEU:100    0
hydroph_interaction:LEU:100    0
Name: 45, dtype: object

>  <hbond:SER:105>  (47) 
hbond:SER:105    2
hbond:SER:105    2
Name: 45, dtype: object

>  <halogenbond:SER:105>  (47) 
halogenbond:SER:105    0
halogenbond:SER:105    0
Name: 45, dtype: object

>  <hydroph_interaction:PRO:107>  (47) 
hydroph_interaction:PRO:107    1
hydroph_interaction:PRO:107    1
Name: 45, dtype: object

>  <hbond:PRO:107>  (47) 
hbond:PRO:107    0
hbond:PRO:107    0
Name: 45, dtype: object

>  <halogenbond:PRO:107>  (47) 
halogenbond:PRO:107    0
halogenbond:PRO:107    0
Name: 45, dtype: object

>  <hbond:ASP:109>  (47) 
hbond:ASP:109    0
hbond:ASP:109    0
Name: 45, dtype: object

>  <hbond:CYS:110>  (47) 
hbond:CYS:110    0
hbond:CYS:110    0
Name: 45, dtype: object

>  <halogenbond:CYS:110>  (47) 
halogenbond:CYS:110    0
halogenbond:CYS:110    0
Name: 45, dtype: object

>  <hydroph_interaction:VAL:124>  (47) 
hydroph_interaction:VAL:124    0
hydroph_interaction:VAL:124    0
Name: 45, dtype: object

>  <hbond:SER:125>  (47) 
hbond:SER:125    1
hbond:SER:125    1
Name: 45, dtype: object

>  <halogenbond:SER:125>  (47) 
halogenbond:SER:125    0
halogenbond:SER:125    0
Name: 45, dtype: object

>  <hydroph_interaction:THR:126>  (47) 
hydroph_interaction:THR:126    0
hydroph_interaction:THR:126    0
Name: 45, dtype: object

>  <hbond:THR:126>  (47) 
hbond:THR:126    0
hbond:THR:126    0
Name: 45, dtype: object

>  <halogenbond:THR:126>  (47) 
halogenbond:THR:126    0
halogenbond:THR:126    0
Name: 45, dtype: object

>  <hbond:GLY:127>  (47) 
hbond:GLY:127    0
hbond:GLY:127    0
Name: 45, dtype: object

>  <halogenbond:GLY:127>  (47) 
halogenbond:GLY:127    0
halogenbond:GLY:127    0
Name: 45, dtype: object

>  <hbond:GLY:128>  (47) 
hbond:GLY:128    0
hbond:GLY:128    0
Name: 45, dtype: object

>  <hbond:ASN:129>  (47) 
hbond:ASN:129    0
hbond:ASN:129    0
Name: 45, dtype: object

>  <hydroph_interaction:ASN:129>  (47) 
hydroph_interaction:ASN:129    0
hydroph_interaction:ASN:129    0
Name: 45, dtype: object

>  <halogenbond:ASN:129>  (47) 
halogenbond:ASN:129    0
halogenbond:ASN:129    0
Name: 45, dtype: object

>  <hydroph_interaction:LEU:131>  (47) 
hydroph_interaction:LEU:131    0
hydroph_interaction:LEU:131    0
Name: 45, dtype: object

>  <hbond:LEU:131>  (47) 
hbond:LEU:131    0
hbond:LEU:131    0
Name: 45, dtype: object

>  <halogenbond:LEU:131>  (47) 
halogenbond:LEU:131    0
halogenbond:LEU:131    0
Name: 45, dtype: object

>  <hbond:VAL:132>  (47) 
hbond:VAL:132    0
hbond:VAL:132    0
Name: 45, dtype: object

$$$$
Z5533271424
     RDKit          3D

 23 25  0  0  0  0  0  0  0  0999 V2000
   30.1795    7.7663   10.2191 C   0  0  0  0  0  0  0  0  0  0  0  0
   31.1522    8.0710    9.2739 O   0  0  0  0  0  0  0  0  0  0  0  0
   30.4782    8.7197    8.3312 C   0  0  0  0  0  0  0  0  0  0  0  0
   29.3216    8.4345    8.1248 O   0  0  0  0  0  0  0  0  0  0  0  0
   31.2136    9.7317    7.6037 C   0  0  0  0  0  0  0  0  0  0  0  0
   32.2172    9.3191    6.8330 N   0  0  0  0  0  0  0  0  0  0  0  0
   32.6966   10.4319    6.3111 N   0  0  0  0  0  0  0  0  0  0  0  0
   33.8126   10.3009    5.4173 C   0  0  0  0  0  0  0  0  0  0  0  0
   32.0371   11.5692    6.7133 C   0  0  0  0  0  0  0  0  0  0  0  0
   31.0320   11.1652    7.5783 C   0  0  0  0  0  0  0  0  0  0  0  0
   30.0486   11.9100    8.2947 N   0  0  0  0  0  0  0  0  0  0  0  0
   29.6126   13.2483    8.1895 C   0  0  0  0  0  0  0  0  0  0  0  0
   29.9915   14.1726    8.8721 O   0  0  0  0  0  0  0  0  0  0  0  0
   28.5358   13.6005    7.1633 C   0  0  1  0  0  0  0  0  0  0  0  0
   28.2160   14.9436    7.1096 F   0  0  0  0  0  0  0  0  0  0  0  0
   28.9964   13.0878    5.9707 C   0  0  0  0  0  0  0  0  0  0  0  0
   27.5937   12.5179    6.5360 C   0  0  2  0  0  0  0  0  0  0  0  0
   26.4603   12.6856    5.5107 C   0  0  0  0  0  0  0  0  0  0  0  0
   26.6541   13.7246    4.4523 C   0  0  0  0  0  0  0  0  0  0  0  0
   25.6690   13.8731    3.4759 C   0  0  0  0  0  0  0  0  0  0  0  0
   24.5288   13.0553    3.5037 C   0  0  0  0  0  0  0  0  0  0  0  0
   24.3538   12.0894    4.5069 C   0  0  0  0  0  0  0  0  0  0  0  0
   25.3115   11.9031    5.5040 C   0  0  0  0  0  0  0  0  0  0  0  0
  1  2  1  0
  2  3  1  0
  3  4  2  0
  3  5  1  0
  5  6  2  0
  6  7  1  0
  7  8  1  0
  7  9  1  0
  9 10  2  0
 10 11  1  0
 11 12  1  0
 12 13  2  0
 12 14  1  0
 14 15  1  6
 14 16  1  0
 16 17  1  0
 17 18  1  6
 18 19  2  0
 19 20  1  0
 20 21  2  0
 21 22  1  0
 22 23  2  0
 10  5  1  0
 17 14  1  0
 23 18  1  0
A    1
 C1 
A    2
 O1 
A    3
 C2 
A    4
 O2 
A    5
 C3 
A    6
 N1 
A    7
 N2 
A    8
 C4 
A    9
 C5 
A   10
 C6 
A   11
 N3 
A   12
 C7 
A   13
 O3 
A   14
 C8 
A   15
 F1 
A   16
 C9 
A   17
 C10
A   18
 C11
A   19
 C12
A   20
 C13
A   21
 C14
A   22
 C15
A   23
 C16
M  END
>  <ref_pdb>  (48) 
Ax0310a

>  <ref_mols>  (48) 
Ax0310a,Ax0375a

>  <original SMILES>  (48) 
COC(=O)c1nn(C)cc1NC(=O)[C@@]1(F)C[C@@H]1c1ccccc1

>  <rationale>  (48) 
info halogenbond:E88; hbond:S125+S87+C110; hydroph_interaction:P107+Y89+L22; 

>  <intxn_cluster_10>  (48) 
9

>  <intxn_cluster_rank_10>  (48) 
3

>  <N_interactions>  (48) 
8

>  <∆∆G>  (48) 
-9.943186

>  <$/mg>  (48) 
0.0

>  <comRMSD>  (48) 
0.957849

>  <N_rotatable_bonds>  (48) 
6

>  <deep_P1_sidechain>  (48) 
False

>  <farthest_distance_to_substrate>  (48) 
3.711034

>  <hbond:SER:7>  (48) 
hbond:SER:7    0
hbond:SER:7    0
Name: 46, dtype: object

>  <hydroph_interaction:ASN:19>  (48) 
hydroph_interaction:ASN:19    0
hydroph_interaction:ASN:19    0
Name: 46, dtype: object

>  <halogenbond:ASN:19>  (48) 
halogenbond:ASN:19    0
halogenbond:ASN:19    0
Name: 46, dtype: object

>  <hbond:ARG:20>  (48) 
hbond:ARG:20    0
hbond:ARG:20    0
Name: 46, dtype: object

>  <hydroph_interaction:ARG:20>  (48) 
hydroph_interaction:ARG:20    0
hydroph_interaction:ARG:20    0
Name: 46, dtype: object

>  <hbond:HIS:21>  (48) 
hbond:HIS:21    0
hbond:HIS:21    0
Name: 46, dtype: object

>  <hydroph_interaction:HIS:21>  (48) 
hydroph_interaction:HIS:21    0
hydroph_interaction:HIS:21    0
Name: 46, dtype: object

>  <saltbridge:HIS:21>  (48) 
saltbridge:HIS:21    0
saltbridge:HIS:21    0
Name: 46, dtype: object

>  <pistack:HIS:21>  (48) 
pistack:HIS:21    0
pistack:HIS:21    0
Name: 46, dtype: object

>  <pication:HIS:21>  (48) 
pication:HIS:21    0
pication:HIS:21    0
Name: 46, dtype: object

>  <hydroph_interaction:LEU:22>  (48) 
hydroph_interaction:LEU:22    1
hydroph_interaction:LEU:22    1
Name: 46, dtype: object

>  <hbond:SER:36>  (48) 
hbond:SER:36    0
hbond:SER:36    0
Name: 46, dtype: object

>  <hbond:ASP:39>  (48) 
hbond:ASP:39    0
hbond:ASP:39    0
Name: 46, dtype: object

>  <saltbridge:ASP:39>  (48) 
saltbridge:ASP:39    0
saltbridge:ASP:39    0
Name: 46, dtype: object

>  <hydroph_interaction:ASP:39>  (48) 
hydroph_interaction:ASP:39    0
hydroph_interaction:ASP:39    0
Name: 46, dtype: object

>  <halogenbond:ASP:39>  (48) 
halogenbond:ASP:39    0
halogenbond:ASP:39    0
Name: 46, dtype: object

>  <hydroph_interaction:ILE:82>  (48) 
hydroph_interaction:ILE:82    0
hydroph_interaction:ILE:82    0
Name: 46, dtype: object

>  <hydroph_interaction:PHE:83>  (48) 
hydroph_interaction:PHE:83    0
hydroph_interaction:PHE:83    0
Name: 46, dtype: object

>  <hbond:PHE:83>  (48) 
hbond:PHE:83    0
hbond:PHE:83    0
Name: 46, dtype: object

>  <halogenbond:PHE:83>  (48) 
halogenbond:PHE:83    0
halogenbond:PHE:83    0
Name: 46, dtype: object

>  <hydroph_interaction:VAL:84>  (48) 
hydroph_interaction:VAL:84    0
hydroph_interaction:VAL:84    0
Name: 46, dtype: object

>  <hydroph_interaction:GLU:85>  (48) 
hydroph_interaction:GLU:85    0
hydroph_interaction:GLU:85    0
Name: 46, dtype: object

>  <hbond:GLU:85>  (48) 
hbond:GLU:85    0
hbond:GLU:85    0
Name: 46, dtype: object

>  <halogenbond:GLU:85>  (48) 
halogenbond:GLU:85    0
halogenbond:GLU:85    0
Name: 46, dtype: object

>  <halogenbond:ALA:86>  (48) 
halogenbond:ALA:86    0
halogenbond:ALA:86    0
Name: 46, dtype: object

>  <hbond:SER:87>  (48) 
hbond:SER:87    1
hbond:SER:87    1
Name: 46, dtype: object

>  <halogenbond:SER:87>  (48) 
halogenbond:SER:87    0
halogenbond:SER:87    0
Name: 46, dtype: object

>  <hbond:GLU:88>  (48) 
hbond:GLU:88    0
hbond:GLU:88    0
Name: 46, dtype: object

>  <halogenbond:GLU:88>  (48) 
halogenbond:GLU:88    1
halogenbond:GLU:88    1
Name: 46, dtype: object

>  <hydroph_interaction:TYR:89>  (48) 
hydroph_interaction:TYR:89    2
hydroph_interaction:TYR:89    2
Name: 46, dtype: object

>  <pistack:TYR:89>  (48) 
pistack:TYR:89    0
pistack:TYR:89    0
Name: 46, dtype: object

>  <hbond:TYR:89>  (48) 
hbond:TYR:89    0
hbond:TYR:89    0
Name: 46, dtype: object

>  <hbond:TYR:90>  (48) 
hbond:TYR:90    0
hbond:TYR:90    0
Name: 46, dtype: object

>  <hydroph_interaction:TYR:90>  (48) 
hydroph_interaction:TYR:90    0
hydroph_interaction:TYR:90    0
Name: 46, dtype: object

>  <pistack:TYR:90>  (48) 
pistack:TYR:90    0
pistack:TYR:90    0
Name: 46, dtype: object

>  <hbond:ARG:93>  (48) 
hbond:ARG:93    0
hbond:ARG:93    0
Name: 46, dtype: object

>  <saltbridge:ARG:93>  (48) 
saltbridge:ARG:93    0
saltbridge:ARG:93    0
Name: 46, dtype: object

>  <hydroph_interaction:ARG:93>  (48) 
hydroph_interaction:ARG:93    0
hydroph_interaction:ARG:93    0
Name: 46, dtype: object

>  <halogenbond:GLN:95>  (48) 
halogenbond:GLN:95    0
halogenbond:GLN:95    0
Name: 46, dtype: object

>  <hbond:GLN:95>  (48) 
hbond:GLN:95    0
hbond:GLN:95    0
Name: 46, dtype: object

>  <hydroph_interaction:GLN:95>  (48) 
hydroph_interaction:GLN:95    0
hydroph_interaction:GLN:95    0
Name: 46, dtype: object

>  <hydroph_interaction:LEU:98>  (48) 
hydroph_interaction:LEU:98    0
hydroph_interaction:LEU:98    0
Name: 46, dtype: object

>  <hydroph_interaction:LEU:100>  (48) 
hydroph_interaction:LEU:100    0
hydroph_interaction:LEU:100    0
Name: 46, dtype: object

>  <hbond:SER:105>  (48) 
hbond:SER:105    0
hbond:SER:105    0
Name: 46, dtype: object

>  <halogenbond:SER:105>  (48) 
halogenbond:SER:105    0
halogenbond:SER:105    0
Name: 46, dtype: object

>  <hydroph_interaction:PRO:107>  (48) 
hydroph_interaction:PRO:107    1
hydroph_interaction:PRO:107    1
Name: 46, dtype: object

>  <hbond:PRO:107>  (48) 
hbond:PRO:107    0
hbond:PRO:107    0
Name: 46, dtype: object

>  <halogenbond:PRO:107>  (48) 
halogenbond:PRO:107    0
halogenbond:PRO:107    0
Name: 46, dtype: object

>  <hbond:ASP:109>  (48) 
hbond:ASP:109    0
hbond:ASP:109    0
Name: 46, dtype: object

>  <hbond:CYS:110>  (48) 
hbond:CYS:110    1
hbond:CYS:110    1
Name: 46, dtype: object

>  <halogenbond:CYS:110>  (48) 
halogenbond:CYS:110    0
halogenbond:CYS:110    0
Name: 46, dtype: object

>  <hydroph_interaction:VAL:124>  (48) 
hydroph_interaction:VAL:124    0
hydroph_interaction:VAL:124    0
Name: 46, dtype: object

>  <hbond:SER:125>  (48) 
hbond:SER:125    1
hbond:SER:125    1
Name: 46, dtype: object

>  <halogenbond:SER:125>  (48) 
halogenbond:SER:125    0
halogenbond:SER:125    0
Name: 46, dtype: object

>  <hydroph_interaction:THR:126>  (48) 
hydroph_interaction:THR:126    0
hydroph_interaction:THR:126    0
Name: 46, dtype: object

>  <hbond:THR:126>  (48) 
hbond:THR:126    0
hbond:THR:126    0
Name: 46, dtype: object

>  <halogenbond:THR:126>  (48) 
halogenbond:THR:126    0
halogenbond:THR:126    0
Name: 46, dtype: object

>  <hbond:GLY:127>  (48) 
hbond:GLY:127    0
hbond:GLY:127    0
Name: 46, dtype: object

>  <halogenbond:GLY:127>  (48) 
halogenbond:GLY:127    0
halogenbond:GLY:127    0
Name: 46, dtype: object

>  <hbond:GLY:128>  (48) 
hbond:GLY:128    0
hbond:GLY:128    0
Name: 46, dtype: object

>  <hbond:ASN:129>  (48) 
hbond:ASN:129    0
hbond:ASN:129    0
Name: 46, dtype: object

>  <hydroph_interaction:ASN:129>  (48) 
hydroph_interaction:ASN:129    0
hydroph_interaction:ASN:129    0
Name: 46, dtype: object

>  <halogenbond:ASN:129>  (48) 
halogenbond:ASN:129    0
halogenbond:ASN:129    0
Name: 46, dtype: object

>  <hydroph_interaction:LEU:131>  (48) 
hydroph_interaction:LEU:131    0
hydroph_interaction:LEU:131    0
Name: 46, dtype: object

>  <hbond:LEU:131>  (48) 
hbond:LEU:131    0
hbond:LEU:131    0
Name: 46, dtype: object

>  <halogenbond:LEU:131>  (48) 
halogenbond:LEU:131    0
halogenbond:LEU:131    0
Name: 46, dtype: object

>  <hbond:VAL:132>  (48) 
hbond:VAL:132    0
hbond:VAL:132    0
Name: 46, dtype: object

$$$$
Z1533092983
     RDKit          3D

 13 13  0  0  0  0  0  0  0  0999 V2000
   31.8100   16.8761   11.4502 C   0  0  0  0  0  0  0  0  0  0  0  0
   31.3183   15.9643   10.8462 C   0  0  0  0  0  0  0  0  0  0  0  0
   30.7222   14.8406   10.0998 C   0  0  0  0  0  0  0  0  0  0  0  0
   31.7550   14.1203    9.2174 C   0  0  0  0  0  0  0  0  0  0  0  0
   31.0982   13.4277    8.0747 N   0  0  0  0  0  0  0  0  0  0  0  0
   31.3908   12.0778    7.6957 C   0  0  0  0  0  0  0  0  0  0  0  0
   32.4475   11.7722    6.7947 C   0  0  0  0  0  0  0  0  0  0  0  0
   33.4043   13.0745    6.1527 Cl  0  0  0  0  0  0  0  0  0  0  0  0
   32.7367   10.4405    6.4142 C   0  0  0  0  0  0  0  0  0  0  0  0
   33.8400   10.0908    5.4585 C   0  0  0  0  0  0  0  0  0  0  0  0
   31.9689    9.4077    6.9472 C   0  0  0  0  0  0  0  0  0  0  0  0
   30.9320    9.6785    7.8254 C   0  0  0  0  0  0  0  0  0  0  0  0
   30.6503   10.9945    8.1845 C   0  0  0  0  0  0  0  0  0  0  0  0
  1  2  3  0
  2  3  1  0
  3  4  1  0
  4  5  1  0
  5  6  1  0
  6  7  2  0
  7  8  1  0
  7  9  1  0
  9 10  1  0
  9 11  2  0
 11 12  1  0
 12 13  2  0
 13  6  1  0
A    1
 C1 
A    2
 C2 
A    3
 C3 
A    4
 C4 
A    5
 N1 
A    6
 C5 
A    7
 C6 
A    8
CL1 
A    9
 C7 
A   10
 C8 
A   11
 C9 
A   12
 C10
A   13
 C11
M  END
>  <ref_pdb>  (49) 
Ax0310a

>  <ref_mols>  (49) 
Ax0554a,Ax0732a

>  <original SMILES>  (49) 
C#CCCNc1cccc(C)c1Cl

>  <rationale>  (49) 
info hbond:S87; hydroph_interaction:Y90+T126+V84; 

>  <intxn_cluster_10>  (49) 
0

>  <intxn_cluster_rank_10>  (49) 
8

>  <N_interactions>  (49) 
6

>  <∆∆G>  (49) 
-7.411645

>  <$/mg>  (49) 
0.0

>  <comRMSD>  (49) 
0.535208

>  <N_rotatable_bonds>  (49) 
4

>  <deep_P1_sidechain>  (49) 
False

>  <farthest_distance_to_substrate>  (49) 
2.151686

>  <hbond:SER:7>  (49) 
hbond:SER:7    0
hbond:SER:7    0
Name: 47, dtype: object

>  <hydroph_interaction:ASN:19>  (49) 
hydroph_interaction:ASN:19    0
hydroph_interaction:ASN:19    0
Name: 47, dtype: object

>  <halogenbond:ASN:19>  (49) 
halogenbond:ASN:19    0
halogenbond:ASN:19    0
Name: 47, dtype: object

>  <hbond:ARG:20>  (49) 
hbond:ARG:20    0
hbond:ARG:20    0
Name: 47, dtype: object

>  <hydroph_interaction:ARG:20>  (49) 
hydroph_interaction:ARG:20    0
hydroph_interaction:ARG:20    0
Name: 47, dtype: object

>  <hbond:HIS:21>  (49) 
hbond:HIS:21    0
hbond:HIS:21    0
Name: 47, dtype: object

>  <hydroph_interaction:HIS:21>  (49) 
hydroph_interaction:HIS:21    0
hydroph_interaction:HIS:21    0
Name: 47, dtype: object

>  <saltbridge:HIS:21>  (49) 
saltbridge:HIS:21    0
saltbridge:HIS:21    0
Name: 47, dtype: object

>  <pistack:HIS:21>  (49) 
pistack:HIS:21    0
pistack:HIS:21    0
Name: 47, dtype: object

>  <pication:HIS:21>  (49) 
pication:HIS:21    0
pication:HIS:21    0
Name: 47, dtype: object

>  <hydroph_interaction:LEU:22>  (49) 
hydroph_interaction:LEU:22    0
hydroph_interaction:LEU:22    0
Name: 47, dtype: object

>  <hbond:SER:36>  (49) 
hbond:SER:36    0
hbond:SER:36    0
Name: 47, dtype: object

>  <hbond:ASP:39>  (49) 
hbond:ASP:39    0
hbond:ASP:39    0
Name: 47, dtype: object

>  <saltbridge:ASP:39>  (49) 
saltbridge:ASP:39    0
saltbridge:ASP:39    0
Name: 47, dtype: object

>  <hydroph_interaction:ASP:39>  (49) 
hydroph_interaction:ASP:39    0
hydroph_interaction:ASP:39    0
Name: 47, dtype: object

>  <halogenbond:ASP:39>  (49) 
halogenbond:ASP:39    0
halogenbond:ASP:39    0
Name: 47, dtype: object

>  <hydroph_interaction:ILE:82>  (49) 
hydroph_interaction:ILE:82    0
hydroph_interaction:ILE:82    0
Name: 47, dtype: object

>  <hydroph_interaction:PHE:83>  (49) 
hydroph_interaction:PHE:83    0
hydroph_interaction:PHE:83    0
Name: 47, dtype: object

>  <hbond:PHE:83>  (49) 
hbond:PHE:83    0
hbond:PHE:83    0
Name: 47, dtype: object

>  <halogenbond:PHE:83>  (49) 
halogenbond:PHE:83    0
halogenbond:PHE:83    0
Name: 47, dtype: object

>  <hydroph_interaction:VAL:84>  (49) 
hydroph_interaction:VAL:84    1
hydroph_interaction:VAL:84    1
Name: 47, dtype: object

>  <hydroph_interaction:GLU:85>  (49) 
hydroph_interaction:GLU:85    0
hydroph_interaction:GLU:85    0
Name: 47, dtype: object

>  <hbond:GLU:85>  (49) 
hbond:GLU:85    0
hbond:GLU:85    0
Name: 47, dtype: object

>  <halogenbond:GLU:85>  (49) 
halogenbond:GLU:85    0
halogenbond:GLU:85    0
Name: 47, dtype: object

>  <halogenbond:ALA:86>  (49) 
halogenbond:ALA:86    0
halogenbond:ALA:86    0
Name: 47, dtype: object

>  <hbond:SER:87>  (49) 
hbond:SER:87    2
hbond:SER:87    2
Name: 47, dtype: object

>  <halogenbond:SER:87>  (49) 
halogenbond:SER:87    0
halogenbond:SER:87    0
Name: 47, dtype: object

>  <hbond:GLU:88>  (49) 
hbond:GLU:88    0
hbond:GLU:88    0
Name: 47, dtype: object

>  <halogenbond:GLU:88>  (49) 
halogenbond:GLU:88    0
halogenbond:GLU:88    0
Name: 47, dtype: object

>  <hydroph_interaction:TYR:89>  (49) 
hydroph_interaction:TYR:89    0
hydroph_interaction:TYR:89    0
Name: 47, dtype: object

>  <pistack:TYR:89>  (49) 
pistack:TYR:89    0
pistack:TYR:89    0
Name: 47, dtype: object

>  <hbond:TYR:89>  (49) 
hbond:TYR:89    0
hbond:TYR:89    0
Name: 47, dtype: object

>  <hbond:TYR:90>  (49) 
hbond:TYR:90    0
hbond:TYR:90    0
Name: 47, dtype: object

>  <hydroph_interaction:TYR:90>  (49) 
hydroph_interaction:TYR:90    2
hydroph_interaction:TYR:90    2
Name: 47, dtype: object

>  <pistack:TYR:90>  (49) 
pistack:TYR:90    0
pistack:TYR:90    0
Name: 47, dtype: object

>  <hbond:ARG:93>  (49) 
hbond:ARG:93    0
hbond:ARG:93    0
Name: 47, dtype: object

>  <saltbridge:ARG:93>  (49) 
saltbridge:ARG:93    0
saltbridge:ARG:93    0
Name: 47, dtype: object

>  <hydroph_interaction:ARG:93>  (49) 
hydroph_interaction:ARG:93    0
hydroph_interaction:ARG:93    0
Name: 47, dtype: object

>  <halogenbond:GLN:95>  (49) 
halogenbond:GLN:95    0
halogenbond:GLN:95    0
Name: 47, dtype: object

>  <hbond:GLN:95>  (49) 
hbond:GLN:95    0
hbond:GLN:95    0
Name: 47, dtype: object

>  <hydroph_interaction:GLN:95>  (49) 
hydroph_interaction:GLN:95    0
hydroph_interaction:GLN:95    0
Name: 47, dtype: object

>  <hydroph_interaction:LEU:98>  (49) 
hydroph_interaction:LEU:98    0
hydroph_interaction:LEU:98    0
Name: 47, dtype: object

>  <hydroph_interaction:LEU:100>  (49) 
hydroph_interaction:LEU:100    0
hydroph_interaction:LEU:100    0
Name: 47, dtype: object

>  <hbond:SER:105>  (49) 
hbond:SER:105    0
hbond:SER:105    0
Name: 47, dtype: object

>  <halogenbond:SER:105>  (49) 
halogenbond:SER:105    0
halogenbond:SER:105    0
Name: 47, dtype: object

>  <hydroph_interaction:PRO:107>  (49) 
hydroph_interaction:PRO:107    0
hydroph_interaction:PRO:107    0
Name: 47, dtype: object

>  <hbond:PRO:107>  (49) 
hbond:PRO:107    0
hbond:PRO:107    0
Name: 47, dtype: object

>  <halogenbond:PRO:107>  (49) 
halogenbond:PRO:107    0
halogenbond:PRO:107    0
Name: 47, dtype: object

>  <hbond:ASP:109>  (49) 
hbond:ASP:109    0
hbond:ASP:109    0
Name: 47, dtype: object

>  <hbond:CYS:110>  (49) 
hbond:CYS:110    0
hbond:CYS:110    0
Name: 47, dtype: object

>  <halogenbond:CYS:110>  (49) 
halogenbond:CYS:110    0
halogenbond:CYS:110    0
Name: 47, dtype: object

>  <hydroph_interaction:VAL:124>  (49) 
hydroph_interaction:VAL:124    0
hydroph_interaction:VAL:124    0
Name: 47, dtype: object

>  <hbond:SER:125>  (49) 
hbond:SER:125    0
hbond:SER:125    0
Name: 47, dtype: object

>  <halogenbond:SER:125>  (49) 
halogenbond:SER:125    0
halogenbond:SER:125    0
Name: 47, dtype: object

>  <hydroph_interaction:THR:126>  (49) 
hydroph_interaction:THR:126    1
hydroph_interaction:THR:126    1
Name: 47, dtype: object

>  <hbond:THR:126>  (49) 
hbond:THR:126    0
hbond:THR:126    0
Name: 47, dtype: object

>  <halogenbond:THR:126>  (49) 
halogenbond:THR:126    0
halogenbond:THR:126    0
Name: 47, dtype: object

>  <hbond:GLY:127>  (49) 
hbond:GLY:127    0
hbond:GLY:127    0
Name: 47, dtype: object

>  <halogenbond:GLY:127>  (49) 
halogenbond:GLY:127    0
halogenbond:GLY:127    0
Name: 47, dtype: object

>  <hbond:GLY:128>  (49) 
hbond:GLY:128    0
hbond:GLY:128    0
Name: 47, dtype: object

>  <hbond:ASN:129>  (49) 
hbond:ASN:129    0
hbond:ASN:129    0
Name: 47, dtype: object

>  <hydroph_interaction:ASN:129>  (49) 
hydroph_interaction:ASN:129    0
hydroph_interaction:ASN:129    0
Name: 47, dtype: object

>  <halogenbond:ASN:129>  (49) 
halogenbond:ASN:129    0
halogenbond:ASN:129    0
Name: 47, dtype: object

>  <hydroph_interaction:LEU:131>  (49) 
hydroph_interaction:LEU:131    0
hydroph_interaction:LEU:131    0
Name: 47, dtype: object

>  <hbond:LEU:131>  (49) 
hbond:LEU:131    0
hbond:LEU:131    0
Name: 47, dtype: object

>  <halogenbond:LEU:131>  (49) 
halogenbond:LEU:131    0
halogenbond:LEU:131    0
Name: 47, dtype: object

>  <hbond:VAL:132>  (49) 
hbond:VAL:132    0
hbond:VAL:132    0
Name: 47, dtype: object

$$$$
Z3475450457
     RDKit          3D

 18 18  0  0  0  0  0  0  0  0999 V2000
   30.4857    8.6909    8.5437 C   0  0  0  0  0  0  0  0  0  0  0  0
   31.4539    9.3760    7.6337 C   0  0  0  0  0  0  0  0  0  0  0  0
   32.2873    8.6834    6.8548 N   0  0  0  0  0  0  0  0  0  0  0  0
   32.9969    9.6200    6.2003 N   0  0  0  0  0  0  0  0  0  0  0  0
   34.0289    9.2386    5.2624 C   0  0  0  0  0  0  0  0  0  0  0  0
   32.6406   10.8910    6.5299 C   0  0  0  0  0  0  0  0  0  0  0  0
   31.6473   10.7649    7.4564 C   0  0  0  0  0  0  0  0  0  0  0  0
   30.9846   11.7693    8.0794 N   0  0  0  0  0  0  0  0  0  0  0  0
   30.1788   12.5802    7.3765 C   0  0  0  0  0  0  0  0  0  0  0  0
   30.3243   12.9949    6.2312 O   0  0  0  0  0  0  0  0  0  0  0  0
   29.0449   12.8840    8.2700 C   0  0  0  0  0  0  0  0  0  0  0  0
   27.9774   13.5997    7.6054 C   0  0  2  0  0  0  0  0  0  0  0  0
   28.1277   14.7911    7.0075 C   0  0  0  0  0  0  0  0  0  0  0  0
   26.7824   13.7356    8.5823 C   0  0  2  0  0  0  0  0  0  0  0  0
   27.2023   13.5344    9.9896 C   0  0  0  0  0  0  0  0  0  0  0  0
   25.5539   12.8913    8.2682 C   0  0  0  0  0  0  0  0  0  0  0  0
   24.5906   13.6000    7.4526 C   0  0  0  0  0  0  0  0  0  0  0  0
   24.8985   12.4147    9.5647 C   0  0  0  0  0  0  0  0  0  0  0  0
  1  2  1  0
  2  3  2  0
  3  4  1  0
  4  5  1  0
  4  6  1  0
  6  7  2  0
  7  8  1  0
  8  9  1  0
  9 10  2  0
  9 11  1  0
 11 12  1  0
 12 13  1  1
 12 14  1  0
 14 15  1  1
 14 16  1  0
 16 17  1  0
 16 18  1  0
  7  2  1  0
A    1
 C1 
A    2
 C2 
A    3
 N1 
A    4
 N2 
A    5
 C3 
A    6
 C4 
A    7
 C5 
A    8
 N3 
A    9
 C6 
A   10
 O1 
A   11
 C7 
A   12
 C8 
A   13
 C9 
A   14
 C10
A   15
 C11
A   16
 C12
A   17
 C13
A   18
 C14
M  END
>  <ref_pdb>  (50) 
Ax0310a

>  <ref_mols>  (50) 
Ax0310a,Ax0451a,Ax0365a

>  <original SMILES>  (50) 
Cc1nn(C)cc1NC(=O)CC(C)C(C)C(C)C

>  <rationale>  (50) 
info hbond:S125+G127+S87; hydroph_interaction:V124+Y89+H21+L22+N19; 

>  <intxn_cluster_10>  (50) 
2

>  <intxn_cluster_rank_10>  (50) 
7

>  <N_interactions>  (50) 
10

>  <∆∆G>  (50) 
-11.711206

>  <$/mg>  (50) 
0.0

>  <comRMSD>  (50) 
0.691164

>  <N_rotatable_bonds>  (50) 
11

>  <deep_P1_sidechain>  (50) 
True

>  <farthest_distance_to_substrate>  (50) 
3.088747

>  <hbond:SER:7>  (50) 
hbond:SER:7    0
hbond:SER:7    0
Name: 48, dtype: object

>  <hydroph_interaction:ASN:19>  (50) 
hydroph_interaction:ASN:19    1
hydroph_interaction:ASN:19    1
Name: 48, dtype: object

>  <halogenbond:ASN:19>  (50) 
halogenbond:ASN:19    0
halogenbond:ASN:19    0
Name: 48, dtype: object

>  <hbond:ARG:20>  (50) 
hbond:ARG:20    0
hbond:ARG:20    0
Name: 48, dtype: object

>  <hydroph_interaction:ARG:20>  (50) 
hydroph_interaction:ARG:20    0
hydroph_interaction:ARG:20    0
Name: 48, dtype: object

>  <hbond:HIS:21>  (50) 
hbond:HIS:21    0
hbond:HIS:21    0
Name: 48, dtype: object

>  <hydroph_interaction:HIS:21>  (50) 
hydroph_interaction:HIS:21    1
hydroph_interaction:HIS:21    1
Name: 48, dtype: object

>  <saltbridge:HIS:21>  (50) 
saltbridge:HIS:21    0
saltbridge:HIS:21    0
Name: 48, dtype: object

>  <pistack:HIS:21>  (50) 
pistack:HIS:21    0
pistack:HIS:21    0
Name: 48, dtype: object

>  <pication:HIS:21>  (50) 
pication:HIS:21    0
pication:HIS:21    0
Name: 48, dtype: object

>  <hydroph_interaction:LEU:22>  (50) 
hydroph_interaction:LEU:22    2
hydroph_interaction:LEU:22    2
Name: 48, dtype: object

>  <hbond:SER:36>  (50) 
hbond:SER:36    0
hbond:SER:36    0
Name: 48, dtype: object

>  <hbond:ASP:39>  (50) 
hbond:ASP:39    0
hbond:ASP:39    0
Name: 48, dtype: object

>  <saltbridge:ASP:39>  (50) 
saltbridge:ASP:39    0
saltbridge:ASP:39    0
Name: 48, dtype: object

>  <hydroph_interaction:ASP:39>  (50) 
hydroph_interaction:ASP:39    0
hydroph_interaction:ASP:39    0
Name: 48, dtype: object

>  <halogenbond:ASP:39>  (50) 
halogenbond:ASP:39    0
halogenbond:ASP:39    0
Name: 48, dtype: object

>  <hydroph_interaction:ILE:82>  (50) 
hydroph_interaction:ILE:82    0
hydroph_interaction:ILE:82    0
Name: 48, dtype: object

>  <hydroph_interaction:PHE:83>  (50) 
hydroph_interaction:PHE:83    0
hydroph_interaction:PHE:83    0
Name: 48, dtype: object

>  <hbond:PHE:83>  (50) 
hbond:PHE:83    0
hbond:PHE:83    0
Name: 48, dtype: object

>  <halogenbond:PHE:83>  (50) 
halogenbond:PHE:83    0
halogenbond:PHE:83    0
Name: 48, dtype: object

>  <hydroph_interaction:VAL:84>  (50) 
hydroph_interaction:VAL:84    0
hydroph_interaction:VAL:84    0
Name: 48, dtype: object

>  <hydroph_interaction:GLU:85>  (50) 
hydroph_interaction:GLU:85    0
hydroph_interaction:GLU:85    0
Name: 48, dtype: object

>  <hbond:GLU:85>  (50) 
hbond:GLU:85    0
hbond:GLU:85    0
Name: 48, dtype: object

>  <halogenbond:GLU:85>  (50) 
halogenbond:GLU:85    0
halogenbond:GLU:85    0
Name: 48, dtype: object

>  <halogenbond:ALA:86>  (50) 
halogenbond:ALA:86    0
halogenbond:ALA:86    0
Name: 48, dtype: object

>  <hbond:SER:87>  (50) 
hbond:SER:87    1
hbond:SER:87    1
Name: 48, dtype: object

>  <halogenbond:SER:87>  (50) 
halogenbond:SER:87    0
halogenbond:SER:87    0
Name: 48, dtype: object

>  <hbond:GLU:88>  (50) 
hbond:GLU:88    0
hbond:GLU:88    0
Name: 48, dtype: object

>  <halogenbond:GLU:88>  (50) 
halogenbond:GLU:88    0
halogenbond:GLU:88    0
Name: 48, dtype: object

>  <hydroph_interaction:TYR:89>  (50) 
hydroph_interaction:TYR:89    2
hydroph_interaction:TYR:89    2
Name: 48, dtype: object

>  <pistack:TYR:89>  (50) 
pistack:TYR:89    0
pistack:TYR:89    0
Name: 48, dtype: object

>  <hbond:TYR:89>  (50) 
hbond:TYR:89    0
hbond:TYR:89    0
Name: 48, dtype: object

>  <hbond:TYR:90>  (50) 
hbond:TYR:90    0
hbond:TYR:90    0
Name: 48, dtype: object

>  <hydroph_interaction:TYR:90>  (50) 
hydroph_interaction:TYR:90    0
hydroph_interaction:TYR:90    0
Name: 48, dtype: object

>  <pistack:TYR:90>  (50) 
pistack:TYR:90    0
pistack:TYR:90    0
Name: 48, dtype: object

>  <hbond:ARG:93>  (50) 
hbond:ARG:93    0
hbond:ARG:93    0
Name: 48, dtype: object

>  <saltbridge:ARG:93>  (50) 
saltbridge:ARG:93    0
saltbridge:ARG:93    0
Name: 48, dtype: object

>  <hydroph_interaction:ARG:93>  (50) 
hydroph_interaction:ARG:93    0
hydroph_interaction:ARG:93    0
Name: 48, dtype: object

>  <halogenbond:GLN:95>  (50) 
halogenbond:GLN:95    0
halogenbond:GLN:95    0
Name: 48, dtype: object

>  <hbond:GLN:95>  (50) 
hbond:GLN:95    0
hbond:GLN:95    0
Name: 48, dtype: object

>  <hydroph_interaction:GLN:95>  (50) 
hydroph_interaction:GLN:95    0
hydroph_interaction:GLN:95    0
Name: 48, dtype: object

>  <hydroph_interaction:LEU:98>  (50) 
hydroph_interaction:LEU:98    0
hydroph_interaction:LEU:98    0
Name: 48, dtype: object

>  <hydroph_interaction:LEU:100>  (50) 
hydroph_interaction:LEU:100    0
hydroph_interaction:LEU:100    0
Name: 48, dtype: object

>  <hbond:SER:105>  (50) 
hbond:SER:105    0
hbond:SER:105    0
Name: 48, dtype: object

>  <halogenbond:SER:105>  (50) 
halogenbond:SER:105    0
halogenbond:SER:105    0
Name: 48, dtype: object

>  <hydroph_interaction:PRO:107>  (50) 
hydroph_interaction:PRO:107    0
hydroph_interaction:PRO:107    0
Name: 48, dtype: object

>  <hbond:PRO:107>  (50) 
hbond:PRO:107    0
hbond:PRO:107    0
Name: 48, dtype: object

>  <halogenbond:PRO:107>  (50) 
halogenbond:PRO:107    0
halogenbond:PRO:107    0
Name: 48, dtype: object

>  <hbond:ASP:109>  (50) 
hbond:ASP:109    0
hbond:ASP:109    0
Name: 48, dtype: object

>  <hbond:CYS:110>  (50) 
hbond:CYS:110    0
hbond:CYS:110    0
Name: 48, dtype: object

>  <halogenbond:CYS:110>  (50) 
halogenbond:CYS:110    0
halogenbond:CYS:110    0
Name: 48, dtype: object

>  <hydroph_interaction:VAL:124>  (50) 
hydroph_interaction:VAL:124    1
hydroph_interaction:VAL:124    1
Name: 48, dtype: object

>  <hbond:SER:125>  (50) 
hbond:SER:125    1
hbond:SER:125    1
Name: 48, dtype: object

>  <halogenbond:SER:125>  (50) 
halogenbond:SER:125    0
halogenbond:SER:125    0
Name: 48, dtype: object

>  <hydroph_interaction:THR:126>  (50) 
hydroph_interaction:THR:126    0
hydroph_interaction:THR:126    0
Name: 48, dtype: object

>  <hbond:THR:126>  (50) 
hbond:THR:126    0
hbond:THR:126    0
Name: 48, dtype: object

>  <halogenbond:THR:126>  (50) 
halogenbond:THR:126    0
halogenbond:THR:126    0
Name: 48, dtype: object

>  <hbond:GLY:127>  (50) 
hbond:GLY:127    1
hbond:GLY:127    1
Name: 48, dtype: object

>  <halogenbond:GLY:127>  (50) 
halogenbond:GLY:127    0
halogenbond:GLY:127    0
Name: 48, dtype: object

>  <hbond:GLY:128>  (50) 
hbond:GLY:128    0
hbond:GLY:128    0
Name: 48, dtype: object

>  <hbond:ASN:129>  (50) 
hbond:ASN:129    0
hbond:ASN:129    0
Name: 48, dtype: object

>  <hydroph_interaction:ASN:129>  (50) 
hydroph_interaction:ASN:129    0
hydroph_interaction:ASN:129    0
Name: 48, dtype: object

>  <halogenbond:ASN:129>  (50) 
halogenbond:ASN:129    0
halogenbond:ASN:129    0
Name: 48, dtype: object

>  <hydroph_interaction:LEU:131>  (50) 
hydroph_interaction:LEU:131    0
hydroph_interaction:LEU:131    0
Name: 48, dtype: object

>  <hbond:LEU:131>  (50) 
hbond:LEU:131    0
hbond:LEU:131    0
Name: 48, dtype: object

>  <halogenbond:LEU:131>  (50) 
halogenbond:LEU:131    0
halogenbond:LEU:131    0
Name: 48, dtype: object

>  <hbond:VAL:132>  (50) 
hbond:VAL:132    0
hbond:VAL:132    0
Name: 48, dtype: object

$$$$
Z2637655179
     RDKit          3D

 19 20  0  0  0  0  0  0  0  0999 V2000
   28.3992   15.9539    8.5294 C   0  0  0  0  0  0  0  0  0  0  0  0
   27.7300   14.7823    7.9356 C   0  0  0  0  0  0  0  0  0  0  0  0
   26.4634   14.6717    7.3988 C   0  0  0  0  0  0  0  0  0  0  0  0
   26.3116   13.3995    6.9853 N   0  0  0  0  0  0  0  0  0  0  0  0
   25.1078   12.8599    6.3635 C   0  0  0  0  0  0  0  0  0  0  0  0
   24.2461   13.9924    5.8025 C   0  0  0  0  0  0  0  0  0  0  0  0
   25.4101   11.7717    5.3521 C   0  0  0  0  0  0  0  0  0  0  0  0
   27.3973   12.6639    7.2104 N   0  0  0  0  0  0  0  0  0  0  0  0
   28.2625   13.4967    7.7925 C   0  0  0  0  0  0  0  0  0  0  0  0
   29.5164   13.1619    8.1937 N   0  0  0  0  0  0  0  0  0  0  0  0
   30.4432   12.9130    7.2149 C   0  0  0  0  0  0  0  0  0  0  0  0
   30.5268   13.4433    6.1165 O   0  0  0  0  0  0  0  0  0  0  0  0
   31.3919   11.8260    7.6239 C   0  0  1  0  0  0  0  0  0  0  0  0
   30.5753   10.6902    8.1897 C   0  0  0  0  0  0  0  0  0  0  0  0
   31.2906    9.5470    7.7833 N   0  0  0  0  0  0  0  0  0  0  0  0
   30.9470    8.2562    8.2652 C   0  0  0  0  0  0  0  0  0  0  0  0
   32.2355    9.8558    6.8017 C   0  0  0  0  0  0  0  0  0  0  0  0
   33.0500    9.1264    6.2778 O   0  0  0  0  0  0  0  0  0  0  0  0
   32.0924   11.2029    6.5313 N   0  0  0  0  0  0  0  0  0  0  0  0
  1  2  1  0
  2  3  2  0
  3  4  1  0
  4  5  1  0
  5  6  1  0
  5  7  1  0
  4  8  1  0
  8  9  2  0
  9 10  1  0
 10 11  1  0
 11 12  2  0
 13 11  1  6
 13 14  1  0
 14 15  1  0
 15 16  1  0
 15 17  1  0
 17 18  2  0
 17 19  1  0
  9  2  1  0
 19 13  1  0
A    1
 C1 
A    2
 C2 
A    3
 C3 
A    4
 N1 
A    5
 C4 
A    6
 C5 
A    7
 C6 
A    8
 N2 
A    9
 C7 
A   10
 N3 
A   11
 C8 
A   12
 O1 
A   13
 C9 
A   14
 C10
A   15
 N4 
A   16
 C11
A   17
 C12
A   18
 O2 
A   19
 N5 
M  END
>  <ref_pdb>  (51) 
Ax0310a

>  <ref_mols>  (51) 
Ax0451a,Ax0416a

>  <original SMILES>  (51) 
Cc1cn(C(C)C)nc1NC(=O)C1CN(C)C(=O)N1

>  <rationale>  (51) 
info hbond:S125+G127; hydroph_interaction:P107+Y89+Y90+L22; pistack:H21; 

>  <intxn_cluster_10>  (51) 
0

>  <intxn_cluster_rank_10>  (51) 
9

>  <N_interactions>  (51) 
8

>  <∆∆G>  (51) 
-12.461566

>  <$/mg>  (51) 
163.0

>  <comRMSD>  (51) 
0.614941

>  <N_rotatable_bonds>  (51) 
7

>  <deep_P1_sidechain>  (51) 
False

>  <farthest_distance_to_substrate>  (51) 
2.808706

>  <hbond:SER:7>  (51) 
hbond:SER:7    0
hbond:SER:7    0
Name: 49, dtype: object

>  <hydroph_interaction:ASN:19>  (51) 
hydroph_interaction:ASN:19    0
hydroph_interaction:ASN:19    0
Name: 49, dtype: object

>  <halogenbond:ASN:19>  (51) 
halogenbond:ASN:19    0
halogenbond:ASN:19    0
Name: 49, dtype: object

>  <hbond:ARG:20>  (51) 
hbond:ARG:20    0
hbond:ARG:20    0
Name: 49, dtype: object

>  <hydroph_interaction:ARG:20>  (51) 
hydroph_interaction:ARG:20    0
hydroph_interaction:ARG:20    0
Name: 49, dtype: object

>  <hbond:HIS:21>  (51) 
hbond:HIS:21    0
hbond:HIS:21    0
Name: 49, dtype: object

>  <hydroph_interaction:HIS:21>  (51) 
hydroph_interaction:HIS:21    0
hydroph_interaction:HIS:21    0
Name: 49, dtype: object

>  <saltbridge:HIS:21>  (51) 
saltbridge:HIS:21    0
saltbridge:HIS:21    0
Name: 49, dtype: object

>  <pistack:HIS:21>  (51) 
pistack:HIS:21    1
pistack:HIS:21    1
Name: 49, dtype: object

>  <pication:HIS:21>  (51) 
pication:HIS:21    0
pication:HIS:21    0
Name: 49, dtype: object

>  <hydroph_interaction:LEU:22>  (51) 
hydroph_interaction:LEU:22    1
hydroph_interaction:LEU:22    1
Name: 49, dtype: object

>  <hbond:SER:36>  (51) 
hbond:SER:36    0
hbond:SER:36    0
Name: 49, dtype: object

>  <hbond:ASP:39>  (51) 
hbond:ASP:39    0
hbond:ASP:39    0
Name: 49, dtype: object

>  <saltbridge:ASP:39>  (51) 
saltbridge:ASP:39    0
saltbridge:ASP:39    0
Name: 49, dtype: object

>  <hydroph_interaction:ASP:39>  (51) 
hydroph_interaction:ASP:39    0
hydroph_interaction:ASP:39    0
Name: 49, dtype: object

>  <halogenbond:ASP:39>  (51) 
halogenbond:ASP:39    0
halogenbond:ASP:39    0
Name: 49, dtype: object

>  <hydroph_interaction:ILE:82>  (51) 
hydroph_interaction:ILE:82    0
hydroph_interaction:ILE:82    0
Name: 49, dtype: object

>  <hydroph_interaction:PHE:83>  (51) 
hydroph_interaction:PHE:83    0
hydroph_interaction:PHE:83    0
Name: 49, dtype: object

>  <hbond:PHE:83>  (51) 
hbond:PHE:83    0
hbond:PHE:83    0
Name: 49, dtype: object

>  <halogenbond:PHE:83>  (51) 
halogenbond:PHE:83    0
halogenbond:PHE:83    0
Name: 49, dtype: object

>  <hydroph_interaction:VAL:84>  (51) 
hydroph_interaction:VAL:84    0
hydroph_interaction:VAL:84    0
Name: 49, dtype: object

>  <hydroph_interaction:GLU:85>  (51) 
hydroph_interaction:GLU:85    0
hydroph_interaction:GLU:85    0
Name: 49, dtype: object

>  <hbond:GLU:85>  (51) 
hbond:GLU:85    0
hbond:GLU:85    0
Name: 49, dtype: object

>  <halogenbond:GLU:85>  (51) 
halogenbond:GLU:85    0
halogenbond:GLU:85    0
Name: 49, dtype: object

>  <halogenbond:ALA:86>  (51) 
halogenbond:ALA:86    0
halogenbond:ALA:86    0
Name: 49, dtype: object

>  <hbond:SER:87>  (51) 
hbond:SER:87    0
hbond:SER:87    0
Name: 49, dtype: object

>  <halogenbond:SER:87>  (51) 
halogenbond:SER:87    0
halogenbond:SER:87    0
Name: 49, dtype: object

>  <hbond:GLU:88>  (51) 
hbond:GLU:88    0
hbond:GLU:88    0
Name: 49, dtype: object

>  <halogenbond:GLU:88>  (51) 
halogenbond:GLU:88    0
halogenbond:GLU:88    0
Name: 49, dtype: object

>  <hydroph_interaction:TYR:89>  (51) 
hydroph_interaction:TYR:89    2
hydroph_interaction:TYR:89    2
Name: 49, dtype: object

>  <pistack:TYR:89>  (51) 
pistack:TYR:89    0
pistack:TYR:89    0
Name: 49, dtype: object

>  <hbond:TYR:89>  (51) 
hbond:TYR:89    0
hbond:TYR:89    0
Name: 49, dtype: object

>  <hbond:TYR:90>  (51) 
hbond:TYR:90    0
hbond:TYR:90    0
Name: 49, dtype: object

>  <hydroph_interaction:TYR:90>  (51) 
hydroph_interaction:TYR:90    1
hydroph_interaction:TYR:90    1
Name: 49, dtype: object

>  <pistack:TYR:90>  (51) 
pistack:TYR:90    0
pistack:TYR:90    0
Name: 49, dtype: object

>  <hbond:ARG:93>  (51) 
hbond:ARG:93    0
hbond:ARG:93    0
Name: 49, dtype: object

>  <saltbridge:ARG:93>  (51) 
saltbridge:ARG:93    0
saltbridge:ARG:93    0
Name: 49, dtype: object

>  <hydroph_interaction:ARG:93>  (51) 
hydroph_interaction:ARG:93    0
hydroph_interaction:ARG:93    0
Name: 49, dtype: object

>  <halogenbond:GLN:95>  (51) 
halogenbond:GLN:95    0
halogenbond:GLN:95    0
Name: 49, dtype: object

>  <hbond:GLN:95>  (51) 
hbond:GLN:95    0
hbond:GLN:95    0
Name: 49, dtype: object

>  <hydroph_interaction:GLN:95>  (51) 
hydroph_interaction:GLN:95    0
hydroph_interaction:GLN:95    0
Name: 49, dtype: object

>  <hydroph_interaction:LEU:98>  (51) 
hydroph_interaction:LEU:98    0
hydroph_interaction:LEU:98    0
Name: 49, dtype: object

>  <hydroph_interaction:LEU:100>  (51) 
hydroph_interaction:LEU:100    0
hydroph_interaction:LEU:100    0
Name: 49, dtype: object

>  <hbond:SER:105>  (51) 
hbond:SER:105    0
hbond:SER:105    0
Name: 49, dtype: object

>  <halogenbond:SER:105>  (51) 
halogenbond:SER:105    0
halogenbond:SER:105    0
Name: 49, dtype: object

>  <hydroph_interaction:PRO:107>  (51) 
hydroph_interaction:PRO:107    1
hydroph_interaction:PRO:107    1
Name: 49, dtype: object

>  <hbond:PRO:107>  (51) 
hbond:PRO:107    0
hbond:PRO:107    0
Name: 49, dtype: object

>  <halogenbond:PRO:107>  (51) 
halogenbond:PRO:107    0
halogenbond:PRO:107    0
Name: 49, dtype: object

>  <hbond:ASP:109>  (51) 
hbond:ASP:109    0
hbond:ASP:109    0
Name: 49, dtype: object

>  <hbond:CYS:110>  (51) 
hbond:CYS:110    0
hbond:CYS:110    0
Name: 49, dtype: object

>  <halogenbond:CYS:110>  (51) 
halogenbond:CYS:110    0
halogenbond:CYS:110    0
Name: 49, dtype: object

>  <hydroph_interaction:VAL:124>  (51) 
hydroph_interaction:VAL:124    0
hydroph_interaction:VAL:124    0
Name: 49, dtype: object

>  <hbond:SER:125>  (51) 
hbond:SER:125    1
hbond:SER:125    1
Name: 49, dtype: object

>  <halogenbond:SER:125>  (51) 
halogenbond:SER:125    0
halogenbond:SER:125    0
Name: 49, dtype: object

>  <hydroph_interaction:THR:126>  (51) 
hydroph_interaction:THR:126    0
hydroph_interaction:THR:126    0
Name: 49, dtype: object

>  <hbond:THR:126>  (51) 
hbond:THR:126    0
hbond:THR:126    0
Name: 49, dtype: object

>  <halogenbond:THR:126>  (51) 
halogenbond:THR:126    0
halogenbond:THR:126    0
Name: 49, dtype: object

>  <hbond:GLY:127>  (51) 
hbond:GLY:127    1
hbond:GLY:127    1
Name: 49, dtype: object

>  <halogenbond:GLY:127>  (51) 
halogenbond:GLY:127    0
halogenbond:GLY:127    0
Name: 49, dtype: object

>  <hbond:GLY:128>  (51) 
hbond:GLY:128    0
hbond:GLY:128    0
Name: 49, dtype: object

>  <hbond:ASN:129>  (51) 
hbond:ASN:129    0
hbond:ASN:129    0
Name: 49, dtype: object

>  <hydroph_interaction:ASN:129>  (51) 
hydroph_interaction:ASN:129    0
hydroph_interaction:ASN:129    0
Name: 49, dtype: object

>  <halogenbond:ASN:129>  (51) 
halogenbond:ASN:129    0
halogenbond:ASN:129    0
Name: 49, dtype: object

>  <hydroph_interaction:LEU:131>  (51) 
hydroph_interaction:LEU:131    0
hydroph_interaction:LEU:131    0
Name: 49, dtype: object

>  <hbond:LEU:131>  (51) 
hbond:LEU:131    0
hbond:LEU:131    0
Name: 49, dtype: object

>  <halogenbond:LEU:131>  (51) 
halogenbond:LEU:131    0
halogenbond:LEU:131    0
Name: 49, dtype: object

>  <hbond:VAL:132>  (51) 
hbond:VAL:132    0
hbond:VAL:132    0
Name: 49, dtype: object

$$$$
PV_005397450316
     RDKit          3D

  7  6  0  0  0  0  0  0  0  0999 V2000
   40.5352   11.3340   11.6625 C   0  0  0  0  0  0  0  0  0  0  0  0
   40.0146   12.7279   12.6892 S   0  0  0  0  0  0  0  0  0  0  0  0
   38.2703   12.5429   12.4945 C   0  0  0  0  0  0  0  0  0  0  0  0
   37.7770   12.8186   11.0688 C   0  0  0  0  0  0  0  0  0  0  0  0
   38.1657   13.7599   10.3376 O   0  0  0  0  0  0  0  0  0  0  0  0
   36.8302   11.8993   10.6846 N   0  0  0  0  0  0  0  0  0  0  0  0
   36.6760   10.7195   11.4596 N   0  0  0  0  0  0  0  0  0  0  0  0
  1  2  1  0
  2  3  1  0
  3  4  1  0
  4  5  2  0
  4  6  1  0
  6  7  1  0
A    1
 C1 
A    2
 S1 
A    3
 C2 
A    4
 C3 
A    5
 O1 
A    6
 N1 
A    7
 N2 
M  END
>  <ref_pdb>  (52) 
Ax0310a

>  <ref_mols>  (52) 
Ax0375a

>  <original SMILES>  (52) 
CSCC(=O)NN

>  <rationale>  (52) 
info hbond:G127+E85+L131; 

>  <intxn_cluster_10>  (52) 
4

>  <intxn_cluster_rank_10>  (52) 
3

>  <N_interactions>  (52) 
3

>  <∆∆G>  (52) 
-5.098131

>  <$/mg>  (52) 
0.0

>  <comRMSD>  (52) 
0.87723

>  <N_rotatable_bonds>  (52) 
4

>  <deep_P1_sidechain>  (52) 
False

>  <farthest_distance_to_substrate>  (52) 
3.522244

>  <hbond:SER:7>  (52) 
hbond:SER:7    0
hbond:SER:7    0
Name: 50, dtype: object

>  <hydroph_interaction:ASN:19>  (52) 
hydroph_interaction:ASN:19    0
hydroph_interaction:ASN:19    0
Name: 50, dtype: object

>  <halogenbond:ASN:19>  (52) 
halogenbond:ASN:19    0
halogenbond:ASN:19    0
Name: 50, dtype: object

>  <hbond:ARG:20>  (52) 
hbond:ARG:20    0
hbond:ARG:20    0
Name: 50, dtype: object

>  <hydroph_interaction:ARG:20>  (52) 
hydroph_interaction:ARG:20    0
hydroph_interaction:ARG:20    0
Name: 50, dtype: object

>  <hbond:HIS:21>  (52) 
hbond:HIS:21    0
hbond:HIS:21    0
Name: 50, dtype: object

>  <hydroph_interaction:HIS:21>  (52) 
hydroph_interaction:HIS:21    0
hydroph_interaction:HIS:21    0
Name: 50, dtype: object

>  <saltbridge:HIS:21>  (52) 
saltbridge:HIS:21    0
saltbridge:HIS:21    0
Name: 50, dtype: object

>  <pistack:HIS:21>  (52) 
pistack:HIS:21    0
pistack:HIS:21    0
Name: 50, dtype: object

>  <pication:HIS:21>  (52) 
pication:HIS:21    0
pication:HIS:21    0
Name: 50, dtype: object

>  <hydroph_interaction:LEU:22>  (52) 
hydroph_interaction:LEU:22    0
hydroph_interaction:LEU:22    0
Name: 50, dtype: object

>  <hbond:SER:36>  (52) 
hbond:SER:36    0
hbond:SER:36    0
Name: 50, dtype: object

>  <hbond:ASP:39>  (52) 
hbond:ASP:39    0
hbond:ASP:39    0
Name: 50, dtype: object

>  <saltbridge:ASP:39>  (52) 
saltbridge:ASP:39    0
saltbridge:ASP:39    0
Name: 50, dtype: object

>  <hydroph_interaction:ASP:39>  (52) 
hydroph_interaction:ASP:39    0
hydroph_interaction:ASP:39    0
Name: 50, dtype: object

>  <halogenbond:ASP:39>  (52) 
halogenbond:ASP:39    0
halogenbond:ASP:39    0
Name: 50, dtype: object

>  <hydroph_interaction:ILE:82>  (52) 
hydroph_interaction:ILE:82    0
hydroph_interaction:ILE:82    0
Name: 50, dtype: object

>  <hydroph_interaction:PHE:83>  (52) 
hydroph_interaction:PHE:83    0
hydroph_interaction:PHE:83    0
Name: 50, dtype: object

>  <hbond:PHE:83>  (52) 
hbond:PHE:83    0
hbond:PHE:83    0
Name: 50, dtype: object

>  <halogenbond:PHE:83>  (52) 
halogenbond:PHE:83    0
halogenbond:PHE:83    0
Name: 50, dtype: object

>  <hydroph_interaction:VAL:84>  (52) 
hydroph_interaction:VAL:84    0
hydroph_interaction:VAL:84    0
Name: 50, dtype: object

>  <hydroph_interaction:GLU:85>  (52) 
hydroph_interaction:GLU:85    0
hydroph_interaction:GLU:85    0
Name: 50, dtype: object

>  <hbond:GLU:85>  (52) 
hbond:GLU:85    1
hbond:GLU:85    1
Name: 50, dtype: object

>  <halogenbond:GLU:85>  (52) 
halogenbond:GLU:85    0
halogenbond:GLU:85    0
Name: 50, dtype: object

>  <halogenbond:ALA:86>  (52) 
halogenbond:ALA:86    0
halogenbond:ALA:86    0
Name: 50, dtype: object

>  <hbond:SER:87>  (52) 
hbond:SER:87    0
hbond:SER:87    0
Name: 50, dtype: object

>  <halogenbond:SER:87>  (52) 
halogenbond:SER:87    0
halogenbond:SER:87    0
Name: 50, dtype: object

>  <hbond:GLU:88>  (52) 
hbond:GLU:88    0
hbond:GLU:88    0
Name: 50, dtype: object

>  <halogenbond:GLU:88>  (52) 
halogenbond:GLU:88    0
halogenbond:GLU:88    0
Name: 50, dtype: object

>  <hydroph_interaction:TYR:89>  (52) 
hydroph_interaction:TYR:89    0
hydroph_interaction:TYR:89    0
Name: 50, dtype: object

>  <pistack:TYR:89>  (52) 
pistack:TYR:89    0
pistack:TYR:89    0
Name: 50, dtype: object

>  <hbond:TYR:89>  (52) 
hbond:TYR:89    0
hbond:TYR:89    0
Name: 50, dtype: object

>  <hbond:TYR:90>  (52) 
hbond:TYR:90    0
hbond:TYR:90    0
Name: 50, dtype: object

>  <hydroph_interaction:TYR:90>  (52) 
hydroph_interaction:TYR:90    0
hydroph_interaction:TYR:90    0
Name: 50, dtype: object

>  <pistack:TYR:90>  (52) 
pistack:TYR:90    0
pistack:TYR:90    0
Name: 50, dtype: object

>  <hbond:ARG:93>  (52) 
hbond:ARG:93    0
hbond:ARG:93    0
Name: 50, dtype: object

>  <saltbridge:ARG:93>  (52) 
saltbridge:ARG:93    0
saltbridge:ARG:93    0
Name: 50, dtype: object

>  <hydroph_interaction:ARG:93>  (52) 
hydroph_interaction:ARG:93    0
hydroph_interaction:ARG:93    0
Name: 50, dtype: object

>  <halogenbond:GLN:95>  (52) 
halogenbond:GLN:95    0
halogenbond:GLN:95    0
Name: 50, dtype: object

>  <hbond:GLN:95>  (52) 
hbond:GLN:95    0
hbond:GLN:95    0
Name: 50, dtype: object

>  <hydroph_interaction:GLN:95>  (52) 
hydroph_interaction:GLN:95    0
hydroph_interaction:GLN:95    0
Name: 50, dtype: object

>  <hydroph_interaction:LEU:98>  (52) 
hydroph_interaction:LEU:98    0
hydroph_interaction:LEU:98    0
Name: 50, dtype: object

>  <hydroph_interaction:LEU:100>  (52) 
hydroph_interaction:LEU:100    0
hydroph_interaction:LEU:100    0
Name: 50, dtype: object

>  <hbond:SER:105>  (52) 
hbond:SER:105    0
hbond:SER:105    0
Name: 50, dtype: object

>  <halogenbond:SER:105>  (52) 
halogenbond:SER:105    0
halogenbond:SER:105    0
Name: 50, dtype: object

>  <hydroph_interaction:PRO:107>  (52) 
hydroph_interaction:PRO:107    0
hydroph_interaction:PRO:107    0
Name: 50, dtype: object

>  <hbond:PRO:107>  (52) 
hbond:PRO:107    0
hbond:PRO:107    0
Name: 50, dtype: object

>  <halogenbond:PRO:107>  (52) 
halogenbond:PRO:107    0
halogenbond:PRO:107    0
Name: 50, dtype: object

>  <hbond:ASP:109>  (52) 
hbond:ASP:109    0
hbond:ASP:109    0
Name: 50, dtype: object

>  <hbond:CYS:110>  (52) 
hbond:CYS:110    0
hbond:CYS:110    0
Name: 50, dtype: object

>  <halogenbond:CYS:110>  (52) 
halogenbond:CYS:110    0
halogenbond:CYS:110    0
Name: 50, dtype: object

>  <hydroph_interaction:VAL:124>  (52) 
hydroph_interaction:VAL:124    0
hydroph_interaction:VAL:124    0
Name: 50, dtype: object

>  <hbond:SER:125>  (52) 
hbond:SER:125    0
hbond:SER:125    0
Name: 50, dtype: object

>  <halogenbond:SER:125>  (52) 
halogenbond:SER:125    0
halogenbond:SER:125    0
Name: 50, dtype: object

>  <hydroph_interaction:THR:126>  (52) 
hydroph_interaction:THR:126    0
hydroph_interaction:THR:126    0
Name: 50, dtype: object

>  <hbond:THR:126>  (52) 
hbond:THR:126    0
hbond:THR:126    0
Name: 50, dtype: object

>  <halogenbond:THR:126>  (52) 
halogenbond:THR:126    0
halogenbond:THR:126    0
Name: 50, dtype: object

>  <hbond:GLY:127>  (52) 
hbond:GLY:127    1
hbond:GLY:127    1
Name: 50, dtype: object

>  <halogenbond:GLY:127>  (52) 
halogenbond:GLY:127    0
halogenbond:GLY:127    0
Name: 50, dtype: object

>  <hbond:GLY:128>  (52) 
hbond:GLY:128    0
hbond:GLY:128    0
Name: 50, dtype: object

>  <hbond:ASN:129>  (52) 
hbond:ASN:129    0
hbond:ASN:129    0
Name: 50, dtype: object

>  <hydroph_interaction:ASN:129>  (52) 
hydroph_interaction:ASN:129    0
hydroph_interaction:ASN:129    0
Name: 50, dtype: object

>  <halogenbond:ASN:129>  (52) 
halogenbond:ASN:129    0
halogenbond:ASN:129    0
Name: 50, dtype: object

>  <hydroph_interaction:LEU:131>  (52) 
hydroph_interaction:LEU:131    0
hydroph_interaction:LEU:131    0
Name: 50, dtype: object

>  <hbond:LEU:131>  (52) 
hbond:LEU:131    1
hbond:LEU:131    1
Name: 50, dtype: object

>  <halogenbond:LEU:131>  (52) 
halogenbond:LEU:131    0
halogenbond:LEU:131    0
Name: 50, dtype: object

>  <hbond:VAL:132>  (52) 
hbond:VAL:132    0
hbond:VAL:132    0
Name: 50, dtype: object

$$$$
PV_002735478814
     RDKit          3D

 14 14  0  0  0  0  0  0  0  0999 V2000
   36.4404   13.6832   14.5498 C   0  0  0  0  0  0  0  0  0  0  0  0
   36.4741   12.4718   14.0338 C   0  0  0  0  0  0  0  0  0  0  0  0
   37.2287   12.0957   12.8536 C   0  0  0  0  0  0  0  0  0  0  0  0
   38.2628   12.8868   12.3852 C   0  0  0  0  0  0  0  0  0  0  0  0
   38.9907   12.4929   11.2443 C   0  0  0  0  0  0  0  0  0  0  0  0
   40.1353   13.3204   10.7223 C   0  0  0  0  0  0  0  0  0  0  0  0
   40.6313   14.2973   11.8027 C   0  0  0  0  0  0  0  0  0  0  0  0
   39.7343   14.1410    9.4967 C   0  0  0  0  0  0  0  0  0  0  0  0
   41.2703   12.3544   10.3198 C   0  0  0  0  0  0  0  0  0  0  0  0
   38.6468   11.3184   10.5923 C   0  0  0  0  0  0  0  0  0  0  0  0
   37.6273   10.5466   11.0630 C   0  0  0  0  0  0  0  0  0  0  0  0
   36.9475   10.9399   12.1783 C   0  0  0  0  0  0  0  0  0  0  0  0
   36.0131   10.1967   12.6755 O   0  0  0  0  0  0  0  0  0  0  0  0
   36.8013    9.1197   12.9712 C   0  0  0  0  0  0  0  0  0  0  0  0
  1  2  2  0
  2  3  1  0
  3  4  2  0
  4  5  1  0
  5  6  1  0
  6  7  1  0
  6  8  1  0
  6  9  1  0
  5 10  2  0
 10 11  1  0
 11 12  2  0
 12 13  1  0
 13 14  1  0
 12  3  1  0
A    1
 C1 
A    2
 C2 
A    3
 C3 
A    4
 C4 
A    5
 C5 
A    6
 C6 
A    7
 C7 
A    8
 C8 
A    9
 C9 
A   10
 C10
A   11
 C11
A   12
 C12
A   13
 O1 
A   14
 C13
M  END
>  <ref_pdb>  (53) 
Ax0310a

>  <ref_mols>  (53) 
Ax0473a,Ax0416a

>  <original SMILES>  (53) 
C=Cc1cc(C(C)(C)C)ccc1OC

>  <rationale>  (53) 
info hydroph_interaction:V84+E85+I82+L100+L131+L98; 

>  <intxn_cluster_10>  (53) 
4

>  <intxn_cluster_rank_10>  (53) 
10

>  <N_interactions>  (53) 
6

>  <∆∆G>  (53) 
-10.467025

>  <$/mg>  (53) 
0.0

>  <comRMSD>  (53) 
0.60216

>  <N_rotatable_bonds>  (53) 
3

>  <deep_P1_sidechain>  (53) 
False

>  <farthest_distance_to_substrate>  (53) 
4.317502

>  <hbond:SER:7>  (53) 
hbond:SER:7    0
hbond:SER:7    0
Name: 51, dtype: object

>  <hydroph_interaction:ASN:19>  (53) 
hydroph_interaction:ASN:19    0
hydroph_interaction:ASN:19    0
Name: 51, dtype: object

>  <halogenbond:ASN:19>  (53) 
halogenbond:ASN:19    0
halogenbond:ASN:19    0
Name: 51, dtype: object

>  <hbond:ARG:20>  (53) 
hbond:ARG:20    0
hbond:ARG:20    0
Name: 51, dtype: object

>  <hydroph_interaction:ARG:20>  (53) 
hydroph_interaction:ARG:20    0
hydroph_interaction:ARG:20    0
Name: 51, dtype: object

>  <hbond:HIS:21>  (53) 
hbond:HIS:21    0
hbond:HIS:21    0
Name: 51, dtype: object

>  <hydroph_interaction:HIS:21>  (53) 
hydroph_interaction:HIS:21    0
hydroph_interaction:HIS:21    0
Name: 51, dtype: object

>  <saltbridge:HIS:21>  (53) 
saltbridge:HIS:21    0
saltbridge:HIS:21    0
Name: 51, dtype: object

>  <pistack:HIS:21>  (53) 
pistack:HIS:21    0
pistack:HIS:21    0
Name: 51, dtype: object

>  <pication:HIS:21>  (53) 
pication:HIS:21    0
pication:HIS:21    0
Name: 51, dtype: object

>  <hydroph_interaction:LEU:22>  (53) 
hydroph_interaction:LEU:22    0
hydroph_interaction:LEU:22    0
Name: 51, dtype: object

>  <hbond:SER:36>  (53) 
hbond:SER:36    0
hbond:SER:36    0
Name: 51, dtype: object

>  <hbond:ASP:39>  (53) 
hbond:ASP:39    0
hbond:ASP:39    0
Name: 51, dtype: object

>  <saltbridge:ASP:39>  (53) 
saltbridge:ASP:39    0
saltbridge:ASP:39    0
Name: 51, dtype: object

>  <hydroph_interaction:ASP:39>  (53) 
hydroph_interaction:ASP:39    0
hydroph_interaction:ASP:39    0
Name: 51, dtype: object

>  <halogenbond:ASP:39>  (53) 
halogenbond:ASP:39    0
halogenbond:ASP:39    0
Name: 51, dtype: object

>  <hydroph_interaction:ILE:82>  (53) 
hydroph_interaction:ILE:82    1
hydroph_interaction:ILE:82    1
Name: 51, dtype: object

>  <hydroph_interaction:PHE:83>  (53) 
hydroph_interaction:PHE:83    0
hydroph_interaction:PHE:83    0
Name: 51, dtype: object

>  <hbond:PHE:83>  (53) 
hbond:PHE:83    0
hbond:PHE:83    0
Name: 51, dtype: object

>  <halogenbond:PHE:83>  (53) 
halogenbond:PHE:83    0
halogenbond:PHE:83    0
Name: 51, dtype: object

>  <hydroph_interaction:VAL:84>  (53) 
hydroph_interaction:VAL:84    1
hydroph_interaction:VAL:84    1
Name: 51, dtype: object

>  <hydroph_interaction:GLU:85>  (53) 
hydroph_interaction:GLU:85    1
hydroph_interaction:GLU:85    1
Name: 51, dtype: object

>  <hbond:GLU:85>  (53) 
hbond:GLU:85    0
hbond:GLU:85    0
Name: 51, dtype: object

>  <halogenbond:GLU:85>  (53) 
halogenbond:GLU:85    0
halogenbond:GLU:85    0
Name: 51, dtype: object

>  <halogenbond:ALA:86>  (53) 
halogenbond:ALA:86    0
halogenbond:ALA:86    0
Name: 51, dtype: object

>  <hbond:SER:87>  (53) 
hbond:SER:87    0
hbond:SER:87    0
Name: 51, dtype: object

>  <halogenbond:SER:87>  (53) 
halogenbond:SER:87    0
halogenbond:SER:87    0
Name: 51, dtype: object

>  <hbond:GLU:88>  (53) 
hbond:GLU:88    0
hbond:GLU:88    0
Name: 51, dtype: object

>  <halogenbond:GLU:88>  (53) 
halogenbond:GLU:88    0
halogenbond:GLU:88    0
Name: 51, dtype: object

>  <hydroph_interaction:TYR:89>  (53) 
hydroph_interaction:TYR:89    0
hydroph_interaction:TYR:89    0
Name: 51, dtype: object

>  <pistack:TYR:89>  (53) 
pistack:TYR:89    0
pistack:TYR:89    0
Name: 51, dtype: object

>  <hbond:TYR:89>  (53) 
hbond:TYR:89    0
hbond:TYR:89    0
Name: 51, dtype: object

>  <hbond:TYR:90>  (53) 
hbond:TYR:90    0
hbond:TYR:90    0
Name: 51, dtype: object

>  <hydroph_interaction:TYR:90>  (53) 
hydroph_interaction:TYR:90    0
hydroph_interaction:TYR:90    0
Name: 51, dtype: object

>  <pistack:TYR:90>  (53) 
pistack:TYR:90    0
pistack:TYR:90    0
Name: 51, dtype: object

>  <hbond:ARG:93>  (53) 
hbond:ARG:93    0
hbond:ARG:93    0
Name: 51, dtype: object

>  <saltbridge:ARG:93>  (53) 
saltbridge:ARG:93    0
saltbridge:ARG:93    0
Name: 51, dtype: object

>  <hydroph_interaction:ARG:93>  (53) 
hydroph_interaction:ARG:93    0
hydroph_interaction:ARG:93    0
Name: 51, dtype: object

>  <halogenbond:GLN:95>  (53) 
halogenbond:GLN:95    0
halogenbond:GLN:95    0
Name: 51, dtype: object

>  <hbond:GLN:95>  (53) 
hbond:GLN:95    0
hbond:GLN:95    0
Name: 51, dtype: object

>  <hydroph_interaction:GLN:95>  (53) 
hydroph_interaction:GLN:95    0
hydroph_interaction:GLN:95    0
Name: 51, dtype: object

>  <hydroph_interaction:LEU:98>  (53) 
hydroph_interaction:LEU:98    1
hydroph_interaction:LEU:98    1
Name: 51, dtype: object

>  <hydroph_interaction:LEU:100>  (53) 
hydroph_interaction:LEU:100    1
hydroph_interaction:LEU:100    1
Name: 51, dtype: object

>  <hbond:SER:105>  (53) 
hbond:SER:105    0
hbond:SER:105    0
Name: 51, dtype: object

>  <halogenbond:SER:105>  (53) 
halogenbond:SER:105    0
halogenbond:SER:105    0
Name: 51, dtype: object

>  <hydroph_interaction:PRO:107>  (53) 
hydroph_interaction:PRO:107    0
hydroph_interaction:PRO:107    0
Name: 51, dtype: object

>  <hbond:PRO:107>  (53) 
hbond:PRO:107    0
hbond:PRO:107    0
Name: 51, dtype: object

>  <halogenbond:PRO:107>  (53) 
halogenbond:PRO:107    0
halogenbond:PRO:107    0
Name: 51, dtype: object

>  <hbond:ASP:109>  (53) 
hbond:ASP:109    0
hbond:ASP:109    0
Name: 51, dtype: object

>  <hbond:CYS:110>  (53) 
hbond:CYS:110    0
hbond:CYS:110    0
Name: 51, dtype: object

>  <halogenbond:CYS:110>  (53) 
halogenbond:CYS:110    0
halogenbond:CYS:110    0
Name: 51, dtype: object

>  <hydroph_interaction:VAL:124>  (53) 
hydroph_interaction:VAL:124    0
hydroph_interaction:VAL:124    0
Name: 51, dtype: object

>  <hbond:SER:125>  (53) 
hbond:SER:125    0
hbond:SER:125    0
Name: 51, dtype: object

>  <halogenbond:SER:125>  (53) 
halogenbond:SER:125    0
halogenbond:SER:125    0
Name: 51, dtype: object

>  <hydroph_interaction:THR:126>  (53) 
hydroph_interaction:THR:126    0
hydroph_interaction:THR:126    0
Name: 51, dtype: object

>  <hbond:THR:126>  (53) 
hbond:THR:126    0
hbond:THR:126    0
Name: 51, dtype: object

>  <halogenbond:THR:126>  (53) 
halogenbond:THR:126    0
halogenbond:THR:126    0
Name: 51, dtype: object

>  <hbond:GLY:127>  (53) 
hbond:GLY:127    0
hbond:GLY:127    0
Name: 51, dtype: object

>  <halogenbond:GLY:127>  (53) 
halogenbond:GLY:127    0
halogenbond:GLY:127    0
Name: 51, dtype: object

>  <hbond:GLY:128>  (53) 
hbond:GLY:128    0
hbond:GLY:128    0
Name: 51, dtype: object

>  <hbond:ASN:129>  (53) 
hbond:ASN:129    0
hbond:ASN:129    0
Name: 51, dtype: object

>  <hydroph_interaction:ASN:129>  (53) 
hydroph_interaction:ASN:129    0
hydroph_interaction:ASN:129    0
Name: 51, dtype: object

>  <halogenbond:ASN:129>  (53) 
halogenbond:ASN:129    0
halogenbond:ASN:129    0
Name: 51, dtype: object

>  <hydroph_interaction:LEU:131>  (53) 
hydroph_interaction:LEU:131    1
hydroph_interaction:LEU:131    1
Name: 51, dtype: object

>  <hbond:LEU:131>  (53) 
hbond:LEU:131    0
hbond:LEU:131    0
Name: 51, dtype: object

>  <halogenbond:LEU:131>  (53) 
halogenbond:LEU:131    0
halogenbond:LEU:131    0
Name: 51, dtype: object

>  <hbond:VAL:132>  (53) 
hbond:VAL:132    0
hbond:VAL:132    0
Name: 51, dtype: object

$$$$
Z4031394680
     RDKit          3D

 22 23  0  0  0  0  0  0  0  0999 V2000
   23.6112   19.8182    9.7584 C   0  0  0  0  0  0  0  0  0  0  0  0
   23.7914   19.2974   11.1972 C   0  0  0  0  0  0  0  0  0  0  0  0
   25.3847   19.5205   11.9568 S   0  0  0  0  0  6  0  0  0  0  0  0
   25.6757   20.9332   11.9129 O   0  0  0  0  0  0  0  0  0  0  0  0
   25.3652   18.8050   13.2086 O   0  0  0  0  0  0  0  0  0  0  0  0
   26.4356   18.6570   10.9506 N   0  0  0  0  0  0  0  0  0  0  0  0
   27.0840   17.4361   11.4893 C   0  0  0  0  0  0  0  0  0  0  0  0
   27.2078   16.3626   10.4524 C   0  0  0  0  0  0  0  0  0  0  0  0
   28.6276   15.9677    9.9830 C   0  0  0  0  0  0  0  0  0  0  0  0
   28.6285   14.8045    9.2192 N   0  0  0  0  0  0  0  0  0  0  0  0
   27.8005   14.8564    8.0348 C   0  0  0  0  0  0  0  0  0  0  0  0
   27.7974   13.5790    7.2180 C   0  0  0  0  0  0  0  0  0  0  0  0
   28.7545   12.6180    7.6939 N   0  0  0  0  0  0  0  0  0  0  0  0
   30.0454   13.2565    7.6222 C   0  0  2  0  0  0  0  0  0  0  0  0
   30.9679   12.0648    7.2977 C   0  0  0  0  0  0  0  0  0  0  0  0
   32.1514   12.1638    6.3206 C   0  0  0  0  0  0  0  0  0  0  0  0
   32.8591   10.8207    6.1248 C   0  0  0  0  0  0  0  0  0  0  0  0
   32.4947    9.6288    6.7483 C   0  0  0  0  0  0  0  0  0  0  0  0
   31.4406    9.5627    7.6317 C   0  0  0  0  0  0  0  0  0  0  0  0
   30.6581   10.8324    7.9116 C   0  0  0  0  0  0  0  0  0  0  0  0
   29.9962   14.4079    8.7524 C   0  0  2  0  0  0  0  0  0  0  0  0
   31.1193   14.4258    9.7759 C   0  0  0  0  0  0  0  0  0  0  0  0
  1  2  1  0
  2  3  1  0
  3  4  2  0
  3  5  2  0
  3  6  1  0
  6  7  1  0
  7  8  1  0
  8  9  1  0
  9 10  1  0
 10 11  1  0
 11 12  1  0
 12 13  1  0
 13 14  1  0
 14 15  1  1
 15 16  2  0
 16 17  1  0
 17 18  2  0
 18 19  1  0
 19 20  2  0
 14 21  1  0
 21 22  1  1
 21 10  1  0
 20 15  1  0
A    1
 C1 
A    2
 C2 
A    3
 S1 
A    4
 O1 
A    5
 O2 
A    6
 N1 
A    7
 C3 
A    8
 C4 
A    9
 C5 
A   10
 N2 
A   11
 C6 
A   12
 C7 
A   13
 N3 
A   14
 C8 
A   15
 C9 
A   16
 C10
A   17
 C11
A   18
 C12
A   19
 C13
A   20
 C14
A   21
 C15
A   22
 C16
M  END
>  <ref_pdb>  (54) 
Ax0310a

>  <ref_mols>  (54) 
Ax0528a,Ax0365a

>  <original SMILES>  (54) 
CCS(=O)(=O)NCCCN1CCN[C@H](c2ccccc2)[C@@H]1C

>  <rationale>  (54) 
info hbond:S125+R20+Y89; hydroph_interaction:P107+T126; saltbridge:D39; 

>  <intxn_cluster_10>  (54) 
1

>  <intxn_cluster_rank_10>  (54) 
6

>  <N_interactions>  (54) 
6

>  <∆∆G>  (54) 
-8.096068

>  <$/mg>  (54) 
0.0

>  <comRMSD>  (54) 
0.968645

>  <N_rotatable_bonds>  (54) 
9

>  <deep_P1_sidechain>  (54) 
False

>  <farthest_distance_to_substrate>  (54) 
4.733441

>  <hbond:SER:7>  (54) 
hbond:SER:7    0
hbond:SER:7    0
Name: 52, dtype: object

>  <hydroph_interaction:ASN:19>  (54) 
hydroph_interaction:ASN:19    0
hydroph_interaction:ASN:19    0
Name: 52, dtype: object

>  <halogenbond:ASN:19>  (54) 
halogenbond:ASN:19    0
halogenbond:ASN:19    0
Name: 52, dtype: object

>  <hbond:ARG:20>  (54) 
hbond:ARG:20    1
hbond:ARG:20    1
Name: 52, dtype: object

>  <hydroph_interaction:ARG:20>  (54) 
hydroph_interaction:ARG:20    0
hydroph_interaction:ARG:20    0
Name: 52, dtype: object

>  <hbond:HIS:21>  (54) 
hbond:HIS:21    0
hbond:HIS:21    0
Name: 52, dtype: object

>  <hydroph_interaction:HIS:21>  (54) 
hydroph_interaction:HIS:21    0
hydroph_interaction:HIS:21    0
Name: 52, dtype: object

>  <saltbridge:HIS:21>  (54) 
saltbridge:HIS:21    0
saltbridge:HIS:21    0
Name: 52, dtype: object

>  <pistack:HIS:21>  (54) 
pistack:HIS:21    0
pistack:HIS:21    0
Name: 52, dtype: object

>  <pication:HIS:21>  (54) 
pication:HIS:21    0
pication:HIS:21    0
Name: 52, dtype: object

>  <hydroph_interaction:LEU:22>  (54) 
hydroph_interaction:LEU:22    0
hydroph_interaction:LEU:22    0
Name: 52, dtype: object

>  <hbond:SER:36>  (54) 
hbond:SER:36    0
hbond:SER:36    0
Name: 52, dtype: object

>  <hbond:ASP:39>  (54) 
hbond:ASP:39    0
hbond:ASP:39    0
Name: 52, dtype: object

>  <saltbridge:ASP:39>  (54) 
saltbridge:ASP:39    1
saltbridge:ASP:39    1
Name: 52, dtype: object

>  <hydroph_interaction:ASP:39>  (54) 
hydroph_interaction:ASP:39    0
hydroph_interaction:ASP:39    0
Name: 52, dtype: object

>  <halogenbond:ASP:39>  (54) 
halogenbond:ASP:39    0
halogenbond:ASP:39    0
Name: 52, dtype: object

>  <hydroph_interaction:ILE:82>  (54) 
hydroph_interaction:ILE:82    0
hydroph_interaction:ILE:82    0
Name: 52, dtype: object

>  <hydroph_interaction:PHE:83>  (54) 
hydroph_interaction:PHE:83    0
hydroph_interaction:PHE:83    0
Name: 52, dtype: object

>  <hbond:PHE:83>  (54) 
hbond:PHE:83    0
hbond:PHE:83    0
Name: 52, dtype: object

>  <halogenbond:PHE:83>  (54) 
halogenbond:PHE:83    0
halogenbond:PHE:83    0
Name: 52, dtype: object

>  <hydroph_interaction:VAL:84>  (54) 
hydroph_interaction:VAL:84    0
hydroph_interaction:VAL:84    0
Name: 52, dtype: object

>  <hydroph_interaction:GLU:85>  (54) 
hydroph_interaction:GLU:85    0
hydroph_interaction:GLU:85    0
Name: 52, dtype: object

>  <hbond:GLU:85>  (54) 
hbond:GLU:85    0
hbond:GLU:85    0
Name: 52, dtype: object

>  <halogenbond:GLU:85>  (54) 
halogenbond:GLU:85    0
halogenbond:GLU:85    0
Name: 52, dtype: object

>  <halogenbond:ALA:86>  (54) 
halogenbond:ALA:86    0
halogenbond:ALA:86    0
Name: 52, dtype: object

>  <hbond:SER:87>  (54) 
hbond:SER:87    0
hbond:SER:87    0
Name: 52, dtype: object

>  <halogenbond:SER:87>  (54) 
halogenbond:SER:87    0
halogenbond:SER:87    0
Name: 52, dtype: object

>  <hbond:GLU:88>  (54) 
hbond:GLU:88    0
hbond:GLU:88    0
Name: 52, dtype: object

>  <halogenbond:GLU:88>  (54) 
halogenbond:GLU:88    0
halogenbond:GLU:88    0
Name: 52, dtype: object

>  <hydroph_interaction:TYR:89>  (54) 
hydroph_interaction:TYR:89    0
hydroph_interaction:TYR:89    0
Name: 52, dtype: object

>  <pistack:TYR:89>  (54) 
pistack:TYR:89    0
pistack:TYR:89    0
Name: 52, dtype: object

>  <hbond:TYR:89>  (54) 
hbond:TYR:89    1
hbond:TYR:89    1
Name: 52, dtype: object

>  <hbond:TYR:90>  (54) 
hbond:TYR:90    0
hbond:TYR:90    0
Name: 52, dtype: object

>  <hydroph_interaction:TYR:90>  (54) 
hydroph_interaction:TYR:90    0
hydroph_interaction:TYR:90    0
Name: 52, dtype: object

>  <pistack:TYR:90>  (54) 
pistack:TYR:90    0
pistack:TYR:90    0
Name: 52, dtype: object

>  <hbond:ARG:93>  (54) 
hbond:ARG:93    0
hbond:ARG:93    0
Name: 52, dtype: object

>  <saltbridge:ARG:93>  (54) 
saltbridge:ARG:93    0
saltbridge:ARG:93    0
Name: 52, dtype: object

>  <hydroph_interaction:ARG:93>  (54) 
hydroph_interaction:ARG:93    0
hydroph_interaction:ARG:93    0
Name: 52, dtype: object

>  <halogenbond:GLN:95>  (54) 
halogenbond:GLN:95    0
halogenbond:GLN:95    0
Name: 52, dtype: object

>  <hbond:GLN:95>  (54) 
hbond:GLN:95    0
hbond:GLN:95    0
Name: 52, dtype: object

>  <hydroph_interaction:GLN:95>  (54) 
hydroph_interaction:GLN:95    0
hydroph_interaction:GLN:95    0
Name: 52, dtype: object

>  <hydroph_interaction:LEU:98>  (54) 
hydroph_interaction:LEU:98    0
hydroph_interaction:LEU:98    0
Name: 52, dtype: object

>  <hydroph_interaction:LEU:100>  (54) 
hydroph_interaction:LEU:100    0
hydroph_interaction:LEU:100    0
Name: 52, dtype: object

>  <hbond:SER:105>  (54) 
hbond:SER:105    0
hbond:SER:105    0
Name: 52, dtype: object

>  <halogenbond:SER:105>  (54) 
halogenbond:SER:105    0
halogenbond:SER:105    0
Name: 52, dtype: object

>  <hydroph_interaction:PRO:107>  (54) 
hydroph_interaction:PRO:107    1
hydroph_interaction:PRO:107    1
Name: 52, dtype: object

>  <hbond:PRO:107>  (54) 
hbond:PRO:107    0
hbond:PRO:107    0
Name: 52, dtype: object

>  <halogenbond:PRO:107>  (54) 
halogenbond:PRO:107    0
halogenbond:PRO:107    0
Name: 52, dtype: object

>  <hbond:ASP:109>  (54) 
hbond:ASP:109    0
hbond:ASP:109    0
Name: 52, dtype: object

>  <hbond:CYS:110>  (54) 
hbond:CYS:110    0
hbond:CYS:110    0
Name: 52, dtype: object

>  <halogenbond:CYS:110>  (54) 
halogenbond:CYS:110    0
halogenbond:CYS:110    0
Name: 52, dtype: object

>  <hydroph_interaction:VAL:124>  (54) 
hydroph_interaction:VAL:124    0
hydroph_interaction:VAL:124    0
Name: 52, dtype: object

>  <hbond:SER:125>  (54) 
hbond:SER:125    1
hbond:SER:125    1
Name: 52, dtype: object

>  <halogenbond:SER:125>  (54) 
halogenbond:SER:125    0
halogenbond:SER:125    0
Name: 52, dtype: object

>  <hydroph_interaction:THR:126>  (54) 
hydroph_interaction:THR:126    1
hydroph_interaction:THR:126    1
Name: 52, dtype: object

>  <hbond:THR:126>  (54) 
hbond:THR:126    0
hbond:THR:126    0
Name: 52, dtype: object

>  <halogenbond:THR:126>  (54) 
halogenbond:THR:126    0
halogenbond:THR:126    0
Name: 52, dtype: object

>  <hbond:GLY:127>  (54) 
hbond:GLY:127    0
hbond:GLY:127    0
Name: 52, dtype: object

>  <halogenbond:GLY:127>  (54) 
halogenbond:GLY:127    0
halogenbond:GLY:127    0
Name: 52, dtype: object

>  <hbond:GLY:128>  (54) 
hbond:GLY:128    0
hbond:GLY:128    0
Name: 52, dtype: object

>  <hbond:ASN:129>  (54) 
hbond:ASN:129    0
hbond:ASN:129    0
Name: 52, dtype: object

>  <hydroph_interaction:ASN:129>  (54) 
hydroph_interaction:ASN:129    0
hydroph_interaction:ASN:129    0
Name: 52, dtype: object

>  <halogenbond:ASN:129>  (54) 
halogenbond:ASN:129    0
halogenbond:ASN:129    0
Name: 52, dtype: object

>  <hydroph_interaction:LEU:131>  (54) 
hydroph_interaction:LEU:131    0
hydroph_interaction:LEU:131    0
Name: 52, dtype: object

>  <hbond:LEU:131>  (54) 
hbond:LEU:131    0
hbond:LEU:131    0
Name: 52, dtype: object

>  <halogenbond:LEU:131>  (54) 
halogenbond:LEU:131    0
halogenbond:LEU:131    0
Name: 52, dtype: object

>  <hbond:VAL:132>  (54) 
hbond:VAL:132    0
hbond:VAL:132    0
Name: 52, dtype: object

$$$$
PV_002381420336
     RDKit          3D

 15 15  0  0  0  0  0  0  0  0999 V2000
   33.8218    9.4226    5.5523 C   0  0  0  0  0  0  0  0  0  0  0  0
   32.7019    9.8107    6.5036 C   0  0  0  0  0  0  0  0  0  0  0  0
   32.2871   11.2782    6.5818 C   0  0  0  0  0  0  0  0  0  0  0  0
   31.1656   11.5959    7.5684 C   0  0  0  0  0  0  0  0  0  0  0  0
   30.6826   13.0070    7.7416 C   0  0  0  0  0  0  0  0  0  0  0  0
   31.6941   13.7178    8.4927 N   0  0  0  0  0  0  0  0  0  0  0  0
   31.3238   14.5594    9.5183 C   0  0  0  0  0  0  0  0  0  0  0  0
   30.1621   14.6956    9.8763 O   0  0  0  0  0  0  0  0  0  0  0  0
   32.3543   15.2607   10.1163 C   0  0  0  0  0  0  0  0  0  0  0  0
   31.6287   16.1248   11.0974 C   0  0  0  0  0  0  0  0  0  0  0  0
   31.1103   16.8106   11.8690 N   0  0  0  0  0  0  0  0  0  0  0  0
   30.6270   10.5464    8.2870 C   0  0  0  0  0  0  0  0  0  0  0  0
   31.1034    9.2576    8.1174 C   0  0  0  0  0  0  0  0  0  0  0  0
   30.4493    8.3171    8.9435 C   0  0  0  0  0  0  0  0  0  0  0  0
   32.0949    8.8678    7.2740 N   0  0  0  0  0  0  0  0  0  0  0  0
  1  2  1  0
  2  3  2  0
  3  4  1  0
  4  5  1  0
  5  6  1  0
  6  7  1  0
  7  8  2  0
  7  9  1  0
  9 10  1  0
 10 11  3  0
  4 12  2  0
 12 13  1  0
 13 14  1  0
 13 15  2  0
 15  2  1  0
A    1
 C1 
A    2
 C2 
A    3
 C3 
A    4
 C4 
A    5
 C5 
A    6
 N1 
A    7
 C6 
A    8
 O1 
A    9
 C7 
A   10
 C8 
A   11
 N2 
A   12
 C9 
A   13
 C10
A   14
 C11
A   15
 N3 
M  END
>  <ref_pdb>  (55) 
Ax0310a

>  <ref_mols>  (55) 
Ax0451a,Ax0739a

>  <original SMILES>  (55) 
Cc1cc(CNC(=O)CC#N)cc(C)n1

>  <rationale>  (55) 
info hbond:S87+R93; hydroph_interaction:V124+T126+V84; 

>  <intxn_cluster_10>  (55) 
4

>  <intxn_cluster_rank_10>  (55) 
9

>  <N_interactions>  (55) 
5

>  <∆∆G>  (55) 
-8.492103

>  <$/mg>  (55) 
163.0

>  <comRMSD>  (55) 
0.917857

>  <N_rotatable_bonds>  (55) 
5

>  <deep_P1_sidechain>  (55) 
True

>  <farthest_distance_to_substrate>  (55) 
2.704168

>  <hbond:SER:7>  (55) 
hbond:SER:7    0
hbond:SER:7    0
Name: 53, dtype: object

>  <hydroph_interaction:ASN:19>  (55) 
hydroph_interaction:ASN:19    0
hydroph_interaction:ASN:19    0
Name: 53, dtype: object

>  <halogenbond:ASN:19>  (55) 
halogenbond:ASN:19    0
halogenbond:ASN:19    0
Name: 53, dtype: object

>  <hbond:ARG:20>  (55) 
hbond:ARG:20    0
hbond:ARG:20    0
Name: 53, dtype: object

>  <hydroph_interaction:ARG:20>  (55) 
hydroph_interaction:ARG:20    0
hydroph_interaction:ARG:20    0
Name: 53, dtype: object

>  <hbond:HIS:21>  (55) 
hbond:HIS:21    0
hbond:HIS:21    0
Name: 53, dtype: object

>  <hydroph_interaction:HIS:21>  (55) 
hydroph_interaction:HIS:21    0
hydroph_interaction:HIS:21    0
Name: 53, dtype: object

>  <saltbridge:HIS:21>  (55) 
saltbridge:HIS:21    0
saltbridge:HIS:21    0
Name: 53, dtype: object

>  <pistack:HIS:21>  (55) 
pistack:HIS:21    0
pistack:HIS:21    0
Name: 53, dtype: object

>  <pication:HIS:21>  (55) 
pication:HIS:21    0
pication:HIS:21    0
Name: 53, dtype: object

>  <hydroph_interaction:LEU:22>  (55) 
hydroph_interaction:LEU:22    0
hydroph_interaction:LEU:22    0
Name: 53, dtype: object

>  <hbond:SER:36>  (55) 
hbond:SER:36    0
hbond:SER:36    0
Name: 53, dtype: object

>  <hbond:ASP:39>  (55) 
hbond:ASP:39    0
hbond:ASP:39    0
Name: 53, dtype: object

>  <saltbridge:ASP:39>  (55) 
saltbridge:ASP:39    0
saltbridge:ASP:39    0
Name: 53, dtype: object

>  <hydroph_interaction:ASP:39>  (55) 
hydroph_interaction:ASP:39    0
hydroph_interaction:ASP:39    0
Name: 53, dtype: object

>  <halogenbond:ASP:39>  (55) 
halogenbond:ASP:39    0
halogenbond:ASP:39    0
Name: 53, dtype: object

>  <hydroph_interaction:ILE:82>  (55) 
hydroph_interaction:ILE:82    0
hydroph_interaction:ILE:82    0
Name: 53, dtype: object

>  <hydroph_interaction:PHE:83>  (55) 
hydroph_interaction:PHE:83    0
hydroph_interaction:PHE:83    0
Name: 53, dtype: object

>  <hbond:PHE:83>  (55) 
hbond:PHE:83    0
hbond:PHE:83    0
Name: 53, dtype: object

>  <halogenbond:PHE:83>  (55) 
halogenbond:PHE:83    0
halogenbond:PHE:83    0
Name: 53, dtype: object

>  <hydroph_interaction:VAL:84>  (55) 
hydroph_interaction:VAL:84    1
hydroph_interaction:VAL:84    1
Name: 53, dtype: object

>  <hydroph_interaction:GLU:85>  (55) 
hydroph_interaction:GLU:85    0
hydroph_interaction:GLU:85    0
Name: 53, dtype: object

>  <hbond:GLU:85>  (55) 
hbond:GLU:85    0
hbond:GLU:85    0
Name: 53, dtype: object

>  <halogenbond:GLU:85>  (55) 
halogenbond:GLU:85    0
halogenbond:GLU:85    0
Name: 53, dtype: object

>  <halogenbond:ALA:86>  (55) 
halogenbond:ALA:86    0
halogenbond:ALA:86    0
Name: 53, dtype: object

>  <hbond:SER:87>  (55) 
hbond:SER:87    1
hbond:SER:87    1
Name: 53, dtype: object

>  <halogenbond:SER:87>  (55) 
halogenbond:SER:87    0
halogenbond:SER:87    0
Name: 53, dtype: object

>  <hbond:GLU:88>  (55) 
hbond:GLU:88    0
hbond:GLU:88    0
Name: 53, dtype: object

>  <halogenbond:GLU:88>  (55) 
halogenbond:GLU:88    0
halogenbond:GLU:88    0
Name: 53, dtype: object

>  <hydroph_interaction:TYR:89>  (55) 
hydroph_interaction:TYR:89    0
hydroph_interaction:TYR:89    0
Name: 53, dtype: object

>  <pistack:TYR:89>  (55) 
pistack:TYR:89    0
pistack:TYR:89    0
Name: 53, dtype: object

>  <hbond:TYR:89>  (55) 
hbond:TYR:89    0
hbond:TYR:89    0
Name: 53, dtype: object

>  <hbond:TYR:90>  (55) 
hbond:TYR:90    0
hbond:TYR:90    0
Name: 53, dtype: object

>  <hydroph_interaction:TYR:90>  (55) 
hydroph_interaction:TYR:90    0
hydroph_interaction:TYR:90    0
Name: 53, dtype: object

>  <pistack:TYR:90>  (55) 
pistack:TYR:90    0
pistack:TYR:90    0
Name: 53, dtype: object

>  <hbond:ARG:93>  (55) 
hbond:ARG:93    1
hbond:ARG:93    1
Name: 53, dtype: object

>  <saltbridge:ARG:93>  (55) 
saltbridge:ARG:93    0
saltbridge:ARG:93    0
Name: 53, dtype: object

>  <hydroph_interaction:ARG:93>  (55) 
hydroph_interaction:ARG:93    0
hydroph_interaction:ARG:93    0
Name: 53, dtype: object

>  <halogenbond:GLN:95>  (55) 
halogenbond:GLN:95    0
halogenbond:GLN:95    0
Name: 53, dtype: object

>  <hbond:GLN:95>  (55) 
hbond:GLN:95    0
hbond:GLN:95    0
Name: 53, dtype: object

>  <hydroph_interaction:GLN:95>  (55) 
hydroph_interaction:GLN:95    0
hydroph_interaction:GLN:95    0
Name: 53, dtype: object

>  <hydroph_interaction:LEU:98>  (55) 
hydroph_interaction:LEU:98    0
hydroph_interaction:LEU:98    0
Name: 53, dtype: object

>  <hydroph_interaction:LEU:100>  (55) 
hydroph_interaction:LEU:100    0
hydroph_interaction:LEU:100    0
Name: 53, dtype: object

>  <hbond:SER:105>  (55) 
hbond:SER:105    0
hbond:SER:105    0
Name: 53, dtype: object

>  <halogenbond:SER:105>  (55) 
halogenbond:SER:105    0
halogenbond:SER:105    0
Name: 53, dtype: object

>  <hydroph_interaction:PRO:107>  (55) 
hydroph_interaction:PRO:107    0
hydroph_interaction:PRO:107    0
Name: 53, dtype: object

>  <hbond:PRO:107>  (55) 
hbond:PRO:107    0
hbond:PRO:107    0
Name: 53, dtype: object

>  <halogenbond:PRO:107>  (55) 
halogenbond:PRO:107    0
halogenbond:PRO:107    0
Name: 53, dtype: object

>  <hbond:ASP:109>  (55) 
hbond:ASP:109    0
hbond:ASP:109    0
Name: 53, dtype: object

>  <hbond:CYS:110>  (55) 
hbond:CYS:110    0
hbond:CYS:110    0
Name: 53, dtype: object

>  <halogenbond:CYS:110>  (55) 
halogenbond:CYS:110    0
halogenbond:CYS:110    0
Name: 53, dtype: object

>  <hydroph_interaction:VAL:124>  (55) 
hydroph_interaction:VAL:124    1
hydroph_interaction:VAL:124    1
Name: 53, dtype: object

>  <hbond:SER:125>  (55) 
hbond:SER:125    0
hbond:SER:125    0
Name: 53, dtype: object

>  <halogenbond:SER:125>  (55) 
halogenbond:SER:125    0
halogenbond:SER:125    0
Name: 53, dtype: object

>  <hydroph_interaction:THR:126>  (55) 
hydroph_interaction:THR:126    1
hydroph_interaction:THR:126    1
Name: 53, dtype: object

>  <hbond:THR:126>  (55) 
hbond:THR:126    0
hbond:THR:126    0
Name: 53, dtype: object

>  <halogenbond:THR:126>  (55) 
halogenbond:THR:126    0
halogenbond:THR:126    0
Name: 53, dtype: object

>  <hbond:GLY:127>  (55) 
hbond:GLY:127    0
hbond:GLY:127    0
Name: 53, dtype: object

>  <halogenbond:GLY:127>  (55) 
halogenbond:GLY:127    0
halogenbond:GLY:127    0
Name: 53, dtype: object

>  <hbond:GLY:128>  (55) 
hbond:GLY:128    0
hbond:GLY:128    0
Name: 53, dtype: object

>  <hbond:ASN:129>  (55) 
hbond:ASN:129    0
hbond:ASN:129    0
Name: 53, dtype: object

>  <hydroph_interaction:ASN:129>  (55) 
hydroph_interaction:ASN:129    0
hydroph_interaction:ASN:129    0
Name: 53, dtype: object

>  <halogenbond:ASN:129>  (55) 
halogenbond:ASN:129    0
halogenbond:ASN:129    0
Name: 53, dtype: object

>  <hydroph_interaction:LEU:131>  (55) 
hydroph_interaction:LEU:131    0
hydroph_interaction:LEU:131    0
Name: 53, dtype: object

>  <hbond:LEU:131>  (55) 
hbond:LEU:131    0
hbond:LEU:131    0
Name: 53, dtype: object

>  <halogenbond:LEU:131>  (55) 
halogenbond:LEU:131    0
halogenbond:LEU:131    0
Name: 53, dtype: object

>  <hbond:VAL:132>  (55) 
hbond:VAL:132    0
hbond:VAL:132    0
Name: 53, dtype: object

$$$$
PV_006961523439
     RDKit          3D

 12 12  0  0  0  0  0  0  0  0999 V2000
   41.0799   13.8789   12.0968 C   0  0  0  0  0  0  0  0  0  0  0  0
   39.9281   13.4322   11.2262 C   0  0  0  0  0  0  0  0  0  0  0  0
   39.9157   13.9450    9.8035 C   0  0  0  0  0  0  0  0  0  0  0  0
   39.9003   15.3629    9.9109 O   0  0  0  0  0  0  0  0  0  0  0  0
   38.8512   12.5627   11.6766 C   0  0  0  0  0  0  0  0  0  0  0  0
   38.0642   12.9522   12.7585 C   0  0  0  0  0  0  0  0  0  0  0  0
   37.0423   12.1373   13.1908 C   0  0  0  0  0  0  0  0  0  0  0  0
   36.8111   10.9524   12.5536 C   0  0  0  0  0  0  0  0  0  0  0  0
   37.5244   10.4939   11.4907 C   0  0  0  0  0  0  0  0  0  0  0  0
   37.2379    9.3645   10.9540 F   0  0  0  0  0  0  0  0  0  0  0  0
   38.6234   11.3638   11.0207 C   0  0  0  0  0  0  0  0  0  0  0  0
   39.4319   10.9873    9.9260 N   0  0  0  0  0  0  0  0  0  0  0  0
  1  2  2  0
  2  3  1  0
  3  4  1  0
  2  5  1  0
  5  6  2  0
  6  7  1  0
  7  8  2  0
  8  9  1  0
  9 10  1  0
  9 11  2  0
 11 12  1  0
 11  5  1  0
A    1
 C1 
A    2
 C2 
A    3
 C3 
A    4
 O1 
A    5
 C4 
A    6
 C5 
A    7
 C6 
A    8
 C7 
A    9
 C8 
A   10
 F1 
A   11
 C9 
A   12
 N1 
M  END
>  <ref_pdb>  (56) 
Ax0310a

>  <ref_mols>  (56) 
Ax0473a,Ax0812a

>  <original SMILES>  (56) 
C=C(CO)c1cccc(F)c1N

>  <rationale>  (56) 
info halogenbond:L131; hbond:E85+G128; hydroph_interaction:V84+I82+L100+L98; 

>  <intxn_cluster_10>  (56) 
8

>  <intxn_cluster_rank_10>  (56) 
8

>  <N_interactions>  (56) 
7

>  <∆∆G>  (56) 
-3.445075

>  <$/mg>  (56) 
0.0

>  <comRMSD>  (56) 
0.609759

>  <N_rotatable_bonds>  (56) 
4

>  <deep_P1_sidechain>  (56) 
False

>  <farthest_distance_to_substrate>  (56) 
3.610313

>  <hbond:SER:7>  (56) 
hbond:SER:7    0
hbond:SER:7    0
Name: 54, dtype: object

>  <hydroph_interaction:ASN:19>  (56) 
hydroph_interaction:ASN:19    0
hydroph_interaction:ASN:19    0
Name: 54, dtype: object

>  <halogenbond:ASN:19>  (56) 
halogenbond:ASN:19    0
halogenbond:ASN:19    0
Name: 54, dtype: object

>  <hbond:ARG:20>  (56) 
hbond:ARG:20    0
hbond:ARG:20    0
Name: 54, dtype: object

>  <hydroph_interaction:ARG:20>  (56) 
hydroph_interaction:ARG:20    0
hydroph_interaction:ARG:20    0
Name: 54, dtype: object

>  <hbond:HIS:21>  (56) 
hbond:HIS:21    0
hbond:HIS:21    0
Name: 54, dtype: object

>  <hydroph_interaction:HIS:21>  (56) 
hydroph_interaction:HIS:21    0
hydroph_interaction:HIS:21    0
Name: 54, dtype: object

>  <saltbridge:HIS:21>  (56) 
saltbridge:HIS:21    0
saltbridge:HIS:21    0
Name: 54, dtype: object

>  <pistack:HIS:21>  (56) 
pistack:HIS:21    0
pistack:HIS:21    0
Name: 54, dtype: object

>  <pication:HIS:21>  (56) 
pication:HIS:21    0
pication:HIS:21    0
Name: 54, dtype: object

>  <hydroph_interaction:LEU:22>  (56) 
hydroph_interaction:LEU:22    0
hydroph_interaction:LEU:22    0
Name: 54, dtype: object

>  <hbond:SER:36>  (56) 
hbond:SER:36    0
hbond:SER:36    0
Name: 54, dtype: object

>  <hbond:ASP:39>  (56) 
hbond:ASP:39    0
hbond:ASP:39    0
Name: 54, dtype: object

>  <saltbridge:ASP:39>  (56) 
saltbridge:ASP:39    0
saltbridge:ASP:39    0
Name: 54, dtype: object

>  <hydroph_interaction:ASP:39>  (56) 
hydroph_interaction:ASP:39    0
hydroph_interaction:ASP:39    0
Name: 54, dtype: object

>  <halogenbond:ASP:39>  (56) 
halogenbond:ASP:39    0
halogenbond:ASP:39    0
Name: 54, dtype: object

>  <hydroph_interaction:ILE:82>  (56) 
hydroph_interaction:ILE:82    1
hydroph_interaction:ILE:82    1
Name: 54, dtype: object

>  <hydroph_interaction:PHE:83>  (56) 
hydroph_interaction:PHE:83    0
hydroph_interaction:PHE:83    0
Name: 54, dtype: object

>  <hbond:PHE:83>  (56) 
hbond:PHE:83    0
hbond:PHE:83    0
Name: 54, dtype: object

>  <halogenbond:PHE:83>  (56) 
halogenbond:PHE:83    0
halogenbond:PHE:83    0
Name: 54, dtype: object

>  <hydroph_interaction:VAL:84>  (56) 
hydroph_interaction:VAL:84    1
hydroph_interaction:VAL:84    1
Name: 54, dtype: object

>  <hydroph_interaction:GLU:85>  (56) 
hydroph_interaction:GLU:85    0
hydroph_interaction:GLU:85    0
Name: 54, dtype: object

>  <hbond:GLU:85>  (56) 
hbond:GLU:85    1
hbond:GLU:85    1
Name: 54, dtype: object

>  <halogenbond:GLU:85>  (56) 
halogenbond:GLU:85    0
halogenbond:GLU:85    0
Name: 54, dtype: object

>  <halogenbond:ALA:86>  (56) 
halogenbond:ALA:86    0
halogenbond:ALA:86    0
Name: 54, dtype: object

>  <hbond:SER:87>  (56) 
hbond:SER:87    0
hbond:SER:87    0
Name: 54, dtype: object

>  <halogenbond:SER:87>  (56) 
halogenbond:SER:87    0
halogenbond:SER:87    0
Name: 54, dtype: object

>  <hbond:GLU:88>  (56) 
hbond:GLU:88    0
hbond:GLU:88    0
Name: 54, dtype: object

>  <halogenbond:GLU:88>  (56) 
halogenbond:GLU:88    0
halogenbond:GLU:88    0
Name: 54, dtype: object

>  <hydroph_interaction:TYR:89>  (56) 
hydroph_interaction:TYR:89    0
hydroph_interaction:TYR:89    0
Name: 54, dtype: object

>  <pistack:TYR:89>  (56) 
pistack:TYR:89    0
pistack:TYR:89    0
Name: 54, dtype: object

>  <hbond:TYR:89>  (56) 
hbond:TYR:89    0
hbond:TYR:89    0
Name: 54, dtype: object

>  <hbond:TYR:90>  (56) 
hbond:TYR:90    0
hbond:TYR:90    0
Name: 54, dtype: object

>  <hydroph_interaction:TYR:90>  (56) 
hydroph_interaction:TYR:90    0
hydroph_interaction:TYR:90    0
Name: 54, dtype: object

>  <pistack:TYR:90>  (56) 
pistack:TYR:90    0
pistack:TYR:90    0
Name: 54, dtype: object

>  <hbond:ARG:93>  (56) 
hbond:ARG:93    0
hbond:ARG:93    0
Name: 54, dtype: object

>  <saltbridge:ARG:93>  (56) 
saltbridge:ARG:93    0
saltbridge:ARG:93    0
Name: 54, dtype: object

>  <hydroph_interaction:ARG:93>  (56) 
hydroph_interaction:ARG:93    0
hydroph_interaction:ARG:93    0
Name: 54, dtype: object

>  <halogenbond:GLN:95>  (56) 
halogenbond:GLN:95    0
halogenbond:GLN:95    0
Name: 54, dtype: object

>  <hbond:GLN:95>  (56) 
hbond:GLN:95    0
hbond:GLN:95    0
Name: 54, dtype: object

>  <hydroph_interaction:GLN:95>  (56) 
hydroph_interaction:GLN:95    0
hydroph_interaction:GLN:95    0
Name: 54, dtype: object

>  <hydroph_interaction:LEU:98>  (56) 
hydroph_interaction:LEU:98    1
hydroph_interaction:LEU:98    1
Name: 54, dtype: object

>  <hydroph_interaction:LEU:100>  (56) 
hydroph_interaction:LEU:100    1
hydroph_interaction:LEU:100    1
Name: 54, dtype: object

>  <hbond:SER:105>  (56) 
hbond:SER:105    0
hbond:SER:105    0
Name: 54, dtype: object

>  <halogenbond:SER:105>  (56) 
halogenbond:SER:105    0
halogenbond:SER:105    0
Name: 54, dtype: object

>  <hydroph_interaction:PRO:107>  (56) 
hydroph_interaction:PRO:107    0
hydroph_interaction:PRO:107    0
Name: 54, dtype: object

>  <hbond:PRO:107>  (56) 
hbond:PRO:107    0
hbond:PRO:107    0
Name: 54, dtype: object

>  <halogenbond:PRO:107>  (56) 
halogenbond:PRO:107    0
halogenbond:PRO:107    0
Name: 54, dtype: object

>  <hbond:ASP:109>  (56) 
hbond:ASP:109    0
hbond:ASP:109    0
Name: 54, dtype: object

>  <hbond:CYS:110>  (56) 
hbond:CYS:110    0
hbond:CYS:110    0
Name: 54, dtype: object

>  <halogenbond:CYS:110>  (56) 
halogenbond:CYS:110    0
halogenbond:CYS:110    0
Name: 54, dtype: object

>  <hydroph_interaction:VAL:124>  (56) 
hydroph_interaction:VAL:124    0
hydroph_interaction:VAL:124    0
Name: 54, dtype: object

>  <hbond:SER:125>  (56) 
hbond:SER:125    0
hbond:SER:125    0
Name: 54, dtype: object

>  <halogenbond:SER:125>  (56) 
halogenbond:SER:125    0
halogenbond:SER:125    0
Name: 54, dtype: object

>  <hydroph_interaction:THR:126>  (56) 
hydroph_interaction:THR:126    0
hydroph_interaction:THR:126    0
Name: 54, dtype: object

>  <hbond:THR:126>  (56) 
hbond:THR:126    0
hbond:THR:126    0
Name: 54, dtype: object

>  <halogenbond:THR:126>  (56) 
halogenbond:THR:126    0
halogenbond:THR:126    0
Name: 54, dtype: object

>  <hbond:GLY:127>  (56) 
hbond:GLY:127    0
hbond:GLY:127    0
Name: 54, dtype: object

>  <halogenbond:GLY:127>  (56) 
halogenbond:GLY:127    0
halogenbond:GLY:127    0
Name: 54, dtype: object

>  <hbond:GLY:128>  (56) 
hbond:GLY:128    1
hbond:GLY:128    1
Name: 54, dtype: object

>  <hbond:ASN:129>  (56) 
hbond:ASN:129    0
hbond:ASN:129    0
Name: 54, dtype: object

>  <hydroph_interaction:ASN:129>  (56) 
hydroph_interaction:ASN:129    0
hydroph_interaction:ASN:129    0
Name: 54, dtype: object

>  <halogenbond:ASN:129>  (56) 
halogenbond:ASN:129    0
halogenbond:ASN:129    0
Name: 54, dtype: object

>  <hydroph_interaction:LEU:131>  (56) 
hydroph_interaction:LEU:131    0
hydroph_interaction:LEU:131    0
Name: 54, dtype: object

>  <hbond:LEU:131>  (56) 
hbond:LEU:131    0
hbond:LEU:131    0
Name: 54, dtype: object

>  <halogenbond:LEU:131>  (56) 
halogenbond:LEU:131    1
halogenbond:LEU:131    1
Name: 54, dtype: object

>  <hbond:VAL:132>  (56) 
hbond:VAL:132    0
hbond:VAL:132    0
Name: 54, dtype: object

$$$$
Z209319794
     RDKit          3D

 17 18  0  0  0  0  0  0  0  0999 V2000
   31.1574   15.3820   10.3612 C   0  0  0  0  0  0  0  0  0  0  0  0
   29.9151   14.8682   10.3602 C   0  0  0  0  0  0  0  0  0  0  0  0
   29.1028   14.6617   11.8500 Cl  0  0  0  0  0  0  0  0  0  0  0  0
   29.1800   14.4692    9.1306 C   0  0  0  0  0  0  0  0  0  0  0  0
   29.3688   13.3925    8.5659 O   0  0  0  0  0  0  0  0  0  0  0  0
   30.6706   13.1529    8.2990 C   0  0  0  0  0  0  0  0  0  0  0  0
   31.5000   14.0241    8.4691 O   0  0  0  0  0  0  0  0  0  0  0  0
   31.1058   11.8975    7.8620 C   0  0  0  0  0  0  0  0  0  0  0  0
   30.5676   10.7399    8.4042 C   0  0  0  0  0  0  0  0  0  0  0  0
   31.1566    9.6667    7.8797 N   0  0  0  0  0  0  0  0  0  0  0  0
   30.8487    8.3893    8.2496 C   0  0  0  0  0  0  0  0  0  0  0  0
   32.1275   10.0868    6.9138 C   0  0  0  0  0  0  0  0  0  0  0  0
   32.9852    9.3455    6.1097 C   0  0  0  0  0  0  0  0  0  0  0  0
   33.8358   10.0176    5.2518 C   0  0  0  0  0  0  0  0  0  0  0  0
   33.8274   11.3957    5.1998 C   0  0  0  0  0  0  0  0  0  0  0  0
   32.9724   12.1567    6.0062 C   0  0  0  0  0  0  0  0  0  0  0  0
   32.0938   11.4875    6.8942 C   0  0  0  0  0  0  0  0  0  0  0  0
  1  2  2  0
  2  3  1  0
  2  4  1  0
  4  5  1  0
  5  6  1  0
  6  7  2  0
  6  8  1  0
  8  9  2  0
  9 10  1  0
 10 11  1  0
 10 12  1  0
 12 13  2  0
 13 14  1  0
 14 15  2  0
 15 16  1  0
 16 17  2  0
 17  8  1  0
 17 12  1  0
A    1
 C1 
A    2
 C2 
A    3
CL1 
A    4
 C3 
A    5
 O1 
A    6
 C4 
A    7
 O2 
A    8
 C5 
A    9
 C6 
A   10
 N1 
A   11
 C7 
A   12
 C8 
A   13
 C9 
A   14
 C10
A   15
 C11
A   16
 C12
A   17
 C13
M  END
>  <ref_pdb>  (57) 
Ax0310a

>  <ref_mols>  (57) 
Ax0451a,Ax0812a

>  <original SMILES>  (57) 
C=C(Cl)COC(=O)c1cn(C)c2ccccc12

>  <rationale>  (57) 
info halogenbond:D39+S125; hbond:S87; hydroph_interaction:Y90+T126+V84; 

>  <intxn_cluster_10>  (57) 
9

>  <intxn_cluster_rank_10>  (57) 
4

>  <N_interactions>  (57) 
6

>  <∆∆G>  (57) 
-6.585785

>  <$/mg>  (57) 
0.0

>  <comRMSD>  (57) 
0.654856

>  <N_rotatable_bonds>  (57) 
4

>  <deep_P1_sidechain>  (57) 
False

>  <farthest_distance_to_substrate>  (57) 
2.617359

>  <hbond:SER:7>  (57) 
hbond:SER:7    0
hbond:SER:7    0
Name: 55, dtype: object

>  <hydroph_interaction:ASN:19>  (57) 
hydroph_interaction:ASN:19    0
hydroph_interaction:ASN:19    0
Name: 55, dtype: object

>  <halogenbond:ASN:19>  (57) 
halogenbond:ASN:19    0
halogenbond:ASN:19    0
Name: 55, dtype: object

>  <hbond:ARG:20>  (57) 
hbond:ARG:20    0
hbond:ARG:20    0
Name: 55, dtype: object

>  <hydroph_interaction:ARG:20>  (57) 
hydroph_interaction:ARG:20    0
hydroph_interaction:ARG:20    0
Name: 55, dtype: object

>  <hbond:HIS:21>  (57) 
hbond:HIS:21    0
hbond:HIS:21    0
Name: 55, dtype: object

>  <hydroph_interaction:HIS:21>  (57) 
hydroph_interaction:HIS:21    0
hydroph_interaction:HIS:21    0
Name: 55, dtype: object

>  <saltbridge:HIS:21>  (57) 
saltbridge:HIS:21    0
saltbridge:HIS:21    0
Name: 55, dtype: object

>  <pistack:HIS:21>  (57) 
pistack:HIS:21    0
pistack:HIS:21    0
Name: 55, dtype: object

>  <pication:HIS:21>  (57) 
pication:HIS:21    0
pication:HIS:21    0
Name: 55, dtype: object

>  <hydroph_interaction:LEU:22>  (57) 
hydroph_interaction:LEU:22    0
hydroph_interaction:LEU:22    0
Name: 55, dtype: object

>  <hbond:SER:36>  (57) 
hbond:SER:36    0
hbond:SER:36    0
Name: 55, dtype: object

>  <hbond:ASP:39>  (57) 
hbond:ASP:39    0
hbond:ASP:39    0
Name: 55, dtype: object

>  <saltbridge:ASP:39>  (57) 
saltbridge:ASP:39    0
saltbridge:ASP:39    0
Name: 55, dtype: object

>  <hydroph_interaction:ASP:39>  (57) 
hydroph_interaction:ASP:39    0
hydroph_interaction:ASP:39    0
Name: 55, dtype: object

>  <halogenbond:ASP:39>  (57) 
halogenbond:ASP:39    1
halogenbond:ASP:39    1
Name: 55, dtype: object

>  <hydroph_interaction:ILE:82>  (57) 
hydroph_interaction:ILE:82    0
hydroph_interaction:ILE:82    0
Name: 55, dtype: object

>  <hydroph_interaction:PHE:83>  (57) 
hydroph_interaction:PHE:83    0
hydroph_interaction:PHE:83    0
Name: 55, dtype: object

>  <hbond:PHE:83>  (57) 
hbond:PHE:83    0
hbond:PHE:83    0
Name: 55, dtype: object

>  <halogenbond:PHE:83>  (57) 
halogenbond:PHE:83    0
halogenbond:PHE:83    0
Name: 55, dtype: object

>  <hydroph_interaction:VAL:84>  (57) 
hydroph_interaction:VAL:84    1
hydroph_interaction:VAL:84    1
Name: 55, dtype: object

>  <hydroph_interaction:GLU:85>  (57) 
hydroph_interaction:GLU:85    0
hydroph_interaction:GLU:85    0
Name: 55, dtype: object

>  <hbond:GLU:85>  (57) 
hbond:GLU:85    0
hbond:GLU:85    0
Name: 55, dtype: object

>  <halogenbond:GLU:85>  (57) 
halogenbond:GLU:85    0
halogenbond:GLU:85    0
Name: 55, dtype: object

>  <halogenbond:ALA:86>  (57) 
halogenbond:ALA:86    0
halogenbond:ALA:86    0
Name: 55, dtype: object

>  <hbond:SER:87>  (57) 
hbond:SER:87    1
hbond:SER:87    1
Name: 55, dtype: object

>  <halogenbond:SER:87>  (57) 
halogenbond:SER:87    0
halogenbond:SER:87    0
Name: 55, dtype: object

>  <hbond:GLU:88>  (57) 
hbond:GLU:88    0
hbond:GLU:88    0
Name: 55, dtype: object

>  <halogenbond:GLU:88>  (57) 
halogenbond:GLU:88    0
halogenbond:GLU:88    0
Name: 55, dtype: object

>  <hydroph_interaction:TYR:89>  (57) 
hydroph_interaction:TYR:89    0
hydroph_interaction:TYR:89    0
Name: 55, dtype: object

>  <pistack:TYR:89>  (57) 
pistack:TYR:89    0
pistack:TYR:89    0
Name: 55, dtype: object

>  <hbond:TYR:89>  (57) 
hbond:TYR:89    0
hbond:TYR:89    0
Name: 55, dtype: object

>  <hbond:TYR:90>  (57) 
hbond:TYR:90    0
hbond:TYR:90    0
Name: 55, dtype: object

>  <hydroph_interaction:TYR:90>  (57) 
hydroph_interaction:TYR:90    1
hydroph_interaction:TYR:90    1
Name: 55, dtype: object

>  <pistack:TYR:90>  (57) 
pistack:TYR:90    0
pistack:TYR:90    0
Name: 55, dtype: object

>  <hbond:ARG:93>  (57) 
hbond:ARG:93    0
hbond:ARG:93    0
Name: 55, dtype: object

>  <saltbridge:ARG:93>  (57) 
saltbridge:ARG:93    0
saltbridge:ARG:93    0
Name: 55, dtype: object

>  <hydroph_interaction:ARG:93>  (57) 
hydroph_interaction:ARG:93    0
hydroph_interaction:ARG:93    0
Name: 55, dtype: object

>  <halogenbond:GLN:95>  (57) 
halogenbond:GLN:95    0
halogenbond:GLN:95    0
Name: 55, dtype: object

>  <hbond:GLN:95>  (57) 
hbond:GLN:95    0
hbond:GLN:95    0
Name: 55, dtype: object

>  <hydroph_interaction:GLN:95>  (57) 
hydroph_interaction:GLN:95    0
hydroph_interaction:GLN:95    0
Name: 55, dtype: object

>  <hydroph_interaction:LEU:98>  (57) 
hydroph_interaction:LEU:98    0
hydroph_interaction:LEU:98    0
Name: 55, dtype: object

>  <hydroph_interaction:LEU:100>  (57) 
hydroph_interaction:LEU:100    0
hydroph_interaction:LEU:100    0
Name: 55, dtype: object

>  <hbond:SER:105>  (57) 
hbond:SER:105    0
hbond:SER:105    0
Name: 55, dtype: object

>  <halogenbond:SER:105>  (57) 
halogenbond:SER:105    0
halogenbond:SER:105    0
Name: 55, dtype: object

>  <hydroph_interaction:PRO:107>  (57) 
hydroph_interaction:PRO:107    0
hydroph_interaction:PRO:107    0
Name: 55, dtype: object

>  <hbond:PRO:107>  (57) 
hbond:PRO:107    0
hbond:PRO:107    0
Name: 55, dtype: object

>  <halogenbond:PRO:107>  (57) 
halogenbond:PRO:107    0
halogenbond:PRO:107    0
Name: 55, dtype: object

>  <hbond:ASP:109>  (57) 
hbond:ASP:109    0
hbond:ASP:109    0
Name: 55, dtype: object

>  <hbond:CYS:110>  (57) 
hbond:CYS:110    0
hbond:CYS:110    0
Name: 55, dtype: object

>  <halogenbond:CYS:110>  (57) 
halogenbond:CYS:110    0
halogenbond:CYS:110    0
Name: 55, dtype: object

>  <hydroph_interaction:VAL:124>  (57) 
hydroph_interaction:VAL:124    0
hydroph_interaction:VAL:124    0
Name: 55, dtype: object

>  <hbond:SER:125>  (57) 
hbond:SER:125    0
hbond:SER:125    0
Name: 55, dtype: object

>  <halogenbond:SER:125>  (57) 
halogenbond:SER:125    1
halogenbond:SER:125    1
Name: 55, dtype: object

>  <hydroph_interaction:THR:126>  (57) 
hydroph_interaction:THR:126    1
hydroph_interaction:THR:126    1
Name: 55, dtype: object

>  <hbond:THR:126>  (57) 
hbond:THR:126    0
hbond:THR:126    0
Name: 55, dtype: object

>  <halogenbond:THR:126>  (57) 
halogenbond:THR:126    0
halogenbond:THR:126    0
Name: 55, dtype: object

>  <hbond:GLY:127>  (57) 
hbond:GLY:127    0
hbond:GLY:127    0
Name: 55, dtype: object

>  <halogenbond:GLY:127>  (57) 
halogenbond:GLY:127    0
halogenbond:GLY:127    0
Name: 55, dtype: object

>  <hbond:GLY:128>  (57) 
hbond:GLY:128    0
hbond:GLY:128    0
Name: 55, dtype: object

>  <hbond:ASN:129>  (57) 
hbond:ASN:129    0
hbond:ASN:129    0
Name: 55, dtype: object

>  <hydroph_interaction:ASN:129>  (57) 
hydroph_interaction:ASN:129    0
hydroph_interaction:ASN:129    0
Name: 55, dtype: object

>  <halogenbond:ASN:129>  (57) 
halogenbond:ASN:129    0
halogenbond:ASN:129    0
Name: 55, dtype: object

>  <hydroph_interaction:LEU:131>  (57) 
hydroph_interaction:LEU:131    0
hydroph_interaction:LEU:131    0
Name: 55, dtype: object

>  <hbond:LEU:131>  (57) 
hbond:LEU:131    0
hbond:LEU:131    0
Name: 55, dtype: object

>  <halogenbond:LEU:131>  (57) 
halogenbond:LEU:131    0
halogenbond:LEU:131    0
Name: 55, dtype: object

>  <hbond:VAL:132>  (57) 
hbond:VAL:132    0
hbond:VAL:132    0
Name: 55, dtype: object

$$$$
PV_002937286254
     RDKit          3D

 16 17  0  0  0  0  0  0  0  0999 V2000
   33.8613   13.0950    6.6265 C   0  0  0  0  0  0  0  0  0  0  0  0
   32.6789   12.5152    6.0838 O   0  0  0  0  0  0  0  0  0  0  0  0
   32.2353   11.3436    6.6507 C   0  0  0  0  0  0  0  0  0  0  0  0
   32.6540   10.0553    6.3436 C   0  0  0  0  0  0  0  0  0  0  0  0
   32.0959    8.9649    7.0215 C   0  0  0  0  0  0  0  0  0  0  0  0
   31.1259    9.1529    7.9941 C   0  0  0  0  0  0  0  0  0  0  0  0
   30.4557    8.0683    8.7896 C   0  0  0  0  0  0  0  0  0  0  0  0
   30.7334   10.4178    8.2751 C   0  0  0  0  0  0  0  0  0  0  0  0
   31.2632   11.5025    7.6352 C   0  0  0  0  0  0  0  0  0  0  0  0
   30.7498   12.7536    8.0520 N   0  0  0  0  0  0  0  0  0  0  0  0
   29.4569   12.9800    8.1758 C   0  0  1  0  0  0  0  0  0  0  0  0
   29.1056   14.2510    8.9303 C   0  0  0  0  0  0  0  0  0  0  0  0
   28.2613   15.1239    8.0798 C   0  0  0  0  0  0  0  0  0  0  0  0
   28.3216   14.5430    6.6742 C   0  0  0  0  0  0  0  0  0  0  0  0
   28.8593   13.1391    6.7756 C   0  0  2  0  0  0  0  0  0  0  0  0
   27.7816   12.3224    6.6499 F   0  0  0  0  0  0  0  0  0  0  0  0
  1  2  1  0
  2  3  1  0
  3  4  2  0
  4  5  1  0
  5  6  2  0
  6  7  1  0
  6  8  1  0
  8  9  2  0
  9 10  1  0
 11 10  1  6
 11 12  1  0
 12 13  1  0
 13 14  1  0
 14 15  1  0
 15 16  1  1
  9  3  1  0
 15 11  1  0
A    1
 C1 
A    2
 O1 
A    3
 C2 
A    4
 C3 
A    5
 C4 
A    6
 C5 
A    7
 C6 
A    8
 C7 
A    9
 C8 
A   10
 N1 
A   11
 C9 
A   12
 C10
A   13
 C11
A   14
 C12
A   15
 C13
A   16
 F1 
M  END
>  <ref_pdb>  (58) 
Ax0310a

>  <ref_mols>  (58) 
Ax0310a,Ax0554a

>  <original SMILES>  (58) 
COc1ccc(C)cc1NC1CCC[C@H]1F

>  <rationale>  (58) 
info halogenbond:P107; hydroph_interaction:V124+Y89; 

>  <intxn_cluster_10>  (58) 
9

>  <intxn_cluster_rank_10>  (58) 
11

>  <N_interactions>  (58) 
3

>  <∆∆G>  (58) 
-9.252765

>  <$/mg>  (58) 
244.5

>  <comRMSD>  (58) 
0.826274

>  <N_rotatable_bonds>  (58) 
5

>  <deep_P1_sidechain>  (58) 
True

>  <farthest_distance_to_substrate>  (58) 
2.397221

>  <hbond:SER:7>  (58) 
hbond:SER:7    0
hbond:SER:7    0
Name: 56, dtype: object

>  <hydroph_interaction:ASN:19>  (58) 
hydroph_interaction:ASN:19    0
hydroph_interaction:ASN:19    0
Name: 56, dtype: object

>  <halogenbond:ASN:19>  (58) 
halogenbond:ASN:19    0
halogenbond:ASN:19    0
Name: 56, dtype: object

>  <hbond:ARG:20>  (58) 
hbond:ARG:20    0
hbond:ARG:20    0
Name: 56, dtype: object

>  <hydroph_interaction:ARG:20>  (58) 
hydroph_interaction:ARG:20    0
hydroph_interaction:ARG:20    0
Name: 56, dtype: object

>  <hbond:HIS:21>  (58) 
hbond:HIS:21    0
hbond:HIS:21    0
Name: 56, dtype: object

>  <hydroph_interaction:HIS:21>  (58) 
hydroph_interaction:HIS:21    0
hydroph_interaction:HIS:21    0
Name: 56, dtype: object

>  <saltbridge:HIS:21>  (58) 
saltbridge:HIS:21    0
saltbridge:HIS:21    0
Name: 56, dtype: object

>  <pistack:HIS:21>  (58) 
pistack:HIS:21    0
pistack:HIS:21    0
Name: 56, dtype: object

>  <pication:HIS:21>  (58) 
pication:HIS:21    0
pication:HIS:21    0
Name: 56, dtype: object

>  <hydroph_interaction:LEU:22>  (58) 
hydroph_interaction:LEU:22    0
hydroph_interaction:LEU:22    0
Name: 56, dtype: object

>  <hbond:SER:36>  (58) 
hbond:SER:36    0
hbond:SER:36    0
Name: 56, dtype: object

>  <hbond:ASP:39>  (58) 
hbond:ASP:39    0
hbond:ASP:39    0
Name: 56, dtype: object

>  <saltbridge:ASP:39>  (58) 
saltbridge:ASP:39    0
saltbridge:ASP:39    0
Name: 56, dtype: object

>  <hydroph_interaction:ASP:39>  (58) 
hydroph_interaction:ASP:39    0
hydroph_interaction:ASP:39    0
Name: 56, dtype: object

>  <halogenbond:ASP:39>  (58) 
halogenbond:ASP:39    0
halogenbond:ASP:39    0
Name: 56, dtype: object

>  <hydroph_interaction:ILE:82>  (58) 
hydroph_interaction:ILE:82    0
hydroph_interaction:ILE:82    0
Name: 56, dtype: object

>  <hydroph_interaction:PHE:83>  (58) 
hydroph_interaction:PHE:83    0
hydroph_interaction:PHE:83    0
Name: 56, dtype: object

>  <hbond:PHE:83>  (58) 
hbond:PHE:83    0
hbond:PHE:83    0
Name: 56, dtype: object

>  <halogenbond:PHE:83>  (58) 
halogenbond:PHE:83    0
halogenbond:PHE:83    0
Name: 56, dtype: object

>  <hydroph_interaction:VAL:84>  (58) 
hydroph_interaction:VAL:84    0
hydroph_interaction:VAL:84    0
Name: 56, dtype: object

>  <hydroph_interaction:GLU:85>  (58) 
hydroph_interaction:GLU:85    0
hydroph_interaction:GLU:85    0
Name: 56, dtype: object

>  <hbond:GLU:85>  (58) 
hbond:GLU:85    0
hbond:GLU:85    0
Name: 56, dtype: object

>  <halogenbond:GLU:85>  (58) 
halogenbond:GLU:85    0
halogenbond:GLU:85    0
Name: 56, dtype: object

>  <halogenbond:ALA:86>  (58) 
halogenbond:ALA:86    0
halogenbond:ALA:86    0
Name: 56, dtype: object

>  <hbond:SER:87>  (58) 
hbond:SER:87    0
hbond:SER:87    0
Name: 56, dtype: object

>  <halogenbond:SER:87>  (58) 
halogenbond:SER:87    0
halogenbond:SER:87    0
Name: 56, dtype: object

>  <hbond:GLU:88>  (58) 
hbond:GLU:88    0
hbond:GLU:88    0
Name: 56, dtype: object

>  <halogenbond:GLU:88>  (58) 
halogenbond:GLU:88    0
halogenbond:GLU:88    0
Name: 56, dtype: object

>  <hydroph_interaction:TYR:89>  (58) 
hydroph_interaction:TYR:89    1
hydroph_interaction:TYR:89    1
Name: 56, dtype: object

>  <pistack:TYR:89>  (58) 
pistack:TYR:89    0
pistack:TYR:89    0
Name: 56, dtype: object

>  <hbond:TYR:89>  (58) 
hbond:TYR:89    0
hbond:TYR:89    0
Name: 56, dtype: object

>  <hbond:TYR:90>  (58) 
hbond:TYR:90    0
hbond:TYR:90    0
Name: 56, dtype: object

>  <hydroph_interaction:TYR:90>  (58) 
hydroph_interaction:TYR:90    0
hydroph_interaction:TYR:90    0
Name: 56, dtype: object

>  <pistack:TYR:90>  (58) 
pistack:TYR:90    0
pistack:TYR:90    0
Name: 56, dtype: object

>  <hbond:ARG:93>  (58) 
hbond:ARG:93    0
hbond:ARG:93    0
Name: 56, dtype: object

>  <saltbridge:ARG:93>  (58) 
saltbridge:ARG:93    0
saltbridge:ARG:93    0
Name: 56, dtype: object

>  <hydroph_interaction:ARG:93>  (58) 
hydroph_interaction:ARG:93    0
hydroph_interaction:ARG:93    0
Name: 56, dtype: object

>  <halogenbond:GLN:95>  (58) 
halogenbond:GLN:95    0
halogenbond:GLN:95    0
Name: 56, dtype: object

>  <hbond:GLN:95>  (58) 
hbond:GLN:95    0
hbond:GLN:95    0
Name: 56, dtype: object

>  <hydroph_interaction:GLN:95>  (58) 
hydroph_interaction:GLN:95    0
hydroph_interaction:GLN:95    0
Name: 56, dtype: object

>  <hydroph_interaction:LEU:98>  (58) 
hydroph_interaction:LEU:98    0
hydroph_interaction:LEU:98    0
Name: 56, dtype: object

>  <hydroph_interaction:LEU:100>  (58) 
hydroph_interaction:LEU:100    0
hydroph_interaction:LEU:100    0
Name: 56, dtype: object

>  <hbond:SER:105>  (58) 
hbond:SER:105    0
hbond:SER:105    0
Name: 56, dtype: object

>  <halogenbond:SER:105>  (58) 
halogenbond:SER:105    0
halogenbond:SER:105    0
Name: 56, dtype: object

>  <hydroph_interaction:PRO:107>  (58) 
hydroph_interaction:PRO:107    0
hydroph_interaction:PRO:107    0
Name: 56, dtype: object

>  <hbond:PRO:107>  (58) 
hbond:PRO:107    0
hbond:PRO:107    0
Name: 56, dtype: object

>  <halogenbond:PRO:107>  (58) 
halogenbond:PRO:107    1
halogenbond:PRO:107    1
Name: 56, dtype: object

>  <hbond:ASP:109>  (58) 
hbond:ASP:109    0
hbond:ASP:109    0
Name: 56, dtype: object

>  <hbond:CYS:110>  (58) 
hbond:CYS:110    0
hbond:CYS:110    0
Name: 56, dtype: object

>  <halogenbond:CYS:110>  (58) 
halogenbond:CYS:110    0
halogenbond:CYS:110    0
Name: 56, dtype: object

>  <hydroph_interaction:VAL:124>  (58) 
hydroph_interaction:VAL:124    1
hydroph_interaction:VAL:124    1
Name: 56, dtype: object

>  <hbond:SER:125>  (58) 
hbond:SER:125    0
hbond:SER:125    0
Name: 56, dtype: object

>  <halogenbond:SER:125>  (58) 
halogenbond:SER:125    0
halogenbond:SER:125    0
Name: 56, dtype: object

>  <hydroph_interaction:THR:126>  (58) 
hydroph_interaction:THR:126    0
hydroph_interaction:THR:126    0
Name: 56, dtype: object

>  <hbond:THR:126>  (58) 
hbond:THR:126    0
hbond:THR:126    0
Name: 56, dtype: object

>  <halogenbond:THR:126>  (58) 
halogenbond:THR:126    0
halogenbond:THR:126    0
Name: 56, dtype: object

>  <hbond:GLY:127>  (58) 
hbond:GLY:127    0
hbond:GLY:127    0
Name: 56, dtype: object

>  <halogenbond:GLY:127>  (58) 
halogenbond:GLY:127    0
halogenbond:GLY:127    0
Name: 56, dtype: object

>  <hbond:GLY:128>  (58) 
hbond:GLY:128    0
hbond:GLY:128    0
Name: 56, dtype: object

>  <hbond:ASN:129>  (58) 
hbond:ASN:129    0
hbond:ASN:129    0
Name: 56, dtype: object

>  <hydroph_interaction:ASN:129>  (58) 
hydroph_interaction:ASN:129    0
hydroph_interaction:ASN:129    0
Name: 56, dtype: object

>  <halogenbond:ASN:129>  (58) 
halogenbond:ASN:129    0
halogenbond:ASN:129    0
Name: 56, dtype: object

>  <hydroph_interaction:LEU:131>  (58) 
hydroph_interaction:LEU:131    0
hydroph_interaction:LEU:131    0
Name: 56, dtype: object

>  <hbond:LEU:131>  (58) 
hbond:LEU:131    0
hbond:LEU:131    0
Name: 56, dtype: object

>  <halogenbond:LEU:131>  (58) 
halogenbond:LEU:131    0
halogenbond:LEU:131    0
Name: 56, dtype: object

>  <hbond:VAL:132>  (58) 
hbond:VAL:132    0
hbond:VAL:132    0
Name: 56, dtype: object

$$$$
Z3592385465
     RDKit          3D

 10  9  0  0  0  0  0  0  0  0999 V2000
   37.1374   11.5288   13.7024 C   0  0  0  0  0  0  0  0  0  0  0  0
   37.0383   12.1684   12.3693 C   0  0  2  0  0  0  0  0  0  0  0  0
   36.7520   11.1262   11.3120 C   0  0  0  0  0  0  0  0  0  0  0  0
   36.7739    9.7628   11.8501 N   0  0  0  0  0  0  0  0  0  0  0  0
   38.2979   12.7834   12.0272 N   0  0  0  0  0  0  0  0  0  0  0  0
   39.1424   12.0638   11.2270 C   0  0  0  0  0  0  0  0  0  0  0  0
   39.0924   10.8604   11.1093 O   0  0  0  0  0  0  0  0  0  0  0  0
   40.1623   12.8834   10.4504 C   0  0  0  0  0  0  0  0  0  0  0  0
   39.9186   14.0128   10.0347 O   0  0  0  0  0  0  0  0  0  0  0  0
   41.3246   12.2461   10.2511 O   0  0  0  0  0  0  0  0  0  0  0  0
  2  1  1  1
  2  3  1  0
  3  4  1  0
  2  5  1  0
  5  6  1  0
  6  7  2  0
  6  8  1  0
  8  9  2  0
  8 10  1  0
A    1
 C1 
A    2
 C2 
A    3
 C3 
A    4
 N1 
A    5
 N2 
A    6
 C4 
A    7
 O1 
A    8
 C5 
A    9
 O2 
A   10
 O3 
M  END
>  <ref_pdb>  (59) 
Ax0310a

>  <ref_mols>  (59) 
Ax0473a,Ax0911a

>  <original SMILES>  (59) 
C[C@H](CN)NC(=O)C(=O)O

>  <rationale>  (59) 
info hbond:E85+N129+L131+F83; hydroph_interaction:L100+L98; 

>  <intxn_cluster_10>  (59) 
4

>  <intxn_cluster_rank_10>  (59) 
4

>  <N_interactions>  (59) 
6

>  <∆∆G>  (59) 
-3.819871

>  <$/mg>  (59) 
0.0

>  <comRMSD>  (59) 
0.615816

>  <N_rotatable_bonds>  (59) 
4

>  <deep_P1_sidechain>  (59) 
False

>  <farthest_distance_to_substrate>  (59) 
3.647109

>  <hbond:SER:7>  (59) 
hbond:SER:7    0
hbond:SER:7    0
Name: 57, dtype: object

>  <hydroph_interaction:ASN:19>  (59) 
hydroph_interaction:ASN:19    0
hydroph_interaction:ASN:19    0
Name: 57, dtype: object

>  <halogenbond:ASN:19>  (59) 
halogenbond:ASN:19    0
halogenbond:ASN:19    0
Name: 57, dtype: object

>  <hbond:ARG:20>  (59) 
hbond:ARG:20    0
hbond:ARG:20    0
Name: 57, dtype: object

>  <hydroph_interaction:ARG:20>  (59) 
hydroph_interaction:ARG:20    0
hydroph_interaction:ARG:20    0
Name: 57, dtype: object

>  <hbond:HIS:21>  (59) 
hbond:HIS:21    0
hbond:HIS:21    0
Name: 57, dtype: object

>  <hydroph_interaction:HIS:21>  (59) 
hydroph_interaction:HIS:21    0
hydroph_interaction:HIS:21    0
Name: 57, dtype: object

>  <saltbridge:HIS:21>  (59) 
saltbridge:HIS:21    0
saltbridge:HIS:21    0
Name: 57, dtype: object

>  <pistack:HIS:21>  (59) 
pistack:HIS:21    0
pistack:HIS:21    0
Name: 57, dtype: object

>  <pication:HIS:21>  (59) 
pication:HIS:21    0
pication:HIS:21    0
Name: 57, dtype: object

>  <hydroph_interaction:LEU:22>  (59) 
hydroph_interaction:LEU:22    0
hydroph_interaction:LEU:22    0
Name: 57, dtype: object

>  <hbond:SER:36>  (59) 
hbond:SER:36    0
hbond:SER:36    0
Name: 57, dtype: object

>  <hbond:ASP:39>  (59) 
hbond:ASP:39    0
hbond:ASP:39    0
Name: 57, dtype: object

>  <saltbridge:ASP:39>  (59) 
saltbridge:ASP:39    0
saltbridge:ASP:39    0
Name: 57, dtype: object

>  <hydroph_interaction:ASP:39>  (59) 
hydroph_interaction:ASP:39    0
hydroph_interaction:ASP:39    0
Name: 57, dtype: object

>  <halogenbond:ASP:39>  (59) 
halogenbond:ASP:39    0
halogenbond:ASP:39    0
Name: 57, dtype: object

>  <hydroph_interaction:ILE:82>  (59) 
hydroph_interaction:ILE:82    0
hydroph_interaction:ILE:82    0
Name: 57, dtype: object

>  <hydroph_interaction:PHE:83>  (59) 
hydroph_interaction:PHE:83    0
hydroph_interaction:PHE:83    0
Name: 57, dtype: object

>  <hbond:PHE:83>  (59) 
hbond:PHE:83    1
hbond:PHE:83    1
Name: 57, dtype: object

>  <halogenbond:PHE:83>  (59) 
halogenbond:PHE:83    0
halogenbond:PHE:83    0
Name: 57, dtype: object

>  <hydroph_interaction:VAL:84>  (59) 
hydroph_interaction:VAL:84    0
hydroph_interaction:VAL:84    0
Name: 57, dtype: object

>  <hydroph_interaction:GLU:85>  (59) 
hydroph_interaction:GLU:85    0
hydroph_interaction:GLU:85    0
Name: 57, dtype: object

>  <hbond:GLU:85>  (59) 
hbond:GLU:85    1
hbond:GLU:85    1
Name: 57, dtype: object

>  <halogenbond:GLU:85>  (59) 
halogenbond:GLU:85    0
halogenbond:GLU:85    0
Name: 57, dtype: object

>  <halogenbond:ALA:86>  (59) 
halogenbond:ALA:86    0
halogenbond:ALA:86    0
Name: 57, dtype: object

>  <hbond:SER:87>  (59) 
hbond:SER:87    0
hbond:SER:87    0
Name: 57, dtype: object

>  <halogenbond:SER:87>  (59) 
halogenbond:SER:87    0
halogenbond:SER:87    0
Name: 57, dtype: object

>  <hbond:GLU:88>  (59) 
hbond:GLU:88    0
hbond:GLU:88    0
Name: 57, dtype: object

>  <halogenbond:GLU:88>  (59) 
halogenbond:GLU:88    0
halogenbond:GLU:88    0
Name: 57, dtype: object

>  <hydroph_interaction:TYR:89>  (59) 
hydroph_interaction:TYR:89    0
hydroph_interaction:TYR:89    0
Name: 57, dtype: object

>  <pistack:TYR:89>  (59) 
pistack:TYR:89    0
pistack:TYR:89    0
Name: 57, dtype: object

>  <hbond:TYR:89>  (59) 
hbond:TYR:89    0
hbond:TYR:89    0
Name: 57, dtype: object

>  <hbond:TYR:90>  (59) 
hbond:TYR:90    0
hbond:TYR:90    0
Name: 57, dtype: object

>  <hydroph_interaction:TYR:90>  (59) 
hydroph_interaction:TYR:90    0
hydroph_interaction:TYR:90    0
Name: 57, dtype: object

>  <pistack:TYR:90>  (59) 
pistack:TYR:90    0
pistack:TYR:90    0
Name: 57, dtype: object

>  <hbond:ARG:93>  (59) 
hbond:ARG:93    0
hbond:ARG:93    0
Name: 57, dtype: object

>  <saltbridge:ARG:93>  (59) 
saltbridge:ARG:93    0
saltbridge:ARG:93    0
Name: 57, dtype: object

>  <hydroph_interaction:ARG:93>  (59) 
hydroph_interaction:ARG:93    0
hydroph_interaction:ARG:93    0
Name: 57, dtype: object

>  <halogenbond:GLN:95>  (59) 
halogenbond:GLN:95    0
halogenbond:GLN:95    0
Name: 57, dtype: object

>  <hbond:GLN:95>  (59) 
hbond:GLN:95    0
hbond:GLN:95    0
Name: 57, dtype: object

>  <hydroph_interaction:GLN:95>  (59) 
hydroph_interaction:GLN:95    0
hydroph_interaction:GLN:95    0
Name: 57, dtype: object

>  <hydroph_interaction:LEU:98>  (59) 
hydroph_interaction:LEU:98    1
hydroph_interaction:LEU:98    1
Name: 57, dtype: object

>  <hydroph_interaction:LEU:100>  (59) 
hydroph_interaction:LEU:100    1
hydroph_interaction:LEU:100    1
Name: 57, dtype: object

>  <hbond:SER:105>  (59) 
hbond:SER:105    0
hbond:SER:105    0
Name: 57, dtype: object

>  <halogenbond:SER:105>  (59) 
halogenbond:SER:105    0
halogenbond:SER:105    0
Name: 57, dtype: object

>  <hydroph_interaction:PRO:107>  (59) 
hydroph_interaction:PRO:107    0
hydroph_interaction:PRO:107    0
Name: 57, dtype: object

>  <hbond:PRO:107>  (59) 
hbond:PRO:107    0
hbond:PRO:107    0
Name: 57, dtype: object

>  <halogenbond:PRO:107>  (59) 
halogenbond:PRO:107    0
halogenbond:PRO:107    0
Name: 57, dtype: object

>  <hbond:ASP:109>  (59) 
hbond:ASP:109    0
hbond:ASP:109    0
Name: 57, dtype: object

>  <hbond:CYS:110>  (59) 
hbond:CYS:110    0
hbond:CYS:110    0
Name: 57, dtype: object

>  <halogenbond:CYS:110>  (59) 
halogenbond:CYS:110    0
halogenbond:CYS:110    0
Name: 57, dtype: object

>  <hydroph_interaction:VAL:124>  (59) 
hydroph_interaction:VAL:124    0
hydroph_interaction:VAL:124    0
Name: 57, dtype: object

>  <hbond:SER:125>  (59) 
hbond:SER:125    0
hbond:SER:125    0
Name: 57, dtype: object

>  <halogenbond:SER:125>  (59) 
halogenbond:SER:125    0
halogenbond:SER:125    0
Name: 57, dtype: object

>  <hydroph_interaction:THR:126>  (59) 
hydroph_interaction:THR:126    0
hydroph_interaction:THR:126    0
Name: 57, dtype: object

>  <hbond:THR:126>  (59) 
hbond:THR:126    0
hbond:THR:126    0
Name: 57, dtype: object

>  <halogenbond:THR:126>  (59) 
halogenbond:THR:126    0
halogenbond:THR:126    0
Name: 57, dtype: object

>  <hbond:GLY:127>  (59) 
hbond:GLY:127    0
hbond:GLY:127    0
Name: 57, dtype: object

>  <halogenbond:GLY:127>  (59) 
halogenbond:GLY:127    0
halogenbond:GLY:127    0
Name: 57, dtype: object

>  <hbond:GLY:128>  (59) 
hbond:GLY:128    0
hbond:GLY:128    0
Name: 57, dtype: object

>  <hbond:ASN:129>  (59) 
hbond:ASN:129    1
hbond:ASN:129    1
Name: 57, dtype: object

>  <hydroph_interaction:ASN:129>  (59) 
hydroph_interaction:ASN:129    0
hydroph_interaction:ASN:129    0
Name: 57, dtype: object

>  <halogenbond:ASN:129>  (59) 
halogenbond:ASN:129    0
halogenbond:ASN:129    0
Name: 57, dtype: object

>  <hydroph_interaction:LEU:131>  (59) 
hydroph_interaction:LEU:131    0
hydroph_interaction:LEU:131    0
Name: 57, dtype: object

>  <hbond:LEU:131>  (59) 
hbond:LEU:131    1
hbond:LEU:131    1
Name: 57, dtype: object

>  <halogenbond:LEU:131>  (59) 
halogenbond:LEU:131    0
halogenbond:LEU:131    0
Name: 57, dtype: object

>  <hbond:VAL:132>  (59) 
hbond:VAL:132    0
hbond:VAL:132    0
Name: 57, dtype: object

$$$$
PV_005597294848
     RDKit          3D

 25 27  0  0  0  0  0  0  0  0999 V2000
   34.7263   14.2124    6.9345 C   0  0  0  0  0  0  0  0  0  0  0  0
   33.3552   13.7929    6.9901 O   0  0  0  0  0  0  0  0  0  0  0  0
   32.9892   12.7981    6.1225 C   0  0  0  0  0  0  0  0  0  0  0  0
   33.1619   12.9077    4.9138 O   0  0  0  0  0  0  0  0  0  0  0  0
   32.3773   11.5943    6.6812 C   0  0  0  0  0  0  0  0  0  0  0  0
   32.8889   10.1827    6.2675 C   0  0  0  0  0  0  0  0  0  0  0  0
   32.1627    9.0373    6.9509 C   0  0  0  0  0  0  0  0  0  0  0  0
   31.0676    9.2801    7.9144 C   0  0  0  0  0  0  0  0  0  0  0  0
   30.2516    8.0332    8.6875 Cl  0  0  0  0  0  0  0  0  0  0  0  0
   30.6892   10.5476    8.2009 C   0  0  0  0  0  0  0  0  0  0  0  0
   31.3191   11.7207    7.6093 C   0  0  0  0  0  0  0  0  0  0  0  0
   30.7124   12.9955    8.1136 C   0  0  0  0  0  0  0  0  0  0  0  0
   29.3497   13.2264    7.6824 N   0  0  0  0  0  0  0  0  0  0  0  0
   28.3240   13.7668    8.3730 C   0  0  0  0  0  0  0  0  0  0  0  0
   28.3874   14.1462    9.8248 C   0  0  0  0  0  0  0  0  0  0  0  0
   27.2422   13.9438    7.6789 N   0  0  0  0  0  0  0  0  0  0  0  0
   27.5774   13.4761    6.4219 N   0  0  0  0  0  0  0  0  0  0  0  0
   26.5842   13.0163    5.5245 C   0  0  0  0  0  0  0  0  0  0  0  0
   25.8006   11.8657    5.8759 C   0  0  0  0  0  0  0  0  0  0  0  0
   24.8556   11.4628    4.9549 C   0  0  0  0  0  0  0  0  0  0  0  0
   24.6506   12.1148    3.7432 C   0  0  0  0  0  0  0  0  0  0  0  0
   25.4126   13.2245    3.4132 C   0  0  0  0  0  0  0  0  0  0  0  0
   26.3742   13.6682    4.3058 C   0  0  0  0  0  0  0  0  0  0  0  0
   28.9806   13.3968    6.3665 C   0  0  0  0  0  0  0  0  0  0  0  0
   29.7328   13.4693    5.4079 O   0  0  0  0  0  0  0  0  0  0  0  0
  1  2  1  0
  2  3  1  0
  3  4  2  0
  3  5  1  0
  5  6  2  0
  6  7  1  0
  7  8  2  0
  8  9  1  0
  8 10  1  0
 10 11  2  0
 11 12  1  0
 12 13  1  0
 13 14  1  0
 14 15  1  0
 14 16  2  0
 16 17  1  0
 17 18  1  0
 18 19  2  0
 19 20  1  0
 20 21  2  0
 21 22  1  0
 22 23  2  0
 17 24  1  0
 24 25  2  0
 11  5  1  0
 24 13  1  0
 23 18  1  0
A    1
 C1 
A    2
 O1 
A    3
 C2 
A    4
 O2 
A    5
 C3 
A    6
 C4 
A    7
 C5 
A    8
 C6 
A    9
CL1 
A   10
 C7 
A   11
 C8 
A   12
 C9 
A   13
 N1 
A   14
 C10
A   15
 C11
A   16
 N2 
A   17
 N3 
A   18
 C12
A   19
 C13
A   20
 C14
A   21
 C15
A   22
 C16
A   23
 C17
A   24
 C18
A   25
 O3 
M  END
>  <ref_pdb>  (60) 
Ax0310a

>  <ref_mols>  (60) 
Ax0554a,Ax0310a

>  <original SMILES>  (60) 
COC(=O)c1ccc(Cl)cc1Cn1c(C)nn(-c2ccccc2)c1=O

>  <rationale>  (60) 
info hbond:E88; hydroph_interaction:P107+Y89+Y90+L22; 

>  <intxn_cluster_10>  (60) 
0

>  <intxn_cluster_rank_10>  (60) 
11

>  <N_interactions>  (60) 
7

>  <∆∆G>  (60) 
-12.761227

>  <$/mg>  (60) 
163.0

>  <comRMSD>  (60) 
0.923204

>  <N_rotatable_bonds>  (60) 
6

>  <deep_P1_sidechain>  (60) 
False

>  <farthest_distance_to_substrate>  (60) 
2.303425

>  <hbond:SER:7>  (60) 
hbond:SER:7    0
hbond:SER:7    0
Name: 58, dtype: object

>  <hydroph_interaction:ASN:19>  (60) 
hydroph_interaction:ASN:19    0
hydroph_interaction:ASN:19    0
Name: 58, dtype: object

>  <halogenbond:ASN:19>  (60) 
halogenbond:ASN:19    0
halogenbond:ASN:19    0
Name: 58, dtype: object

>  <hbond:ARG:20>  (60) 
hbond:ARG:20    0
hbond:ARG:20    0
Name: 58, dtype: object

>  <hydroph_interaction:ARG:20>  (60) 
hydroph_interaction:ARG:20    0
hydroph_interaction:ARG:20    0
Name: 58, dtype: object

>  <hbond:HIS:21>  (60) 
hbond:HIS:21    0
hbond:HIS:21    0
Name: 58, dtype: object

>  <hydroph_interaction:HIS:21>  (60) 
hydroph_interaction:HIS:21    0
hydroph_interaction:HIS:21    0
Name: 58, dtype: object

>  <saltbridge:HIS:21>  (60) 
saltbridge:HIS:21    0
saltbridge:HIS:21    0
Name: 58, dtype: object

>  <pistack:HIS:21>  (60) 
pistack:HIS:21    0
pistack:HIS:21    0
Name: 58, dtype: object

>  <pication:HIS:21>  (60) 
pication:HIS:21    0
pication:HIS:21    0
Name: 58, dtype: object

>  <hydroph_interaction:LEU:22>  (60) 
hydroph_interaction:LEU:22    1
hydroph_interaction:LEU:22    1
Name: 58, dtype: object

>  <hbond:SER:36>  (60) 
hbond:SER:36    0
hbond:SER:36    0
Name: 58, dtype: object

>  <hbond:ASP:39>  (60) 
hbond:ASP:39    0
hbond:ASP:39    0
Name: 58, dtype: object

>  <saltbridge:ASP:39>  (60) 
saltbridge:ASP:39    0
saltbridge:ASP:39    0
Name: 58, dtype: object

>  <hydroph_interaction:ASP:39>  (60) 
hydroph_interaction:ASP:39    0
hydroph_interaction:ASP:39    0
Name: 58, dtype: object

>  <halogenbond:ASP:39>  (60) 
halogenbond:ASP:39    0
halogenbond:ASP:39    0
Name: 58, dtype: object

>  <hydroph_interaction:ILE:82>  (60) 
hydroph_interaction:ILE:82    0
hydroph_interaction:ILE:82    0
Name: 58, dtype: object

>  <hydroph_interaction:PHE:83>  (60) 
hydroph_interaction:PHE:83    0
hydroph_interaction:PHE:83    0
Name: 58, dtype: object

>  <hbond:PHE:83>  (60) 
hbond:PHE:83    0
hbond:PHE:83    0
Name: 58, dtype: object

>  <halogenbond:PHE:83>  (60) 
halogenbond:PHE:83    0
halogenbond:PHE:83    0
Name: 58, dtype: object

>  <hydroph_interaction:VAL:84>  (60) 
hydroph_interaction:VAL:84    0
hydroph_interaction:VAL:84    0
Name: 58, dtype: object

>  <hydroph_interaction:GLU:85>  (60) 
hydroph_interaction:GLU:85    0
hydroph_interaction:GLU:85    0
Name: 58, dtype: object

>  <hbond:GLU:85>  (60) 
hbond:GLU:85    0
hbond:GLU:85    0
Name: 58, dtype: object

>  <halogenbond:GLU:85>  (60) 
halogenbond:GLU:85    0
halogenbond:GLU:85    0
Name: 58, dtype: object

>  <halogenbond:ALA:86>  (60) 
halogenbond:ALA:86    0
halogenbond:ALA:86    0
Name: 58, dtype: object

>  <hbond:SER:87>  (60) 
hbond:SER:87    0
hbond:SER:87    0
Name: 58, dtype: object

>  <halogenbond:SER:87>  (60) 
halogenbond:SER:87    0
halogenbond:SER:87    0
Name: 58, dtype: object

>  <hbond:GLU:88>  (60) 
hbond:GLU:88    2
hbond:GLU:88    2
Name: 58, dtype: object

>  <halogenbond:GLU:88>  (60) 
halogenbond:GLU:88    0
halogenbond:GLU:88    0
Name: 58, dtype: object

>  <hydroph_interaction:TYR:89>  (60) 
hydroph_interaction:TYR:89    2
hydroph_interaction:TYR:89    2
Name: 58, dtype: object

>  <pistack:TYR:89>  (60) 
pistack:TYR:89    0
pistack:TYR:89    0
Name: 58, dtype: object

>  <hbond:TYR:89>  (60) 
hbond:TYR:89    0
hbond:TYR:89    0
Name: 58, dtype: object

>  <hbond:TYR:90>  (60) 
hbond:TYR:90    0
hbond:TYR:90    0
Name: 58, dtype: object

>  <hydroph_interaction:TYR:90>  (60) 
hydroph_interaction:TYR:90    1
hydroph_interaction:TYR:90    1
Name: 58, dtype: object

>  <pistack:TYR:90>  (60) 
pistack:TYR:90    0
pistack:TYR:90    0
Name: 58, dtype: object

>  <hbond:ARG:93>  (60) 
hbond:ARG:93    0
hbond:ARG:93    0
Name: 58, dtype: object

>  <saltbridge:ARG:93>  (60) 
saltbridge:ARG:93    0
saltbridge:ARG:93    0
Name: 58, dtype: object

>  <hydroph_interaction:ARG:93>  (60) 
hydroph_interaction:ARG:93    0
hydroph_interaction:ARG:93    0
Name: 58, dtype: object

>  <halogenbond:GLN:95>  (60) 
halogenbond:GLN:95    0
halogenbond:GLN:95    0
Name: 58, dtype: object

>  <hbond:GLN:95>  (60) 
hbond:GLN:95    0
hbond:GLN:95    0
Name: 58, dtype: object

>  <hydroph_interaction:GLN:95>  (60) 
hydroph_interaction:GLN:95    0
hydroph_interaction:GLN:95    0
Name: 58, dtype: object

>  <hydroph_interaction:LEU:98>  (60) 
hydroph_interaction:LEU:98    0
hydroph_interaction:LEU:98    0
Name: 58, dtype: object

>  <hydroph_interaction:LEU:100>  (60) 
hydroph_interaction:LEU:100    0
hydroph_interaction:LEU:100    0
Name: 58, dtype: object

>  <hbond:SER:105>  (60) 
hbond:SER:105    0
hbond:SER:105    0
Name: 58, dtype: object

>  <halogenbond:SER:105>  (60) 
halogenbond:SER:105    0
halogenbond:SER:105    0
Name: 58, dtype: object

>  <hydroph_interaction:PRO:107>  (60) 
hydroph_interaction:PRO:107    1
hydroph_interaction:PRO:107    1
Name: 58, dtype: object

>  <hbond:PRO:107>  (60) 
hbond:PRO:107    0
hbond:PRO:107    0
Name: 58, dtype: object

>  <halogenbond:PRO:107>  (60) 
halogenbond:PRO:107    0
halogenbond:PRO:107    0
Name: 58, dtype: object

>  <hbond:ASP:109>  (60) 
hbond:ASP:109    0
hbond:ASP:109    0
Name: 58, dtype: object

>  <hbond:CYS:110>  (60) 
hbond:CYS:110    0
hbond:CYS:110    0
Name: 58, dtype: object

>  <halogenbond:CYS:110>  (60) 
halogenbond:CYS:110    0
halogenbond:CYS:110    0
Name: 58, dtype: object

>  <hydroph_interaction:VAL:124>  (60) 
hydroph_interaction:VAL:124    0
hydroph_interaction:VAL:124    0
Name: 58, dtype: object

>  <hbond:SER:125>  (60) 
hbond:SER:125    0
hbond:SER:125    0
Name: 58, dtype: object

>  <halogenbond:SER:125>  (60) 
halogenbond:SER:125    0
halogenbond:SER:125    0
Name: 58, dtype: object

>  <hydroph_interaction:THR:126>  (60) 
hydroph_interaction:THR:126    0
hydroph_interaction:THR:126    0
Name: 58, dtype: object

>  <hbond:THR:126>  (60) 
hbond:THR:126    0
hbond:THR:126    0
Name: 58, dtype: object

>  <halogenbond:THR:126>  (60) 
halogenbond:THR:126    0
halogenbond:THR:126    0
Name: 58, dtype: object

>  <hbond:GLY:127>  (60) 
hbond:GLY:127    0
hbond:GLY:127    0
Name: 58, dtype: object

>  <halogenbond:GLY:127>  (60) 
halogenbond:GLY:127    0
halogenbond:GLY:127    0
Name: 58, dtype: object

>  <hbond:GLY:128>  (60) 
hbond:GLY:128    0
hbond:GLY:128    0
Name: 58, dtype: object

>  <hbond:ASN:129>  (60) 
hbond:ASN:129    0
hbond:ASN:129    0
Name: 58, dtype: object

>  <hydroph_interaction:ASN:129>  (60) 
hydroph_interaction:ASN:129    0
hydroph_interaction:ASN:129    0
Name: 58, dtype: object

>  <halogenbond:ASN:129>  (60) 
halogenbond:ASN:129    0
halogenbond:ASN:129    0
Name: 58, dtype: object

>  <hydroph_interaction:LEU:131>  (60) 
hydroph_interaction:LEU:131    0
hydroph_interaction:LEU:131    0
Name: 58, dtype: object

>  <hbond:LEU:131>  (60) 
hbond:LEU:131    0
hbond:LEU:131    0
Name: 58, dtype: object

>  <halogenbond:LEU:131>  (60) 
halogenbond:LEU:131    0
halogenbond:LEU:131    0
Name: 58, dtype: object

>  <hbond:VAL:132>  (60) 
hbond:VAL:132    0
hbond:VAL:132    0
Name: 58, dtype: object

$$$$
Z3055000374
     RDKit          3D

 15 15  0  0  0  0  0  0  0  0999 V2000
   28.7604   16.1178    8.4965 C   0  0  0  0  0  0  0  0  0  0  0  0
   27.8902   14.9192    8.7793 C   0  0  0  0  0  0  0  0  0  0  0  0
   28.6175   13.5926    8.5577 C   0  0  0  0  0  0  0  0  0  0  0  0
   29.4873   13.5780    7.2977 C   0  0  0  0  0  0  0  0  0  0  0  0
   29.0643   13.9357    6.2030 O   0  0  0  0  0  0  0  0  0  0  0  0
   30.7628   13.1120    7.5646 N   0  0  0  0  0  0  0  0  0  0  0  0
   31.1578   11.7623    7.4745 C   0  0  0  0  0  0  0  0  0  0  0  0
   30.5971   10.7425    8.2313 C   0  0  0  0  0  0  0  0  0  0  0  0
   31.0115    9.4283    8.1077 C   0  0  0  0  0  0  0  0  0  0  0  0
   30.4206    8.4348    8.9042 C   0  0  0  0  0  0  0  0  0  0  0  0
   32.0172    9.1230    7.1885 C   0  0  0  0  0  0  0  0  0  0  0  0
   32.5927   10.1383    6.4224 C   0  0  0  0  0  0  0  0  0  0  0  0
   33.9626    9.7545    5.1765 Br  0  0  0  0  0  0  0  0  0  0  0  0
   32.1631   11.4454    6.5689 C   0  0  0  0  0  0  0  0  0  0  0  0
   32.7123   12.4266    5.8320 F   0  0  0  0  0  0  0  0  0  0  0  0
  1  2  1  0
  2  3  1  0
  3  4  1  0
  4  5  2  0
  4  6  1  0
  6  7  1  0
  7  8  2  0
  8  9  1  0
  9 10  1  0
  9 11  2  0
 11 12  1  0
 12 13  1  0
 12 14  2  0
 14 15  1  0
 14  7  1  0
A    1
 C1 
A    2
 C2 
A    3
 C3 
A    4
 C4 
A    5
 O1 
A    6
 N1 
A    7
 C5 
A    8
 C6 
A    9
 C7 
A   10
 C8 
A   11
 C9 
A   12
 C10
A   13
BR1 
A   14
 C11
A   15
 F1 
M  END
>  <ref_pdb>  (61) 
Ax0310a

>  <ref_mols>  (61) 
Ax0451a,Ax0739a

>  <original SMILES>  (61) 
CCCC(=O)Nc1cc(C)cc(Br)c1F

>  <rationale>  (61) 
info hbond:E88+S87; hydroph_interaction:V124+Y89+Y90; 

>  <intxn_cluster_10>  (61) 
0

>  <intxn_cluster_rank_10>  (61) 
12

>  <N_interactions>  (61) 
6

>  <∆∆G>  (61) 
-11.650286

>  <$/mg>  (61) 
163.0

>  <comRMSD>  (61) 
0.639473

>  <N_rotatable_bonds>  (61) 
5

>  <deep_P1_sidechain>  (61) 
True

>  <farthest_distance_to_substrate>  (61) 
2.601027

>  <hbond:SER:7>  (61) 
hbond:SER:7    0
hbond:SER:7    0
Name: 59, dtype: object

>  <hydroph_interaction:ASN:19>  (61) 
hydroph_interaction:ASN:19    0
hydroph_interaction:ASN:19    0
Name: 59, dtype: object

>  <halogenbond:ASN:19>  (61) 
halogenbond:ASN:19    0
halogenbond:ASN:19    0
Name: 59, dtype: object

>  <hbond:ARG:20>  (61) 
hbond:ARG:20    0
hbond:ARG:20    0
Name: 59, dtype: object

>  <hydroph_interaction:ARG:20>  (61) 
hydroph_interaction:ARG:20    0
hydroph_interaction:ARG:20    0
Name: 59, dtype: object

>  <hbond:HIS:21>  (61) 
hbond:HIS:21    0
hbond:HIS:21    0
Name: 59, dtype: object

>  <hydroph_interaction:HIS:21>  (61) 
hydroph_interaction:HIS:21    0
hydroph_interaction:HIS:21    0
Name: 59, dtype: object

>  <saltbridge:HIS:21>  (61) 
saltbridge:HIS:21    0
saltbridge:HIS:21    0
Name: 59, dtype: object

>  <pistack:HIS:21>  (61) 
pistack:HIS:21    0
pistack:HIS:21    0
Name: 59, dtype: object

>  <pication:HIS:21>  (61) 
pication:HIS:21    0
pication:HIS:21    0
Name: 59, dtype: object

>  <hydroph_interaction:LEU:22>  (61) 
hydroph_interaction:LEU:22    0
hydroph_interaction:LEU:22    0
Name: 59, dtype: object

>  <hbond:SER:36>  (61) 
hbond:SER:36    0
hbond:SER:36    0
Name: 59, dtype: object

>  <hbond:ASP:39>  (61) 
hbond:ASP:39    0
hbond:ASP:39    0
Name: 59, dtype: object

>  <saltbridge:ASP:39>  (61) 
saltbridge:ASP:39    0
saltbridge:ASP:39    0
Name: 59, dtype: object

>  <hydroph_interaction:ASP:39>  (61) 
hydroph_interaction:ASP:39    0
hydroph_interaction:ASP:39    0
Name: 59, dtype: object

>  <halogenbond:ASP:39>  (61) 
halogenbond:ASP:39    0
halogenbond:ASP:39    0
Name: 59, dtype: object

>  <hydroph_interaction:ILE:82>  (61) 
hydroph_interaction:ILE:82    0
hydroph_interaction:ILE:82    0
Name: 59, dtype: object

>  <hydroph_interaction:PHE:83>  (61) 
hydroph_interaction:PHE:83    0
hydroph_interaction:PHE:83    0
Name: 59, dtype: object

>  <hbond:PHE:83>  (61) 
hbond:PHE:83    0
hbond:PHE:83    0
Name: 59, dtype: object

>  <halogenbond:PHE:83>  (61) 
halogenbond:PHE:83    0
halogenbond:PHE:83    0
Name: 59, dtype: object

>  <hydroph_interaction:VAL:84>  (61) 
hydroph_interaction:VAL:84    0
hydroph_interaction:VAL:84    0
Name: 59, dtype: object

>  <hydroph_interaction:GLU:85>  (61) 
hydroph_interaction:GLU:85    0
hydroph_interaction:GLU:85    0
Name: 59, dtype: object

>  <hbond:GLU:85>  (61) 
hbond:GLU:85    0
hbond:GLU:85    0
Name: 59, dtype: object

>  <halogenbond:GLU:85>  (61) 
halogenbond:GLU:85    0
halogenbond:GLU:85    0
Name: 59, dtype: object

>  <halogenbond:ALA:86>  (61) 
halogenbond:ALA:86    0
halogenbond:ALA:86    0
Name: 59, dtype: object

>  <hbond:SER:87>  (61) 
hbond:SER:87    2
hbond:SER:87    2
Name: 59, dtype: object

>  <halogenbond:SER:87>  (61) 
halogenbond:SER:87    0
halogenbond:SER:87    0
Name: 59, dtype: object

>  <hbond:GLU:88>  (61) 
hbond:GLU:88    1
hbond:GLU:88    1
Name: 59, dtype: object

>  <halogenbond:GLU:88>  (61) 
halogenbond:GLU:88    0
halogenbond:GLU:88    0
Name: 59, dtype: object

>  <hydroph_interaction:TYR:89>  (61) 
hydroph_interaction:TYR:89    1
hydroph_interaction:TYR:89    1
Name: 59, dtype: object

>  <pistack:TYR:89>  (61) 
pistack:TYR:89    0
pistack:TYR:89    0
Name: 59, dtype: object

>  <hbond:TYR:89>  (61) 
hbond:TYR:89    0
hbond:TYR:89    0
Name: 59, dtype: object

>  <hbond:TYR:90>  (61) 
hbond:TYR:90    0
hbond:TYR:90    0
Name: 59, dtype: object

>  <hydroph_interaction:TYR:90>  (61) 
hydroph_interaction:TYR:90    1
hydroph_interaction:TYR:90    1
Name: 59, dtype: object

>  <pistack:TYR:90>  (61) 
pistack:TYR:90    0
pistack:TYR:90    0
Name: 59, dtype: object

>  <hbond:ARG:93>  (61) 
hbond:ARG:93    0
hbond:ARG:93    0
Name: 59, dtype: object

>  <saltbridge:ARG:93>  (61) 
saltbridge:ARG:93    0
saltbridge:ARG:93    0
Name: 59, dtype: object

>  <hydroph_interaction:ARG:93>  (61) 
hydroph_interaction:ARG:93    0
hydroph_interaction:ARG:93    0
Name: 59, dtype: object

>  <halogenbond:GLN:95>  (61) 
halogenbond:GLN:95    0
halogenbond:GLN:95    0
Name: 59, dtype: object

>  <hbond:GLN:95>  (61) 
hbond:GLN:95    0
hbond:GLN:95    0
Name: 59, dtype: object

>  <hydroph_interaction:GLN:95>  (61) 
hydroph_interaction:GLN:95    0
hydroph_interaction:GLN:95    0
Name: 59, dtype: object

>  <hydroph_interaction:LEU:98>  (61) 
hydroph_interaction:LEU:98    0
hydroph_interaction:LEU:98    0
Name: 59, dtype: object

>  <hydroph_interaction:LEU:100>  (61) 
hydroph_interaction:LEU:100    0
hydroph_interaction:LEU:100    0
Name: 59, dtype: object

>  <hbond:SER:105>  (61) 
hbond:SER:105    0
hbond:SER:105    0
Name: 59, dtype: object

>  <halogenbond:SER:105>  (61) 
halogenbond:SER:105    0
halogenbond:SER:105    0
Name: 59, dtype: object

>  <hydroph_interaction:PRO:107>  (61) 
hydroph_interaction:PRO:107    0
hydroph_interaction:PRO:107    0
Name: 59, dtype: object

>  <hbond:PRO:107>  (61) 
hbond:PRO:107    0
hbond:PRO:107    0
Name: 59, dtype: object

>  <halogenbond:PRO:107>  (61) 
halogenbond:PRO:107    0
halogenbond:PRO:107    0
Name: 59, dtype: object

>  <hbond:ASP:109>  (61) 
hbond:ASP:109    0
hbond:ASP:109    0
Name: 59, dtype: object

>  <hbond:CYS:110>  (61) 
hbond:CYS:110    0
hbond:CYS:110    0
Name: 59, dtype: object

>  <halogenbond:CYS:110>  (61) 
halogenbond:CYS:110    0
halogenbond:CYS:110    0
Name: 59, dtype: object

>  <hydroph_interaction:VAL:124>  (61) 
hydroph_interaction:VAL:124    1
hydroph_interaction:VAL:124    1
Name: 59, dtype: object

>  <hbond:SER:125>  (61) 
hbond:SER:125    0
hbond:SER:125    0
Name: 59, dtype: object

>  <halogenbond:SER:125>  (61) 
halogenbond:SER:125    0
halogenbond:SER:125    0
Name: 59, dtype: object

>  <hydroph_interaction:THR:126>  (61) 
hydroph_interaction:THR:126    0
hydroph_interaction:THR:126    0
Name: 59, dtype: object

>  <hbond:THR:126>  (61) 
hbond:THR:126    0
hbond:THR:126    0
Name: 59, dtype: object

>  <halogenbond:THR:126>  (61) 
halogenbond:THR:126    0
halogenbond:THR:126    0
Name: 59, dtype: object

>  <hbond:GLY:127>  (61) 
hbond:GLY:127    0
hbond:GLY:127    0
Name: 59, dtype: object

>  <halogenbond:GLY:127>  (61) 
halogenbond:GLY:127    0
halogenbond:GLY:127    0
Name: 59, dtype: object

>  <hbond:GLY:128>  (61) 
hbond:GLY:128    0
hbond:GLY:128    0
Name: 59, dtype: object

>  <hbond:ASN:129>  (61) 
hbond:ASN:129    0
hbond:ASN:129    0
Name: 59, dtype: object

>  <hydroph_interaction:ASN:129>  (61) 
hydroph_interaction:ASN:129    0
hydroph_interaction:ASN:129    0
Name: 59, dtype: object

>  <halogenbond:ASN:129>  (61) 
halogenbond:ASN:129    0
halogenbond:ASN:129    0
Name: 59, dtype: object

>  <hydroph_interaction:LEU:131>  (61) 
hydroph_interaction:LEU:131    0
hydroph_interaction:LEU:131    0
Name: 59, dtype: object

>  <hbond:LEU:131>  (61) 
hbond:LEU:131    0
hbond:LEU:131    0
Name: 59, dtype: object

>  <halogenbond:LEU:131>  (61) 
halogenbond:LEU:131    0
halogenbond:LEU:131    0
Name: 59, dtype: object

>  <hbond:VAL:132>  (61) 
hbond:VAL:132    0
hbond:VAL:132    0
Name: 59, dtype: object

$$$$
PV_003013251379
     RDKit          3D

 19 20  0  0  0  0  0  0  0  0999 V2000
   30.7561    8.2153    8.8612 C   0  0  0  0  0  0  0  0  0  0  0  0
   31.1681    9.2695    7.9985 N   0  0  0  0  0  0  0  0  0  0  0  0
   32.0941    9.2470    7.0139 C   0  0  0  0  0  0  0  0  0  0  0  0
   32.1541   10.6002    6.4029 C   0  0  0  0  0  0  0  0  0  0  0  0
   31.1219   11.3857    7.1870 C   0  0  0  0  0  0  0  0  0  0  0  0
   30.7425   12.7629    7.0259 C   0  0  0  0  0  0  0  0  0  0  0  0
   30.7728   13.3739    5.9700 O   0  0  0  0  0  0  0  0  0  0  0  0
   30.3165   13.2142    8.3120 N   0  0  0  0  0  0  0  0  0  0  0  0
   29.1730   13.8635    8.3529 C   0  0  0  0  0  0  0  0  0  0  0  0
   28.9428   14.8418    9.3632 C   0  0  0  0  0  0  0  0  0  0  0  0
   30.2966   15.1955   10.6120 Br  0  0  0  0  0  0  0  0  0  0  0  0
   27.7137   15.3852    9.2541 C   0  0  0  0  0  0  0  0  0  0  0  0
   27.0453   16.2921    9.9452 C   0  0  0  0  0  0  0  0  0  0  0  0
   26.9448   17.4628    9.7348 O   0  0  0  0  0  0  0  0  0  0  0  0
   26.4474   15.7852   10.9947 O   0  0  0  0  0  0  0  0  0  0  0  0
   27.1927   14.7411    8.1552 N   0  0  0  0  0  0  0  0  0  0  0  0
   28.0196   13.8549    7.6193 N   0  0  0  0  0  0  0  0  0  0  0  0
   27.5821   13.1102    6.4654 C   0  0  0  0  0  0  0  0  0  0  0  0
   30.5586   10.5556    8.1347 C   0  0  0  0  0  0  0  0  0  0  0  0
  1  2  1  0
  2  3  1  0
  3  4  2  0
  4  5  1  0
  5  6  1  0
  6  7  2  0
  6  8  1  0
  8  9  1  0
  9 10  2  0
 10 11  1  0
 10 12  1  0
 12 13  1  0
 13 14  2  0
 13 15  1  0
 12 16  2  0
 16 17  1  0
 17 18  1  0
  5 19  2  0
 19  2  1  0
 17  9  1  0
A    1
 C1 
A    2
 N1 
A    3
 C2 
A    4
 C3 
A    5
 C4 
A    6
 C5 
A    7
 O1 
A    8
 N2 
A    9
 C6 
A   10
 C7 
A   11
BR1 
A   12
 C8 
A   13
 C9 
A   14
 O2 
A   15
 O3 
A   16
 N3 
A   17
 N4 
A   18
 C10
A   19
 C11
M  END
>  <ref_pdb>  (62) 
Ax0310a

>  <ref_mols>  (62) 
Ax0451a,Ax0416a

>  <original SMILES>  (62) 
Cn1ccc(C(=O)Nc2c(Br)c(C(=O)O)nn2C)c1

>  <rationale>  (62) 
info halogenbond:Q95; hbond:S125+S87+Y89; hydroph_interaction:P107; saltbridge:H21; 

>  <intxn_cluster_10>  (62) 
9

>  <intxn_cluster_rank_10>  (62) 
8

>  <N_interactions>  (62) 
6

>  <∆∆G>  (62) 
-4.844317

>  <$/mg>  (62) 
0.0

>  <comRMSD>  (62) 
0.762754

>  <N_rotatable_bonds>  (62) 
5

>  <deep_P1_sidechain>  (62) 
False

>  <farthest_distance_to_substrate>  (62) 
2.454836

>  <hbond:SER:7>  (62) 
hbond:SER:7    0
hbond:SER:7    0
Name: 60, dtype: object

>  <hydroph_interaction:ASN:19>  (62) 
hydroph_interaction:ASN:19    0
hydroph_interaction:ASN:19    0
Name: 60, dtype: object

>  <halogenbond:ASN:19>  (62) 
halogenbond:ASN:19    0
halogenbond:ASN:19    0
Name: 60, dtype: object

>  <hbond:ARG:20>  (62) 
hbond:ARG:20    0
hbond:ARG:20    0
Name: 60, dtype: object

>  <hydroph_interaction:ARG:20>  (62) 
hydroph_interaction:ARG:20    0
hydroph_interaction:ARG:20    0
Name: 60, dtype: object

>  <hbond:HIS:21>  (62) 
hbond:HIS:21    0
hbond:HIS:21    0
Name: 60, dtype: object

>  <hydroph_interaction:HIS:21>  (62) 
hydroph_interaction:HIS:21    0
hydroph_interaction:HIS:21    0
Name: 60, dtype: object

>  <saltbridge:HIS:21>  (62) 
saltbridge:HIS:21    1
saltbridge:HIS:21    1
Name: 60, dtype: object

>  <pistack:HIS:21>  (62) 
pistack:HIS:21    0
pistack:HIS:21    0
Name: 60, dtype: object

>  <pication:HIS:21>  (62) 
pication:HIS:21    0
pication:HIS:21    0
Name: 60, dtype: object

>  <hydroph_interaction:LEU:22>  (62) 
hydroph_interaction:LEU:22    0
hydroph_interaction:LEU:22    0
Name: 60, dtype: object

>  <hbond:SER:36>  (62) 
hbond:SER:36    0
hbond:SER:36    0
Name: 60, dtype: object

>  <hbond:ASP:39>  (62) 
hbond:ASP:39    0
hbond:ASP:39    0
Name: 60, dtype: object

>  <saltbridge:ASP:39>  (62) 
saltbridge:ASP:39    0
saltbridge:ASP:39    0
Name: 60, dtype: object

>  <hydroph_interaction:ASP:39>  (62) 
hydroph_interaction:ASP:39    0
hydroph_interaction:ASP:39    0
Name: 60, dtype: object

>  <halogenbond:ASP:39>  (62) 
halogenbond:ASP:39    0
halogenbond:ASP:39    0
Name: 60, dtype: object

>  <hydroph_interaction:ILE:82>  (62) 
hydroph_interaction:ILE:82    0
hydroph_interaction:ILE:82    0
Name: 60, dtype: object

>  <hydroph_interaction:PHE:83>  (62) 
hydroph_interaction:PHE:83    0
hydroph_interaction:PHE:83    0
Name: 60, dtype: object

>  <hbond:PHE:83>  (62) 
hbond:PHE:83    0
hbond:PHE:83    0
Name: 60, dtype: object

>  <halogenbond:PHE:83>  (62) 
halogenbond:PHE:83    0
halogenbond:PHE:83    0
Name: 60, dtype: object

>  <hydroph_interaction:VAL:84>  (62) 
hydroph_interaction:VAL:84    0
hydroph_interaction:VAL:84    0
Name: 60, dtype: object

>  <hydroph_interaction:GLU:85>  (62) 
hydroph_interaction:GLU:85    0
hydroph_interaction:GLU:85    0
Name: 60, dtype: object

>  <hbond:GLU:85>  (62) 
hbond:GLU:85    0
hbond:GLU:85    0
Name: 60, dtype: object

>  <halogenbond:GLU:85>  (62) 
halogenbond:GLU:85    0
halogenbond:GLU:85    0
Name: 60, dtype: object

>  <halogenbond:ALA:86>  (62) 
halogenbond:ALA:86    0
halogenbond:ALA:86    0
Name: 60, dtype: object

>  <hbond:SER:87>  (62) 
hbond:SER:87    1
hbond:SER:87    1
Name: 60, dtype: object

>  <halogenbond:SER:87>  (62) 
halogenbond:SER:87    0
halogenbond:SER:87    0
Name: 60, dtype: object

>  <hbond:GLU:88>  (62) 
hbond:GLU:88    0
hbond:GLU:88    0
Name: 60, dtype: object

>  <halogenbond:GLU:88>  (62) 
halogenbond:GLU:88    0
halogenbond:GLU:88    0
Name: 60, dtype: object

>  <hydroph_interaction:TYR:89>  (62) 
hydroph_interaction:TYR:89    0
hydroph_interaction:TYR:89    0
Name: 60, dtype: object

>  <pistack:TYR:89>  (62) 
pistack:TYR:89    0
pistack:TYR:89    0
Name: 60, dtype: object

>  <hbond:TYR:89>  (62) 
hbond:TYR:89    1
hbond:TYR:89    1
Name: 60, dtype: object

>  <hbond:TYR:90>  (62) 
hbond:TYR:90    0
hbond:TYR:90    0
Name: 60, dtype: object

>  <hydroph_interaction:TYR:90>  (62) 
hydroph_interaction:TYR:90    0
hydroph_interaction:TYR:90    0
Name: 60, dtype: object

>  <pistack:TYR:90>  (62) 
pistack:TYR:90    0
pistack:TYR:90    0
Name: 60, dtype: object

>  <hbond:ARG:93>  (62) 
hbond:ARG:93    0
hbond:ARG:93    0
Name: 60, dtype: object

>  <saltbridge:ARG:93>  (62) 
saltbridge:ARG:93    0
saltbridge:ARG:93    0
Name: 60, dtype: object

>  <hydroph_interaction:ARG:93>  (62) 
hydroph_interaction:ARG:93    0
hydroph_interaction:ARG:93    0
Name: 60, dtype: object

>  <halogenbond:GLN:95>  (62) 
halogenbond:GLN:95    1
halogenbond:GLN:95    1
Name: 60, dtype: object

>  <hbond:GLN:95>  (62) 
hbond:GLN:95    0
hbond:GLN:95    0
Name: 60, dtype: object

>  <hydroph_interaction:GLN:95>  (62) 
hydroph_interaction:GLN:95    0
hydroph_interaction:GLN:95    0
Name: 60, dtype: object

>  <hydroph_interaction:LEU:98>  (62) 
hydroph_interaction:LEU:98    0
hydroph_interaction:LEU:98    0
Name: 60, dtype: object

>  <hydroph_interaction:LEU:100>  (62) 
hydroph_interaction:LEU:100    0
hydroph_interaction:LEU:100    0
Name: 60, dtype: object

>  <hbond:SER:105>  (62) 
hbond:SER:105    0
hbond:SER:105    0
Name: 60, dtype: object

>  <halogenbond:SER:105>  (62) 
halogenbond:SER:105    0
halogenbond:SER:105    0
Name: 60, dtype: object

>  <hydroph_interaction:PRO:107>  (62) 
hydroph_interaction:PRO:107    1
hydroph_interaction:PRO:107    1
Name: 60, dtype: object

>  <hbond:PRO:107>  (62) 
hbond:PRO:107    0
hbond:PRO:107    0
Name: 60, dtype: object

>  <halogenbond:PRO:107>  (62) 
halogenbond:PRO:107    0
halogenbond:PRO:107    0
Name: 60, dtype: object

>  <hbond:ASP:109>  (62) 
hbond:ASP:109    0
hbond:ASP:109    0
Name: 60, dtype: object

>  <hbond:CYS:110>  (62) 
hbond:CYS:110    0
hbond:CYS:110    0
Name: 60, dtype: object

>  <halogenbond:CYS:110>  (62) 
halogenbond:CYS:110    0
halogenbond:CYS:110    0
Name: 60, dtype: object

>  <hydroph_interaction:VAL:124>  (62) 
hydroph_interaction:VAL:124    0
hydroph_interaction:VAL:124    0
Name: 60, dtype: object

>  <hbond:SER:125>  (62) 
hbond:SER:125    1
hbond:SER:125    1
Name: 60, dtype: object

>  <halogenbond:SER:125>  (62) 
halogenbond:SER:125    0
halogenbond:SER:125    0
Name: 60, dtype: object

>  <hydroph_interaction:THR:126>  (62) 
hydroph_interaction:THR:126    0
hydroph_interaction:THR:126    0
Name: 60, dtype: object

>  <hbond:THR:126>  (62) 
hbond:THR:126    0
hbond:THR:126    0
Name: 60, dtype: object

>  <halogenbond:THR:126>  (62) 
halogenbond:THR:126    0
halogenbond:THR:126    0
Name: 60, dtype: object

>  <hbond:GLY:127>  (62) 
hbond:GLY:127    0
hbond:GLY:127    0
Name: 60, dtype: object

>  <halogenbond:GLY:127>  (62) 
halogenbond:GLY:127    0
halogenbond:GLY:127    0
Name: 60, dtype: object

>  <hbond:GLY:128>  (62) 
hbond:GLY:128    0
hbond:GLY:128    0
Name: 60, dtype: object

>  <hbond:ASN:129>  (62) 
hbond:ASN:129    0
hbond:ASN:129    0
Name: 60, dtype: object

>  <hydroph_interaction:ASN:129>  (62) 
hydroph_interaction:ASN:129    0
hydroph_interaction:ASN:129    0
Name: 60, dtype: object

>  <halogenbond:ASN:129>  (62) 
halogenbond:ASN:129    0
halogenbond:ASN:129    0
Name: 60, dtype: object

>  <hydroph_interaction:LEU:131>  (62) 
hydroph_interaction:LEU:131    0
hydroph_interaction:LEU:131    0
Name: 60, dtype: object

>  <hbond:LEU:131>  (62) 
hbond:LEU:131    0
hbond:LEU:131    0
Name: 60, dtype: object

>  <halogenbond:LEU:131>  (62) 
halogenbond:LEU:131    0
halogenbond:LEU:131    0
Name: 60, dtype: object

>  <hbond:VAL:132>  (62) 
hbond:VAL:132    0
hbond:VAL:132    0
Name: 60, dtype: object

$$$$
Z2511833107
     RDKit          3D

 13 13  0  0  0  0  0  0  0  0999 V2000
   36.5992    9.1673   12.3778 C   0  0  0  0  0  0  0  0  0  0  0  0
   35.9761   10.3118   12.7142 N   0  0  0  0  0  0  0  0  0  0  0  0
   36.9873   11.1952   12.3531 C   0  0  0  0  0  0  0  0  0  0  0  0
   37.3768   12.2913   13.3199 C   0  0  0  0  0  0  0  0  0  0  0  0
   38.5042   13.0854   12.8066 C   0  0  0  0  0  0  0  0  0  0  0  0
   39.1661   12.8500   11.5003 C   0  0  0  0  0  0  0  0  0  0  0  0
   40.3063   13.6422   11.0159 C   0  0  0  0  0  0  0  0  0  0  0  0
   40.9588   14.5367   11.9395 C   0  0  0  0  0  0  0  0  0  0  0  0
   39.8408   14.3359    9.7290 C   0  0  0  0  0  0  0  0  0  0  0  0
   41.4154   12.6253   10.6449 C   0  0  0  0  0  0  0  0  0  0  0  0
   38.6809   11.8314   10.7124 C   0  0  0  0  0  0  0  0  0  0  0  0
   39.3883   11.5389    9.1817 Cl  0  0  0  0  0  0  0  0  0  0  0  0
   37.6316   11.0318   11.1347 C   0  0  0  0  0  0  0  0  0  0  0  0
  1  2  1  0
  2  3  1  0
  3  4  2  0
  4  5  1  0
  5  6  2  0
  6  7  1  0
  7  8  1  0
  7  9  1  0
  7 10  1  0
  6 11  1  0
 11 12  1  0
 11 13  2  0
 13  3  1  0
A    1
 C1 
A    2
 N1 
A    3
 C2 
A    4
 C3 
A    5
 C4 
A    6
 C5 
A    7
 C6 
A    8
 C7 
A    9
 C8 
A   10
 C9 
A   11
 C10
A   12
CL1 
A   13
 C11
M  END
>  <ref_pdb>  (63) 
Ax0310a

>  <ref_mols>  (63) 
Ax0473a,Ax0416a

>  <original SMILES>  (63) 
CNc1ccc(C(C)(C)C)c(Cl)c1

>  <rationale>  (63) 
info halogenbond:N129; hbond:T126; hydroph_interaction:V84+E85+I82+L100; 

>  <intxn_cluster_10>  (63) 
0

>  <intxn_cluster_rank_10>  (63) 
5

>  <N_interactions>  (63) 
6

>  <∆∆G>  (63) 
-6.647269

>  <$/mg>  (63) 
0.0

>  <comRMSD>  (63) 
0.887201

>  <N_rotatable_bonds>  (63) 
2

>  <deep_P1_sidechain>  (63) 
False

>  <farthest_distance_to_substrate>  (63) 
3.903233

>  <hbond:SER:7>  (63) 
hbond:SER:7    0
hbond:SER:7    0
Name: 61, dtype: object

>  <hydroph_interaction:ASN:19>  (63) 
hydroph_interaction:ASN:19    0
hydroph_interaction:ASN:19    0
Name: 61, dtype: object

>  <halogenbond:ASN:19>  (63) 
halogenbond:ASN:19    0
halogenbond:ASN:19    0
Name: 61, dtype: object

>  <hbond:ARG:20>  (63) 
hbond:ARG:20    0
hbond:ARG:20    0
Name: 61, dtype: object

>  <hydroph_interaction:ARG:20>  (63) 
hydroph_interaction:ARG:20    0
hydroph_interaction:ARG:20    0
Name: 61, dtype: object

>  <hbond:HIS:21>  (63) 
hbond:HIS:21    0
hbond:HIS:21    0
Name: 61, dtype: object

>  <hydroph_interaction:HIS:21>  (63) 
hydroph_interaction:HIS:21    0
hydroph_interaction:HIS:21    0
Name: 61, dtype: object

>  <saltbridge:HIS:21>  (63) 
saltbridge:HIS:21    0
saltbridge:HIS:21    0
Name: 61, dtype: object

>  <pistack:HIS:21>  (63) 
pistack:HIS:21    0
pistack:HIS:21    0
Name: 61, dtype: object

>  <pication:HIS:21>  (63) 
pication:HIS:21    0
pication:HIS:21    0
Name: 61, dtype: object

>  <hydroph_interaction:LEU:22>  (63) 
hydroph_interaction:LEU:22    0
hydroph_interaction:LEU:22    0
Name: 61, dtype: object

>  <hbond:SER:36>  (63) 
hbond:SER:36    0
hbond:SER:36    0
Name: 61, dtype: object

>  <hbond:ASP:39>  (63) 
hbond:ASP:39    0
hbond:ASP:39    0
Name: 61, dtype: object

>  <saltbridge:ASP:39>  (63) 
saltbridge:ASP:39    0
saltbridge:ASP:39    0
Name: 61, dtype: object

>  <hydroph_interaction:ASP:39>  (63) 
hydroph_interaction:ASP:39    0
hydroph_interaction:ASP:39    0
Name: 61, dtype: object

>  <halogenbond:ASP:39>  (63) 
halogenbond:ASP:39    0
halogenbond:ASP:39    0
Name: 61, dtype: object

>  <hydroph_interaction:ILE:82>  (63) 
hydroph_interaction:ILE:82    1
hydroph_interaction:ILE:82    1
Name: 61, dtype: object

>  <hydroph_interaction:PHE:83>  (63) 
hydroph_interaction:PHE:83    0
hydroph_interaction:PHE:83    0
Name: 61, dtype: object

>  <hbond:PHE:83>  (63) 
hbond:PHE:83    0
hbond:PHE:83    0
Name: 61, dtype: object

>  <halogenbond:PHE:83>  (63) 
halogenbond:PHE:83    0
halogenbond:PHE:83    0
Name: 61, dtype: object

>  <hydroph_interaction:VAL:84>  (63) 
hydroph_interaction:VAL:84    1
hydroph_interaction:VAL:84    1
Name: 61, dtype: object

>  <hydroph_interaction:GLU:85>  (63) 
hydroph_interaction:GLU:85    1
hydroph_interaction:GLU:85    1
Name: 61, dtype: object

>  <hbond:GLU:85>  (63) 
hbond:GLU:85    0
hbond:GLU:85    0
Name: 61, dtype: object

>  <halogenbond:GLU:85>  (63) 
halogenbond:GLU:85    0
halogenbond:GLU:85    0
Name: 61, dtype: object

>  <halogenbond:ALA:86>  (63) 
halogenbond:ALA:86    0
halogenbond:ALA:86    0
Name: 61, dtype: object

>  <hbond:SER:87>  (63) 
hbond:SER:87    0
hbond:SER:87    0
Name: 61, dtype: object

>  <halogenbond:SER:87>  (63) 
halogenbond:SER:87    0
halogenbond:SER:87    0
Name: 61, dtype: object

>  <hbond:GLU:88>  (63) 
hbond:GLU:88    0
hbond:GLU:88    0
Name: 61, dtype: object

>  <halogenbond:GLU:88>  (63) 
halogenbond:GLU:88    0
halogenbond:GLU:88    0
Name: 61, dtype: object

>  <hydroph_interaction:TYR:89>  (63) 
hydroph_interaction:TYR:89    0
hydroph_interaction:TYR:89    0
Name: 61, dtype: object

>  <pistack:TYR:89>  (63) 
pistack:TYR:89    0
pistack:TYR:89    0
Name: 61, dtype: object

>  <hbond:TYR:89>  (63) 
hbond:TYR:89    0
hbond:TYR:89    0
Name: 61, dtype: object

>  <hbond:TYR:90>  (63) 
hbond:TYR:90    0
hbond:TYR:90    0
Name: 61, dtype: object

>  <hydroph_interaction:TYR:90>  (63) 
hydroph_interaction:TYR:90    0
hydroph_interaction:TYR:90    0
Name: 61, dtype: object

>  <pistack:TYR:90>  (63) 
pistack:TYR:90    0
pistack:TYR:90    0
Name: 61, dtype: object

>  <hbond:ARG:93>  (63) 
hbond:ARG:93    0
hbond:ARG:93    0
Name: 61, dtype: object

>  <saltbridge:ARG:93>  (63) 
saltbridge:ARG:93    0
saltbridge:ARG:93    0
Name: 61, dtype: object

>  <hydroph_interaction:ARG:93>  (63) 
hydroph_interaction:ARG:93    0
hydroph_interaction:ARG:93    0
Name: 61, dtype: object

>  <halogenbond:GLN:95>  (63) 
halogenbond:GLN:95    0
halogenbond:GLN:95    0
Name: 61, dtype: object

>  <hbond:GLN:95>  (63) 
hbond:GLN:95    0
hbond:GLN:95    0
Name: 61, dtype: object

>  <hydroph_interaction:GLN:95>  (63) 
hydroph_interaction:GLN:95    0
hydroph_interaction:GLN:95    0
Name: 61, dtype: object

>  <hydroph_interaction:LEU:98>  (63) 
hydroph_interaction:LEU:98    0
hydroph_interaction:LEU:98    0
Name: 61, dtype: object

>  <hydroph_interaction:LEU:100>  (63) 
hydroph_interaction:LEU:100    1
hydroph_interaction:LEU:100    1
Name: 61, dtype: object

>  <hbond:SER:105>  (63) 
hbond:SER:105    0
hbond:SER:105    0
Name: 61, dtype: object

>  <halogenbond:SER:105>  (63) 
halogenbond:SER:105    0
halogenbond:SER:105    0
Name: 61, dtype: object

>  <hydroph_interaction:PRO:107>  (63) 
hydroph_interaction:PRO:107    0
hydroph_interaction:PRO:107    0
Name: 61, dtype: object

>  <hbond:PRO:107>  (63) 
hbond:PRO:107    0
hbond:PRO:107    0
Name: 61, dtype: object

>  <halogenbond:PRO:107>  (63) 
halogenbond:PRO:107    0
halogenbond:PRO:107    0
Name: 61, dtype: object

>  <hbond:ASP:109>  (63) 
hbond:ASP:109    0
hbond:ASP:109    0
Name: 61, dtype: object

>  <hbond:CYS:110>  (63) 
hbond:CYS:110    0
hbond:CYS:110    0
Name: 61, dtype: object

>  <halogenbond:CYS:110>  (63) 
halogenbond:CYS:110    0
halogenbond:CYS:110    0
Name: 61, dtype: object

>  <hydroph_interaction:VAL:124>  (63) 
hydroph_interaction:VAL:124    0
hydroph_interaction:VAL:124    0
Name: 61, dtype: object

>  <hbond:SER:125>  (63) 
hbond:SER:125    0
hbond:SER:125    0
Name: 61, dtype: object

>  <halogenbond:SER:125>  (63) 
halogenbond:SER:125    0
halogenbond:SER:125    0
Name: 61, dtype: object

>  <hydroph_interaction:THR:126>  (63) 
hydroph_interaction:THR:126    0
hydroph_interaction:THR:126    0
Name: 61, dtype: object

>  <hbond:THR:126>  (63) 
hbond:THR:126    1
hbond:THR:126    1
Name: 61, dtype: object

>  <halogenbond:THR:126>  (63) 
halogenbond:THR:126    0
halogenbond:THR:126    0
Name: 61, dtype: object

>  <hbond:GLY:127>  (63) 
hbond:GLY:127    0
hbond:GLY:127    0
Name: 61, dtype: object

>  <halogenbond:GLY:127>  (63) 
halogenbond:GLY:127    0
halogenbond:GLY:127    0
Name: 61, dtype: object

>  <hbond:GLY:128>  (63) 
hbond:GLY:128    0
hbond:GLY:128    0
Name: 61, dtype: object

>  <hbond:ASN:129>  (63) 
hbond:ASN:129    0
hbond:ASN:129    0
Name: 61, dtype: object

>  <hydroph_interaction:ASN:129>  (63) 
hydroph_interaction:ASN:129    0
hydroph_interaction:ASN:129    0
Name: 61, dtype: object

>  <halogenbond:ASN:129>  (63) 
halogenbond:ASN:129    1
halogenbond:ASN:129    1
Name: 61, dtype: object

>  <hydroph_interaction:LEU:131>  (63) 
hydroph_interaction:LEU:131    0
hydroph_interaction:LEU:131    0
Name: 61, dtype: object

>  <hbond:LEU:131>  (63) 
hbond:LEU:131    0
hbond:LEU:131    0
Name: 61, dtype: object

>  <halogenbond:LEU:131>  (63) 
halogenbond:LEU:131    0
halogenbond:LEU:131    0
Name: 61, dtype: object

>  <hbond:VAL:132>  (63) 
hbond:VAL:132    0
hbond:VAL:132    0
Name: 61, dtype: object

$$$$
PV_006511642661
     RDKit          3D

 16 17  0  0  0  0  0  0  0  0999 V2000
   36.9168    8.9059   12.9322 N   0  0  0  0  0  0  0  0  0  0  0  0
   36.7266    9.6392   11.7422 C   0  0  0  0  0  0  0  0  0  0  0  0
   37.4331   10.8455   11.9081 C   0  0  0  0  0  0  0  0  0  0  0  0
   37.0335   11.5194   13.0189 C   0  0  0  0  0  0  0  0  0  0  0  0
   37.6275   12.6986   13.3425 C   0  0  0  0  0  0  0  0  0  0  0  0
   38.6323   13.1792   12.5093 C   0  0  0  0  0  0  0  0  0  0  0  0
   39.0359   12.4775   11.3663 C   0  0  0  0  0  0  0  0  0  0  0  0
   40.1537   13.0074   10.4464 C   0  0  0  0  0  0  0  0  0  0  0  0
   41.0614   13.3364   11.6533 C   0  0  0  0  0  0  0  0  0  0  0  0
   41.6076   14.4757   10.8069 C   0  0  0  0  0  0  0  0  0  0  0  0
   42.9725   14.4387   10.1930 C   0  0  0  0  0  0  0  0  0  0  0  0
   43.4497   15.5820    9.3594 C   0  0  0  0  0  0  0  0  0  0  0  0
   42.5854   16.6618    9.1827 C   0  0  0  0  0  0  0  0  0  0  0  0
   41.3044   16.6683    9.7767 C   0  0  0  0  0  0  0  0  0  0  0  0
   40.8324   15.6109   10.5659 C   0  0  0  0  0  0  0  0  0  0  0  0
   38.4184   11.2853   11.0606 C   0  0  0  0  0  0  0  0  0  0  0  0
  1  2  1  0
  2  3  1  0
  3  4  2  0
  4  5  1  0
  5  6  2  0
  6  7  1  0
  7  8  1  0
  8  9  1  0
  9 10  1  0
 10 11  2  0
 11 12  1  0
 12 13  2  0
 13 14  1  0
 14 15  2  0
  7 16  2  0
 16  3  1  0
 15 10  1  0
A    1
 N1 
A    2
 C1 
A    3
 C2 
A    4
 C3 
A    5
 C4 
A    6
 C5 
A    7
 C6 
A    8
 C7 
A    9
 C8 
A   10
 C9 
A   11
 C10
A   12
 C11
A   13
 C12
A   14
 C13
A   15
 C14
A   16
 C15
M  END
>  <ref_pdb>  (64) 
Ax0310a

>  <ref_mols>  (64) 
Ax0473a,Ax0911a

>  <original SMILES>  (64) 
NCc1cccc(CCc2ccccc2)c1

>  <rationale>  (64) 
info hbond:V132; hydroph_interaction:V84+E85+I82+L100+L131+F83; 

>  <intxn_cluster_10>  (64) 
8

>  <intxn_cluster_rank_10>  (64) 
10

>  <N_interactions>  (64) 
7

>  <∆∆G>  (64) 
-6.645165

>  <$/mg>  (64) 
0.0

>  <comRMSD>  (64) 
0.818038

>  <N_rotatable_bonds>  (64) 
5

>  <deep_P1_sidechain>  (64) 
False

>  <farthest_distance_to_substrate>  (64) 
4.969556

>  <hbond:SER:7>  (64) 
hbond:SER:7    0
hbond:SER:7    0
Name: 62, dtype: object

>  <hydroph_interaction:ASN:19>  (64) 
hydroph_interaction:ASN:19    0
hydroph_interaction:ASN:19    0
Name: 62, dtype: object

>  <halogenbond:ASN:19>  (64) 
halogenbond:ASN:19    0
halogenbond:ASN:19    0
Name: 62, dtype: object

>  <hbond:ARG:20>  (64) 
hbond:ARG:20    0
hbond:ARG:20    0
Name: 62, dtype: object

>  <hydroph_interaction:ARG:20>  (64) 
hydroph_interaction:ARG:20    0
hydroph_interaction:ARG:20    0
Name: 62, dtype: object

>  <hbond:HIS:21>  (64) 
hbond:HIS:21    0
hbond:HIS:21    0
Name: 62, dtype: object

>  <hydroph_interaction:HIS:21>  (64) 
hydroph_interaction:HIS:21    0
hydroph_interaction:HIS:21    0
Name: 62, dtype: object

>  <saltbridge:HIS:21>  (64) 
saltbridge:HIS:21    0
saltbridge:HIS:21    0
Name: 62, dtype: object

>  <pistack:HIS:21>  (64) 
pistack:HIS:21    0
pistack:HIS:21    0
Name: 62, dtype: object

>  <pication:HIS:21>  (64) 
pication:HIS:21    0
pication:HIS:21    0
Name: 62, dtype: object

>  <hydroph_interaction:LEU:22>  (64) 
hydroph_interaction:LEU:22    0
hydroph_interaction:LEU:22    0
Name: 62, dtype: object

>  <hbond:SER:36>  (64) 
hbond:SER:36    0
hbond:SER:36    0
Name: 62, dtype: object

>  <hbond:ASP:39>  (64) 
hbond:ASP:39    0
hbond:ASP:39    0
Name: 62, dtype: object

>  <saltbridge:ASP:39>  (64) 
saltbridge:ASP:39    0
saltbridge:ASP:39    0
Name: 62, dtype: object

>  <hydroph_interaction:ASP:39>  (64) 
hydroph_interaction:ASP:39    0
hydroph_interaction:ASP:39    0
Name: 62, dtype: object

>  <halogenbond:ASP:39>  (64) 
halogenbond:ASP:39    0
halogenbond:ASP:39    0
Name: 62, dtype: object

>  <hydroph_interaction:ILE:82>  (64) 
hydroph_interaction:ILE:82    1
hydroph_interaction:ILE:82    1
Name: 62, dtype: object

>  <hydroph_interaction:PHE:83>  (64) 
hydroph_interaction:PHE:83    1
hydroph_interaction:PHE:83    1
Name: 62, dtype: object

>  <hbond:PHE:83>  (64) 
hbond:PHE:83    0
hbond:PHE:83    0
Name: 62, dtype: object

>  <halogenbond:PHE:83>  (64) 
halogenbond:PHE:83    0
halogenbond:PHE:83    0
Name: 62, dtype: object

>  <hydroph_interaction:VAL:84>  (64) 
hydroph_interaction:VAL:84    1
hydroph_interaction:VAL:84    1
Name: 62, dtype: object

>  <hydroph_interaction:GLU:85>  (64) 
hydroph_interaction:GLU:85    1
hydroph_interaction:GLU:85    1
Name: 62, dtype: object

>  <hbond:GLU:85>  (64) 
hbond:GLU:85    0
hbond:GLU:85    0
Name: 62, dtype: object

>  <halogenbond:GLU:85>  (64) 
halogenbond:GLU:85    0
halogenbond:GLU:85    0
Name: 62, dtype: object

>  <halogenbond:ALA:86>  (64) 
halogenbond:ALA:86    0
halogenbond:ALA:86    0
Name: 62, dtype: object

>  <hbond:SER:87>  (64) 
hbond:SER:87    0
hbond:SER:87    0
Name: 62, dtype: object

>  <halogenbond:SER:87>  (64) 
halogenbond:SER:87    0
halogenbond:SER:87    0
Name: 62, dtype: object

>  <hbond:GLU:88>  (64) 
hbond:GLU:88    0
hbond:GLU:88    0
Name: 62, dtype: object

>  <halogenbond:GLU:88>  (64) 
halogenbond:GLU:88    0
halogenbond:GLU:88    0
Name: 62, dtype: object

>  <hydroph_interaction:TYR:89>  (64) 
hydroph_interaction:TYR:89    0
hydroph_interaction:TYR:89    0
Name: 62, dtype: object

>  <pistack:TYR:89>  (64) 
pistack:TYR:89    0
pistack:TYR:89    0
Name: 62, dtype: object

>  <hbond:TYR:89>  (64) 
hbond:TYR:89    0
hbond:TYR:89    0
Name: 62, dtype: object

>  <hbond:TYR:90>  (64) 
hbond:TYR:90    0
hbond:TYR:90    0
Name: 62, dtype: object

>  <hydroph_interaction:TYR:90>  (64) 
hydroph_interaction:TYR:90    0
hydroph_interaction:TYR:90    0
Name: 62, dtype: object

>  <pistack:TYR:90>  (64) 
pistack:TYR:90    0
pistack:TYR:90    0
Name: 62, dtype: object

>  <hbond:ARG:93>  (64) 
hbond:ARG:93    0
hbond:ARG:93    0
Name: 62, dtype: object

>  <saltbridge:ARG:93>  (64) 
saltbridge:ARG:93    0
saltbridge:ARG:93    0
Name: 62, dtype: object

>  <hydroph_interaction:ARG:93>  (64) 
hydroph_interaction:ARG:93    0
hydroph_interaction:ARG:93    0
Name: 62, dtype: object

>  <halogenbond:GLN:95>  (64) 
halogenbond:GLN:95    0
halogenbond:GLN:95    0
Name: 62, dtype: object

>  <hbond:GLN:95>  (64) 
hbond:GLN:95    0
hbond:GLN:95    0
Name: 62, dtype: object

>  <hydroph_interaction:GLN:95>  (64) 
hydroph_interaction:GLN:95    0
hydroph_interaction:GLN:95    0
Name: 62, dtype: object

>  <hydroph_interaction:LEU:98>  (64) 
hydroph_interaction:LEU:98    0
hydroph_interaction:LEU:98    0
Name: 62, dtype: object

>  <hydroph_interaction:LEU:100>  (64) 
hydroph_interaction:LEU:100    1
hydroph_interaction:LEU:100    1
Name: 62, dtype: object

>  <hbond:SER:105>  (64) 
hbond:SER:105    0
hbond:SER:105    0
Name: 62, dtype: object

>  <halogenbond:SER:105>  (64) 
halogenbond:SER:105    0
halogenbond:SER:105    0
Name: 62, dtype: object

>  <hydroph_interaction:PRO:107>  (64) 
hydroph_interaction:PRO:107    0
hydroph_interaction:PRO:107    0
Name: 62, dtype: object

>  <hbond:PRO:107>  (64) 
hbond:PRO:107    0
hbond:PRO:107    0
Name: 62, dtype: object

>  <halogenbond:PRO:107>  (64) 
halogenbond:PRO:107    0
halogenbond:PRO:107    0
Name: 62, dtype: object

>  <hbond:ASP:109>  (64) 
hbond:ASP:109    0
hbond:ASP:109    0
Name: 62, dtype: object

>  <hbond:CYS:110>  (64) 
hbond:CYS:110    0
hbond:CYS:110    0
Name: 62, dtype: object

>  <halogenbond:CYS:110>  (64) 
halogenbond:CYS:110    0
halogenbond:CYS:110    0
Name: 62, dtype: object

>  <hydroph_interaction:VAL:124>  (64) 
hydroph_interaction:VAL:124    0
hydroph_interaction:VAL:124    0
Name: 62, dtype: object

>  <hbond:SER:125>  (64) 
hbond:SER:125    0
hbond:SER:125    0
Name: 62, dtype: object

>  <halogenbond:SER:125>  (64) 
halogenbond:SER:125    0
halogenbond:SER:125    0
Name: 62, dtype: object

>  <hydroph_interaction:THR:126>  (64) 
hydroph_interaction:THR:126    0
hydroph_interaction:THR:126    0
Name: 62, dtype: object

>  <hbond:THR:126>  (64) 
hbond:THR:126    0
hbond:THR:126    0
Name: 62, dtype: object

>  <halogenbond:THR:126>  (64) 
halogenbond:THR:126    0
halogenbond:THR:126    0
Name: 62, dtype: object

>  <hbond:GLY:127>  (64) 
hbond:GLY:127    0
hbond:GLY:127    0
Name: 62, dtype: object

>  <halogenbond:GLY:127>  (64) 
halogenbond:GLY:127    0
halogenbond:GLY:127    0
Name: 62, dtype: object

>  <hbond:GLY:128>  (64) 
hbond:GLY:128    0
hbond:GLY:128    0
Name: 62, dtype: object

>  <hbond:ASN:129>  (64) 
hbond:ASN:129    0
hbond:ASN:129    0
Name: 62, dtype: object

>  <hydroph_interaction:ASN:129>  (64) 
hydroph_interaction:ASN:129    0
hydroph_interaction:ASN:129    0
Name: 62, dtype: object

>  <halogenbond:ASN:129>  (64) 
halogenbond:ASN:129    0
halogenbond:ASN:129    0
Name: 62, dtype: object

>  <hydroph_interaction:LEU:131>  (64) 
hydroph_interaction:LEU:131    1
hydroph_interaction:LEU:131    1
Name: 62, dtype: object

>  <hbond:LEU:131>  (64) 
hbond:LEU:131    0
hbond:LEU:131    0
Name: 62, dtype: object

>  <halogenbond:LEU:131>  (64) 
halogenbond:LEU:131    0
halogenbond:LEU:131    0
Name: 62, dtype: object

>  <hbond:VAL:132>  (64) 
hbond:VAL:132    1
hbond:VAL:132    1
Name: 62, dtype: object

$$$$
PV_004477244232
     RDKit          3D

 12 11  0  0  0  0  0  0  0  0999 V2000
   41.0108   15.9401   11.2606 C   0  0  0  0  0  0  0  0  0  0  0  0
   41.2872   14.4935   11.6101 C   0  0  0  0  0  0  0  0  0  0  0  0
   40.2765   13.2954   10.7408 S   0  0  0  0  0  6  0  0  0  0  0  0
   39.1945   13.9956   10.0467 O   0  0  0  0  0  0  0  0  0  0  0  0
   41.1735   12.3742   10.0554 O   0  0  0  0  0  0  0  0  0  0  0  0
   39.4929   12.4014   12.0639 C   0  0  0  0  0  0  0  0  0  0  0  0
   38.2050   13.0948   12.4933 C   0  0  0  0  0  0  0  0  0  0  0  0
   37.3292   12.1641   13.2972 C   0  0  0  0  0  0  0  0  0  0  0  0
   36.5651   11.3921   12.3898 N   0  0  0  0  0  0  0  0  0  0  0  0
   37.0935   10.4319   11.6660 C   0  0  0  0  0  0  0  0  0  0  0  0
   37.8542   10.5684   10.6510 N   0  0  0  0  0  0  0  0  0  0  0  0
   36.7227    9.2495   12.1552 N   0  0  0  0  0  0  0  0  0  0  0  0
  1  2  1  0
  2  3  1  0
  3  4  2  0
  3  5  2  0
  3  6  1  0
  6  7  1  0
  7  8  1  0
  8  9  1  0
  9 10  1  0
 10 11  2  3
 10 12  1  0
A    1
 C1 
A    2
 C2 
A    3
 S1 
A    4
 O1 
A    5
 O2 
A    6
 C3 
A    7
 C4 
A    8
 C5 
A    9
 N1 
A   10
 C6 
A   11
 N2 
A   12
 N3 
M  END
>  <ref_pdb>  (65) 
Ax0310a

>  <ref_mols>  (65) 
Ax0473a,Ax0554a

>  <original SMILES>  (65) 
CCS(=O)(=O)CCCNC(=N)N

>  <rationale>  (65) 
info hbond:T126+G128+L131; hydroph_interaction:V84+E85+F83; 

>  <intxn_cluster_10>  (65) 
4

>  <intxn_cluster_rank_10>  (65) 
5

>  <N_interactions>  (65) 
6

>  <∆∆G>  (65) 
-1.996407

>  <$/mg>  (65) 
0.0

>  <comRMSD>  (65) 
0.611135

>  <N_rotatable_bonds>  (65) 
6

>  <deep_P1_sidechain>  (65) 
False

>  <farthest_distance_to_substrate>  (65) 
4.198789

>  <hbond:SER:7>  (65) 
hbond:SER:7    0
hbond:SER:7    0
Name: 63, dtype: object

>  <hydroph_interaction:ASN:19>  (65) 
hydroph_interaction:ASN:19    0
hydroph_interaction:ASN:19    0
Name: 63, dtype: object

>  <halogenbond:ASN:19>  (65) 
halogenbond:ASN:19    0
halogenbond:ASN:19    0
Name: 63, dtype: object

>  <hbond:ARG:20>  (65) 
hbond:ARG:20    0
hbond:ARG:20    0
Name: 63, dtype: object

>  <hydroph_interaction:ARG:20>  (65) 
hydroph_interaction:ARG:20    0
hydroph_interaction:ARG:20    0
Name: 63, dtype: object

>  <hbond:HIS:21>  (65) 
hbond:HIS:21    0
hbond:HIS:21    0
Name: 63, dtype: object

>  <hydroph_interaction:HIS:21>  (65) 
hydroph_interaction:HIS:21    0
hydroph_interaction:HIS:21    0
Name: 63, dtype: object

>  <saltbridge:HIS:21>  (65) 
saltbridge:HIS:21    0
saltbridge:HIS:21    0
Name: 63, dtype: object

>  <pistack:HIS:21>  (65) 
pistack:HIS:21    0
pistack:HIS:21    0
Name: 63, dtype: object

>  <pication:HIS:21>  (65) 
pication:HIS:21    0
pication:HIS:21    0
Name: 63, dtype: object

>  <hydroph_interaction:LEU:22>  (65) 
hydroph_interaction:LEU:22    0
hydroph_interaction:LEU:22    0
Name: 63, dtype: object

>  <hbond:SER:36>  (65) 
hbond:SER:36    0
hbond:SER:36    0
Name: 63, dtype: object

>  <hbond:ASP:39>  (65) 
hbond:ASP:39    0
hbond:ASP:39    0
Name: 63, dtype: object

>  <saltbridge:ASP:39>  (65) 
saltbridge:ASP:39    0
saltbridge:ASP:39    0
Name: 63, dtype: object

>  <hydroph_interaction:ASP:39>  (65) 
hydroph_interaction:ASP:39    0
hydroph_interaction:ASP:39    0
Name: 63, dtype: object

>  <halogenbond:ASP:39>  (65) 
halogenbond:ASP:39    0
halogenbond:ASP:39    0
Name: 63, dtype: object

>  <hydroph_interaction:ILE:82>  (65) 
hydroph_interaction:ILE:82    0
hydroph_interaction:ILE:82    0
Name: 63, dtype: object

>  <hydroph_interaction:PHE:83>  (65) 
hydroph_interaction:PHE:83    1
hydroph_interaction:PHE:83    1
Name: 63, dtype: object

>  <hbond:PHE:83>  (65) 
hbond:PHE:83    0
hbond:PHE:83    0
Name: 63, dtype: object

>  <halogenbond:PHE:83>  (65) 
halogenbond:PHE:83    0
halogenbond:PHE:83    0
Name: 63, dtype: object

>  <hydroph_interaction:VAL:84>  (65) 
hydroph_interaction:VAL:84    1
hydroph_interaction:VAL:84    1
Name: 63, dtype: object

>  <hydroph_interaction:GLU:85>  (65) 
hydroph_interaction:GLU:85    1
hydroph_interaction:GLU:85    1
Name: 63, dtype: object

>  <hbond:GLU:85>  (65) 
hbond:GLU:85    0
hbond:GLU:85    0
Name: 63, dtype: object

>  <halogenbond:GLU:85>  (65) 
halogenbond:GLU:85    0
halogenbond:GLU:85    0
Name: 63, dtype: object

>  <halogenbond:ALA:86>  (65) 
halogenbond:ALA:86    0
halogenbond:ALA:86    0
Name: 63, dtype: object

>  <hbond:SER:87>  (65) 
hbond:SER:87    0
hbond:SER:87    0
Name: 63, dtype: object

>  <halogenbond:SER:87>  (65) 
halogenbond:SER:87    0
halogenbond:SER:87    0
Name: 63, dtype: object

>  <hbond:GLU:88>  (65) 
hbond:GLU:88    0
hbond:GLU:88    0
Name: 63, dtype: object

>  <halogenbond:GLU:88>  (65) 
halogenbond:GLU:88    0
halogenbond:GLU:88    0
Name: 63, dtype: object

>  <hydroph_interaction:TYR:89>  (65) 
hydroph_interaction:TYR:89    0
hydroph_interaction:TYR:89    0
Name: 63, dtype: object

>  <pistack:TYR:89>  (65) 
pistack:TYR:89    0
pistack:TYR:89    0
Name: 63, dtype: object

>  <hbond:TYR:89>  (65) 
hbond:TYR:89    0
hbond:TYR:89    0
Name: 63, dtype: object

>  <hbond:TYR:90>  (65) 
hbond:TYR:90    0
hbond:TYR:90    0
Name: 63, dtype: object

>  <hydroph_interaction:TYR:90>  (65) 
hydroph_interaction:TYR:90    0
hydroph_interaction:TYR:90    0
Name: 63, dtype: object

>  <pistack:TYR:90>  (65) 
pistack:TYR:90    0
pistack:TYR:90    0
Name: 63, dtype: object

>  <hbond:ARG:93>  (65) 
hbond:ARG:93    0
hbond:ARG:93    0
Name: 63, dtype: object

>  <saltbridge:ARG:93>  (65) 
saltbridge:ARG:93    0
saltbridge:ARG:93    0
Name: 63, dtype: object

>  <hydroph_interaction:ARG:93>  (65) 
hydroph_interaction:ARG:93    0
hydroph_interaction:ARG:93    0
Name: 63, dtype: object

>  <halogenbond:GLN:95>  (65) 
halogenbond:GLN:95    0
halogenbond:GLN:95    0
Name: 63, dtype: object

>  <hbond:GLN:95>  (65) 
hbond:GLN:95    0
hbond:GLN:95    0
Name: 63, dtype: object

>  <hydroph_interaction:GLN:95>  (65) 
hydroph_interaction:GLN:95    0
hydroph_interaction:GLN:95    0
Name: 63, dtype: object

>  <hydroph_interaction:LEU:98>  (65) 
hydroph_interaction:LEU:98    0
hydroph_interaction:LEU:98    0
Name: 63, dtype: object

>  <hydroph_interaction:LEU:100>  (65) 
hydroph_interaction:LEU:100    0
hydroph_interaction:LEU:100    0
Name: 63, dtype: object

>  <hbond:SER:105>  (65) 
hbond:SER:105    0
hbond:SER:105    0
Name: 63, dtype: object

>  <halogenbond:SER:105>  (65) 
halogenbond:SER:105    0
halogenbond:SER:105    0
Name: 63, dtype: object

>  <hydroph_interaction:PRO:107>  (65) 
hydroph_interaction:PRO:107    0
hydroph_interaction:PRO:107    0
Name: 63, dtype: object

>  <hbond:PRO:107>  (65) 
hbond:PRO:107    0
hbond:PRO:107    0
Name: 63, dtype: object

>  <halogenbond:PRO:107>  (65) 
halogenbond:PRO:107    0
halogenbond:PRO:107    0
Name: 63, dtype: object

>  <hbond:ASP:109>  (65) 
hbond:ASP:109    0
hbond:ASP:109    0
Name: 63, dtype: object

>  <hbond:CYS:110>  (65) 
hbond:CYS:110    0
hbond:CYS:110    0
Name: 63, dtype: object

>  <halogenbond:CYS:110>  (65) 
halogenbond:CYS:110    0
halogenbond:CYS:110    0
Name: 63, dtype: object

>  <hydroph_interaction:VAL:124>  (65) 
hydroph_interaction:VAL:124    0
hydroph_interaction:VAL:124    0
Name: 63, dtype: object

>  <hbond:SER:125>  (65) 
hbond:SER:125    0
hbond:SER:125    0
Name: 63, dtype: object

>  <halogenbond:SER:125>  (65) 
halogenbond:SER:125    0
halogenbond:SER:125    0
Name: 63, dtype: object

>  <hydroph_interaction:THR:126>  (65) 
hydroph_interaction:THR:126    0
hydroph_interaction:THR:126    0
Name: 63, dtype: object

>  <hbond:THR:126>  (65) 
hbond:THR:126    1
hbond:THR:126    1
Name: 63, dtype: object

>  <halogenbond:THR:126>  (65) 
halogenbond:THR:126    0
halogenbond:THR:126    0
Name: 63, dtype: object

>  <hbond:GLY:127>  (65) 
hbond:GLY:127    0
hbond:GLY:127    0
Name: 63, dtype: object

>  <halogenbond:GLY:127>  (65) 
halogenbond:GLY:127    0
halogenbond:GLY:127    0
Name: 63, dtype: object

>  <hbond:GLY:128>  (65) 
hbond:GLY:128    1
hbond:GLY:128    1
Name: 63, dtype: object

>  <hbond:ASN:129>  (65) 
hbond:ASN:129    0
hbond:ASN:129    0
Name: 63, dtype: object

>  <hydroph_interaction:ASN:129>  (65) 
hydroph_interaction:ASN:129    0
hydroph_interaction:ASN:129    0
Name: 63, dtype: object

>  <halogenbond:ASN:129>  (65) 
halogenbond:ASN:129    0
halogenbond:ASN:129    0
Name: 63, dtype: object

>  <hydroph_interaction:LEU:131>  (65) 
hydroph_interaction:LEU:131    0
hydroph_interaction:LEU:131    0
Name: 63, dtype: object

>  <hbond:LEU:131>  (65) 
hbond:LEU:131    1
hbond:LEU:131    1
Name: 63, dtype: object

>  <halogenbond:LEU:131>  (65) 
halogenbond:LEU:131    0
halogenbond:LEU:131    0
Name: 63, dtype: object

>  <hbond:VAL:132>  (65) 
hbond:VAL:132    0
hbond:VAL:132    0
Name: 63, dtype: object

$$$$
Z5537254692
     RDKit          3D

 17 17  0  0  0  0  0  0  0  0999 V2000
   32.9296   18.5160   11.0253 C   0  0  0  0  0  0  0  0  0  0  0  0
   32.2617   17.3688   11.6018 O   0  0  0  0  0  0  0  0  0  0  0  0
   31.8206   16.6410   10.5587 C   0  0  0  0  0  0  0  0  0  0  0  0
   32.1382   17.0617    9.5011 O   0  0  0  0  0  0  0  0  0  0  0  0
   30.9893   15.3462   10.6503 C   0  0  0  0  0  0  0  0  0  0  0  0
   30.0266   15.0849    9.6169 C   0  0  0  0  0  0  0  0  0  0  0  0
   30.1422   13.9110    8.8505 C   0  0  0  0  0  0  0  0  0  0  0  0
   28.9789   13.2575    8.4659 C   0  0  0  0  0  0  0  0  0  0  0  0
   31.3432   13.3933    8.5205 C   0  0  0  0  0  0  0  0  0  0  0  0
   31.6219   12.1966    7.8496 C   0  0  0  0  0  0  0  0  0  0  0  0
   30.8955   11.0847    8.2634 N   0  0  0  0  0  0  0  0  0  0  0  0
   31.0861    9.8704    7.7666 C   0  0  0  0  0  0  0  0  0  0  0  0
   30.3269    8.6824    8.2485 C   0  0  0  0  0  0  0  0  0  0  0  0
   32.1096    9.6595    6.6881 C   0  0  0  0  0  0  0  0  0  0  0  0
   32.8140   10.7734    6.2699 C   0  0  0  0  0  0  0  0  0  0  0  0
   32.5986   12.0526    6.8326 C   0  0  0  0  0  0  0  0  0  0  0  0
   33.4250   13.1874    6.3363 C   0  0  0  0  0  0  0  0  0  0  0  0
  1  2  1  0
  2  3  1  0
  3  4  2  0
  3  5  1  0
  5  6  1  0
  6  7  1  0
  7  8  1  0
  7  9  2  3
  9 10  1  0
 10 11  2  0
 11 12  1  0
 12 13  1  0
 12 14  2  0
 14 15  1  0
 15 16  2  0
 16 17  1  0
 16 10  1  0
A    1
 C1 
A    2
 O1 
A    3
 C2 
A    4
 O2 
A    5
 C3 
A    6
 C4 
A    7
 C5 
A    8
 C6 
A    9
 C7 
A   10
 C8 
A   11
 N1 
A   12
 C9 
A   13
 C10
A   14
 C11
A   15
 C12
A   16
 C13
A   17
 C14
M  END
>  <ref_pdb>  (66) 
Ax0310a

>  <ref_mols>  (66) 
Ax0554a,Ax0732a

>  <original SMILES>  (66) 
COC(=O)CCC(C)=Cc1nc(C)ccc1C

>  <rationale>  (66) 
info hydroph_interaction:V124+Y90+T126; saltbridge:R93; 

>  <intxn_cluster_10>  (66) 
4

>  <intxn_cluster_rank_10>  (66) 
4

>  <N_interactions>  (66) 
4

>  <∆∆G>  (66) 
-8.56223

>  <$/mg>  (66) 
244.5

>  <comRMSD>  (66) 
0.936827

>  <N_rotatable_bonds>  (66) 
8

>  <deep_P1_sidechain>  (66) 
True

>  <farthest_distance_to_substrate>  (66) 
2.217292

>  <hbond:SER:7>  (66) 
hbond:SER:7    0
hbond:SER:7    0
Name: 64, dtype: object

>  <hydroph_interaction:ASN:19>  (66) 
hydroph_interaction:ASN:19    0
hydroph_interaction:ASN:19    0
Name: 64, dtype: object

>  <halogenbond:ASN:19>  (66) 
halogenbond:ASN:19    0
halogenbond:ASN:19    0
Name: 64, dtype: object

>  <hbond:ARG:20>  (66) 
hbond:ARG:20    0
hbond:ARG:20    0
Name: 64, dtype: object

>  <hydroph_interaction:ARG:20>  (66) 
hydroph_interaction:ARG:20    0
hydroph_interaction:ARG:20    0
Name: 64, dtype: object

>  <hbond:HIS:21>  (66) 
hbond:HIS:21    0
hbond:HIS:21    0
Name: 64, dtype: object

>  <hydroph_interaction:HIS:21>  (66) 
hydroph_interaction:HIS:21    0
hydroph_interaction:HIS:21    0
Name: 64, dtype: object

>  <saltbridge:HIS:21>  (66) 
saltbridge:HIS:21    0
saltbridge:HIS:21    0
Name: 64, dtype: object

>  <pistack:HIS:21>  (66) 
pistack:HIS:21    0
pistack:HIS:21    0
Name: 64, dtype: object

>  <pication:HIS:21>  (66) 
pication:HIS:21    0
pication:HIS:21    0
Name: 64, dtype: object

>  <hydroph_interaction:LEU:22>  (66) 
hydroph_interaction:LEU:22    0
hydroph_interaction:LEU:22    0
Name: 64, dtype: object

>  <hbond:SER:36>  (66) 
hbond:SER:36    0
hbond:SER:36    0
Name: 64, dtype: object

>  <hbond:ASP:39>  (66) 
hbond:ASP:39    0
hbond:ASP:39    0
Name: 64, dtype: object

>  <saltbridge:ASP:39>  (66) 
saltbridge:ASP:39    0
saltbridge:ASP:39    0
Name: 64, dtype: object

>  <hydroph_interaction:ASP:39>  (66) 
hydroph_interaction:ASP:39    0
hydroph_interaction:ASP:39    0
Name: 64, dtype: object

>  <halogenbond:ASP:39>  (66) 
halogenbond:ASP:39    0
halogenbond:ASP:39    0
Name: 64, dtype: object

>  <hydroph_interaction:ILE:82>  (66) 
hydroph_interaction:ILE:82    0
hydroph_interaction:ILE:82    0
Name: 64, dtype: object

>  <hydroph_interaction:PHE:83>  (66) 
hydroph_interaction:PHE:83    0
hydroph_interaction:PHE:83    0
Name: 64, dtype: object

>  <hbond:PHE:83>  (66) 
hbond:PHE:83    0
hbond:PHE:83    0
Name: 64, dtype: object

>  <halogenbond:PHE:83>  (66) 
halogenbond:PHE:83    0
halogenbond:PHE:83    0
Name: 64, dtype: object

>  <hydroph_interaction:VAL:84>  (66) 
hydroph_interaction:VAL:84    0
hydroph_interaction:VAL:84    0
Name: 64, dtype: object

>  <hydroph_interaction:GLU:85>  (66) 
hydroph_interaction:GLU:85    0
hydroph_interaction:GLU:85    0
Name: 64, dtype: object

>  <hbond:GLU:85>  (66) 
hbond:GLU:85    0
hbond:GLU:85    0
Name: 64, dtype: object

>  <halogenbond:GLU:85>  (66) 
halogenbond:GLU:85    0
halogenbond:GLU:85    0
Name: 64, dtype: object

>  <halogenbond:ALA:86>  (66) 
halogenbond:ALA:86    0
halogenbond:ALA:86    0
Name: 64, dtype: object

>  <hbond:SER:87>  (66) 
hbond:SER:87    0
hbond:SER:87    0
Name: 64, dtype: object

>  <halogenbond:SER:87>  (66) 
halogenbond:SER:87    0
halogenbond:SER:87    0
Name: 64, dtype: object

>  <hbond:GLU:88>  (66) 
hbond:GLU:88    0
hbond:GLU:88    0
Name: 64, dtype: object

>  <halogenbond:GLU:88>  (66) 
halogenbond:GLU:88    0
halogenbond:GLU:88    0
Name: 64, dtype: object

>  <hydroph_interaction:TYR:89>  (66) 
hydroph_interaction:TYR:89    0
hydroph_interaction:TYR:89    0
Name: 64, dtype: object

>  <pistack:TYR:89>  (66) 
pistack:TYR:89    0
pistack:TYR:89    0
Name: 64, dtype: object

>  <hbond:TYR:89>  (66) 
hbond:TYR:89    0
hbond:TYR:89    0
Name: 64, dtype: object

>  <hbond:TYR:90>  (66) 
hbond:TYR:90    0
hbond:TYR:90    0
Name: 64, dtype: object

>  <hydroph_interaction:TYR:90>  (66) 
hydroph_interaction:TYR:90    1
hydroph_interaction:TYR:90    1
Name: 64, dtype: object

>  <pistack:TYR:90>  (66) 
pistack:TYR:90    0
pistack:TYR:90    0
Name: 64, dtype: object

>  <hbond:ARG:93>  (66) 
hbond:ARG:93    0
hbond:ARG:93    0
Name: 64, dtype: object

>  <saltbridge:ARG:93>  (66) 
saltbridge:ARG:93    1
saltbridge:ARG:93    1
Name: 64, dtype: object

>  <hydroph_interaction:ARG:93>  (66) 
hydroph_interaction:ARG:93    0
hydroph_interaction:ARG:93    0
Name: 64, dtype: object

>  <halogenbond:GLN:95>  (66) 
halogenbond:GLN:95    0
halogenbond:GLN:95    0
Name: 64, dtype: object

>  <hbond:GLN:95>  (66) 
hbond:GLN:95    0
hbond:GLN:95    0
Name: 64, dtype: object

>  <hydroph_interaction:GLN:95>  (66) 
hydroph_interaction:GLN:95    0
hydroph_interaction:GLN:95    0
Name: 64, dtype: object

>  <hydroph_interaction:LEU:98>  (66) 
hydroph_interaction:LEU:98    0
hydroph_interaction:LEU:98    0
Name: 64, dtype: object

>  <hydroph_interaction:LEU:100>  (66) 
hydroph_interaction:LEU:100    0
hydroph_interaction:LEU:100    0
Name: 64, dtype: object

>  <hbond:SER:105>  (66) 
hbond:SER:105    0
hbond:SER:105    0
Name: 64, dtype: object

>  <halogenbond:SER:105>  (66) 
halogenbond:SER:105    0
halogenbond:SER:105    0
Name: 64, dtype: object

>  <hydroph_interaction:PRO:107>  (66) 
hydroph_interaction:PRO:107    0
hydroph_interaction:PRO:107    0
Name: 64, dtype: object

>  <hbond:PRO:107>  (66) 
hbond:PRO:107    0
hbond:PRO:107    0
Name: 64, dtype: object

>  <halogenbond:PRO:107>  (66) 
halogenbond:PRO:107    0
halogenbond:PRO:107    0
Name: 64, dtype: object

>  <hbond:ASP:109>  (66) 
hbond:ASP:109    0
hbond:ASP:109    0
Name: 64, dtype: object

>  <hbond:CYS:110>  (66) 
hbond:CYS:110    0
hbond:CYS:110    0
Name: 64, dtype: object

>  <halogenbond:CYS:110>  (66) 
halogenbond:CYS:110    0
halogenbond:CYS:110    0
Name: 64, dtype: object

>  <hydroph_interaction:VAL:124>  (66) 
hydroph_interaction:VAL:124    1
hydroph_interaction:VAL:124    1
Name: 64, dtype: object

>  <hbond:SER:125>  (66) 
hbond:SER:125    0
hbond:SER:125    0
Name: 64, dtype: object

>  <halogenbond:SER:125>  (66) 
halogenbond:SER:125    0
halogenbond:SER:125    0
Name: 64, dtype: object

>  <hydroph_interaction:THR:126>  (66) 
hydroph_interaction:THR:126    1
hydroph_interaction:THR:126    1
Name: 64, dtype: object

>  <hbond:THR:126>  (66) 
hbond:THR:126    0
hbond:THR:126    0
Name: 64, dtype: object

>  <halogenbond:THR:126>  (66) 
halogenbond:THR:126    0
halogenbond:THR:126    0
Name: 64, dtype: object

>  <hbond:GLY:127>  (66) 
hbond:GLY:127    0
hbond:GLY:127    0
Name: 64, dtype: object

>  <halogenbond:GLY:127>  (66) 
halogenbond:GLY:127    0
halogenbond:GLY:127    0
Name: 64, dtype: object

>  <hbond:GLY:128>  (66) 
hbond:GLY:128    0
hbond:GLY:128    0
Name: 64, dtype: object

>  <hbond:ASN:129>  (66) 
hbond:ASN:129    0
hbond:ASN:129    0
Name: 64, dtype: object

>  <hydroph_interaction:ASN:129>  (66) 
hydroph_interaction:ASN:129    0
hydroph_interaction:ASN:129    0
Name: 64, dtype: object

>  <halogenbond:ASN:129>  (66) 
halogenbond:ASN:129    0
halogenbond:ASN:129    0
Name: 64, dtype: object

>  <hydroph_interaction:LEU:131>  (66) 
hydroph_interaction:LEU:131    0
hydroph_interaction:LEU:131    0
Name: 64, dtype: object

>  <hbond:LEU:131>  (66) 
hbond:LEU:131    0
hbond:LEU:131    0
Name: 64, dtype: object

>  <halogenbond:LEU:131>  (66) 
halogenbond:LEU:131    0
halogenbond:LEU:131    0
Name: 64, dtype: object

>  <hbond:VAL:132>  (66) 
hbond:VAL:132    0
hbond:VAL:132    0
Name: 64, dtype: object

$$$$
PV_004821825506
     RDKit          3D

 12 12  0  0  0  0  0  0  0  0999 V2000
   38.6507   12.6263    8.8032 C   0  0  0  0  0  0  0  0  0  0  0  0
   38.7871   11.8453    9.9896 O   0  0  0  0  0  0  0  0  0  0  0  0
   40.0250   11.8553   10.5799 C   0  0  0  0  0  0  0  0  0  0  0  0
   41.2287   11.6747    9.9370 N   0  0  0  0  0  0  0  0  0  0  0  0
   42.4461   11.7060   10.6159 C   0  0  0  0  0  0  0  0  0  0  0  0
   42.4502   11.9347   11.9855 C   0  0  0  0  0  0  0  0  0  0  0  0
   41.2357   12.1230   12.6606 C   0  0  0  0  0  0  0  0  0  0  0  0
   39.9992   12.0868   11.9736 C   0  0  0  0  0  0  0  0  0  0  0  0
   38.7999   12.2819   12.6340 N   0  0  0  0  0  0  0  0  0  0  0  0
   37.5461   11.5495   12.4947 C   0  0  0  0  0  0  0  0  0  0  0  0
   36.4777   11.8991   13.0732 N   0  0  0  0  0  0  0  0  0  0  0  0
   37.6166   10.4544   11.6957 N   0  0  0  0  0  0  0  0  0  0  0  0
  1  2  1  0
  2  3  1  0
  3  4  2  0
  4  5  1  0
  5  6  2  0
  6  7  1  0
  7  8  2  0
  8  9  1  0
  9 10  1  0
 10 11  2  3
 10 12  1  0
  8  3  1  0
A    1
 C1 
A    2
 O1 
A    3
 C2 
A    4
 N1 
A    5
 C3 
A    6
 C4 
A    7
 C5 
A    8
 C6 
A    9
 N2 
A   10
 C7 
A   11
 N3 
A   12
 N4 
M  END
>  <ref_pdb>  (67) 
Ax0310a

>  <ref_mols>  (67) 
Ax0526a,Ax0719a

>  <original SMILES>  (67) 
COc1ncccc1NC(=N)N

>  <rationale>  (67) 
info hbond:T126+N129+L131; hydroph_interaction:L131; 

>  <intxn_cluster_10>  (67) 
4

>  <intxn_cluster_rank_10>  (67) 
6

>  <N_interactions>  (67) 
5

>  <∆∆G>  (67) 
-3.255072

>  <$/mg>  (67) 
0.0

>  <comRMSD>  (67) 
0.527801

>  <N_rotatable_bonds>  (67) 
3

>  <deep_P1_sidechain>  (67) 
False

>  <farthest_distance_to_substrate>  (67) 
3.519341

>  <hbond:SER:7>  (67) 
hbond:SER:7    0
hbond:SER:7    0
Name: 65, dtype: object

>  <hydroph_interaction:ASN:19>  (67) 
hydroph_interaction:ASN:19    0
hydroph_interaction:ASN:19    0
Name: 65, dtype: object

>  <halogenbond:ASN:19>  (67) 
halogenbond:ASN:19    0
halogenbond:ASN:19    0
Name: 65, dtype: object

>  <hbond:ARG:20>  (67) 
hbond:ARG:20    0
hbond:ARG:20    0
Name: 65, dtype: object

>  <hydroph_interaction:ARG:20>  (67) 
hydroph_interaction:ARG:20    0
hydroph_interaction:ARG:20    0
Name: 65, dtype: object

>  <hbond:HIS:21>  (67) 
hbond:HIS:21    0
hbond:HIS:21    0
Name: 65, dtype: object

>  <hydroph_interaction:HIS:21>  (67) 
hydroph_interaction:HIS:21    0
hydroph_interaction:HIS:21    0
Name: 65, dtype: object

>  <saltbridge:HIS:21>  (67) 
saltbridge:HIS:21    0
saltbridge:HIS:21    0
Name: 65, dtype: object

>  <pistack:HIS:21>  (67) 
pistack:HIS:21    0
pistack:HIS:21    0
Name: 65, dtype: object

>  <pication:HIS:21>  (67) 
pication:HIS:21    0
pication:HIS:21    0
Name: 65, dtype: object

>  <hydroph_interaction:LEU:22>  (67) 
hydroph_interaction:LEU:22    0
hydroph_interaction:LEU:22    0
Name: 65, dtype: object

>  <hbond:SER:36>  (67) 
hbond:SER:36    0
hbond:SER:36    0
Name: 65, dtype: object

>  <hbond:ASP:39>  (67) 
hbond:ASP:39    0
hbond:ASP:39    0
Name: 65, dtype: object

>  <saltbridge:ASP:39>  (67) 
saltbridge:ASP:39    0
saltbridge:ASP:39    0
Name: 65, dtype: object

>  <hydroph_interaction:ASP:39>  (67) 
hydroph_interaction:ASP:39    0
hydroph_interaction:ASP:39    0
Name: 65, dtype: object

>  <halogenbond:ASP:39>  (67) 
halogenbond:ASP:39    0
halogenbond:ASP:39    0
Name: 65, dtype: object

>  <hydroph_interaction:ILE:82>  (67) 
hydroph_interaction:ILE:82    0
hydroph_interaction:ILE:82    0
Name: 65, dtype: object

>  <hydroph_interaction:PHE:83>  (67) 
hydroph_interaction:PHE:83    0
hydroph_interaction:PHE:83    0
Name: 65, dtype: object

>  <hbond:PHE:83>  (67) 
hbond:PHE:83    0
hbond:PHE:83    0
Name: 65, dtype: object

>  <halogenbond:PHE:83>  (67) 
halogenbond:PHE:83    0
halogenbond:PHE:83    0
Name: 65, dtype: object

>  <hydroph_interaction:VAL:84>  (67) 
hydroph_interaction:VAL:84    0
hydroph_interaction:VAL:84    0
Name: 65, dtype: object

>  <hydroph_interaction:GLU:85>  (67) 
hydroph_interaction:GLU:85    0
hydroph_interaction:GLU:85    0
Name: 65, dtype: object

>  <hbond:GLU:85>  (67) 
hbond:GLU:85    0
hbond:GLU:85    0
Name: 65, dtype: object

>  <halogenbond:GLU:85>  (67) 
halogenbond:GLU:85    0
halogenbond:GLU:85    0
Name: 65, dtype: object

>  <halogenbond:ALA:86>  (67) 
halogenbond:ALA:86    0
halogenbond:ALA:86    0
Name: 65, dtype: object

>  <hbond:SER:87>  (67) 
hbond:SER:87    0
hbond:SER:87    0
Name: 65, dtype: object

>  <halogenbond:SER:87>  (67) 
halogenbond:SER:87    0
halogenbond:SER:87    0
Name: 65, dtype: object

>  <hbond:GLU:88>  (67) 
hbond:GLU:88    0
hbond:GLU:88    0
Name: 65, dtype: object

>  <halogenbond:GLU:88>  (67) 
halogenbond:GLU:88    0
halogenbond:GLU:88    0
Name: 65, dtype: object

>  <hydroph_interaction:TYR:89>  (67) 
hydroph_interaction:TYR:89    0
hydroph_interaction:TYR:89    0
Name: 65, dtype: object

>  <pistack:TYR:89>  (67) 
pistack:TYR:89    0
pistack:TYR:89    0
Name: 65, dtype: object

>  <hbond:TYR:89>  (67) 
hbond:TYR:89    0
hbond:TYR:89    0
Name: 65, dtype: object

>  <hbond:TYR:90>  (67) 
hbond:TYR:90    0
hbond:TYR:90    0
Name: 65, dtype: object

>  <hydroph_interaction:TYR:90>  (67) 
hydroph_interaction:TYR:90    0
hydroph_interaction:TYR:90    0
Name: 65, dtype: object

>  <pistack:TYR:90>  (67) 
pistack:TYR:90    0
pistack:TYR:90    0
Name: 65, dtype: object

>  <hbond:ARG:93>  (67) 
hbond:ARG:93    0
hbond:ARG:93    0
Name: 65, dtype: object

>  <saltbridge:ARG:93>  (67) 
saltbridge:ARG:93    0
saltbridge:ARG:93    0
Name: 65, dtype: object

>  <hydroph_interaction:ARG:93>  (67) 
hydroph_interaction:ARG:93    0
hydroph_interaction:ARG:93    0
Name: 65, dtype: object

>  <halogenbond:GLN:95>  (67) 
halogenbond:GLN:95    0
halogenbond:GLN:95    0
Name: 65, dtype: object

>  <hbond:GLN:95>  (67) 
hbond:GLN:95    0
hbond:GLN:95    0
Name: 65, dtype: object

>  <hydroph_interaction:GLN:95>  (67) 
hydroph_interaction:GLN:95    0
hydroph_interaction:GLN:95    0
Name: 65, dtype: object

>  <hydroph_interaction:LEU:98>  (67) 
hydroph_interaction:LEU:98    0
hydroph_interaction:LEU:98    0
Name: 65, dtype: object

>  <hydroph_interaction:LEU:100>  (67) 
hydroph_interaction:LEU:100    0
hydroph_interaction:LEU:100    0
Name: 65, dtype: object

>  <hbond:SER:105>  (67) 
hbond:SER:105    0
hbond:SER:105    0
Name: 65, dtype: object

>  <halogenbond:SER:105>  (67) 
halogenbond:SER:105    0
halogenbond:SER:105    0
Name: 65, dtype: object

>  <hydroph_interaction:PRO:107>  (67) 
hydroph_interaction:PRO:107    0
hydroph_interaction:PRO:107    0
Name: 65, dtype: object

>  <hbond:PRO:107>  (67) 
hbond:PRO:107    0
hbond:PRO:107    0
Name: 65, dtype: object

>  <halogenbond:PRO:107>  (67) 
halogenbond:PRO:107    0
halogenbond:PRO:107    0
Name: 65, dtype: object

>  <hbond:ASP:109>  (67) 
hbond:ASP:109    0
hbond:ASP:109    0
Name: 65, dtype: object

>  <hbond:CYS:110>  (67) 
hbond:CYS:110    0
hbond:CYS:110    0
Name: 65, dtype: object

>  <halogenbond:CYS:110>  (67) 
halogenbond:CYS:110    0
halogenbond:CYS:110    0
Name: 65, dtype: object

>  <hydroph_interaction:VAL:124>  (67) 
hydroph_interaction:VAL:124    0
hydroph_interaction:VAL:124    0
Name: 65, dtype: object

>  <hbond:SER:125>  (67) 
hbond:SER:125    0
hbond:SER:125    0
Name: 65, dtype: object

>  <halogenbond:SER:125>  (67) 
halogenbond:SER:125    0
halogenbond:SER:125    0
Name: 65, dtype: object

>  <hydroph_interaction:THR:126>  (67) 
hydroph_interaction:THR:126    0
hydroph_interaction:THR:126    0
Name: 65, dtype: object

>  <hbond:THR:126>  (67) 
hbond:THR:126    2
hbond:THR:126    2
Name: 65, dtype: object

>  <halogenbond:THR:126>  (67) 
halogenbond:THR:126    0
halogenbond:THR:126    0
Name: 65, dtype: object

>  <hbond:GLY:127>  (67) 
hbond:GLY:127    0
hbond:GLY:127    0
Name: 65, dtype: object

>  <halogenbond:GLY:127>  (67) 
halogenbond:GLY:127    0
halogenbond:GLY:127    0
Name: 65, dtype: object

>  <hbond:GLY:128>  (67) 
hbond:GLY:128    0
hbond:GLY:128    0
Name: 65, dtype: object

>  <hbond:ASN:129>  (67) 
hbond:ASN:129    1
hbond:ASN:129    1
Name: 65, dtype: object

>  <hydroph_interaction:ASN:129>  (67) 
hydroph_interaction:ASN:129    0
hydroph_interaction:ASN:129    0
Name: 65, dtype: object

>  <halogenbond:ASN:129>  (67) 
halogenbond:ASN:129    0
halogenbond:ASN:129    0
Name: 65, dtype: object

>  <hydroph_interaction:LEU:131>  (67) 
hydroph_interaction:LEU:131    1
hydroph_interaction:LEU:131    1
Name: 65, dtype: object

>  <hbond:LEU:131>  (67) 
hbond:LEU:131    1
hbond:LEU:131    1
Name: 65, dtype: object

>  <halogenbond:LEU:131>  (67) 
halogenbond:LEU:131    0
halogenbond:LEU:131    0
Name: 65, dtype: object

>  <hbond:VAL:132>  (67) 
hbond:VAL:132    0
hbond:VAL:132    0
Name: 65, dtype: object

$$$$
Z3192373680
     RDKit          3D

 23 24  0  0  0  0  0  0  0  0999 V2000
   21.4694   10.2923    6.2890 C   0  0  0  0  0  0  0  0  0  0  0  0
   21.6111   10.9272    5.0229 O   0  0  0  0  0  0  0  0  0  0  0  0
   22.2048   12.1633    5.0500 C   0  0  0  0  0  0  0  0  0  0  0  0
   21.8428   13.0976    4.3207 O   0  0  0  0  0  0  0  0  0  0  0  0
   23.3084   12.2490    6.0154 C   0  0  0  0  0  0  0  0  0  0  0  0
   24.6586   12.1034    5.8000 C   0  0  0  0  0  0  0  0  0  0  0  0
   25.3708   12.2518    6.9700 C   0  0  0  0  0  0  0  0  0  0  0  0
   26.8505   12.1417    7.0987 C   0  0  0  0  0  0  0  0  0  0  0  0
   27.4721   13.3251    6.7905 N   0  0  0  0  0  0  0  0  0  0  0  0
   28.3224   13.9026    7.6899 C   0  0  0  0  0  0  0  0  0  0  0  0
   27.4333   14.7308    7.8004 O   0  0  0  0  0  0  0  0  0  0  0  0
   29.0562   12.8025    7.2984 N   0  0  0  0  0  0  0  0  0  0  0  0
   29.8007   12.9808    6.1040 O   0  0  0  0  0  0  0  0  0  0  0  0
   29.7659   11.9481    8.2285 C   0  0  0  0  0  0  0  0  0  0  0  0
   30.7065   11.0788    7.6856 C   0  0  0  0  0  0  0  0  0  0  0  0
   30.5878    9.7012    8.1773 C   0  0  0  0  0  0  0  0  0  0  0  0
   31.4842    8.7727    7.6677 C   0  0  0  0  0  0  0  0  0  0  0  0
   32.4514    9.1467    6.7313 C   0  0  0  0  0  0  0  0  0  0  0  0
   32.5585   10.4563    6.2805 C   0  0  0  0  0  0  0  0  0  0  0  0
   31.6877   11.4271    6.7562 C   0  0  0  0  0  0  0  0  0  0  0  0
   24.4077   12.4938    7.9279 C   0  0  0  0  0  0  0  0  0  0  0  0
   24.5092   12.7080    9.3866 C   0  0  0  0  0  0  0  0  0  0  0  0
   23.1484   12.5014    7.3608 O   0  0  0  0  0  0  0  0  0  0  0  0
  1  2  1  0
  2  3  1  0
  3  4  2  0
  3  5  1  0
  5  6  2  0
  6  7  1  0
  7  8  1  0
  8  9  1  0
  9 10  1  0
 10 11  2  0
 10 12  1  0
 12 13  1  0
 12 14  1  0
 14 15  1  0
 15 16  2  0
 16 17  1  0
 17 18  2  0
 18 19  1  0
 19 20  2  0
  7 21  2  0
 21 22  1  0
 21 23  1  0
 23  5  1  0
 20 15  1  0
A    1
 C1 
A    2
 O1 
A    3
 C2 
A    4
 O2 
A    5
 C3 
A    6
 C4 
A    7
 C5 
A    8
 C6 
A    9
 N1 
A   10
 C7 
A   11
 O3 
A   12
 N2 
A   13
 O4 
A   14
 C8 
A   15
 C9 
A   16
 C10
A   17
 C11
A   18
 C12
A   19
 C13
A   20
 C14
A   21
 C15
A   22
 C16
A   23
 O5 
M  END
>  <ref_pdb>  (68) 
Ax0310a

>  <ref_mols>  (68) 
Ax0554a,Ax0310a

>  <original SMILES>  (68) 
COC(=O)c1cc(CNC(=O)N(O)Cc2ccccc2)c(C)o1

>  <rationale>  (68) 
info hbond:S87+Y89; hydroph_interaction:P107+H21+N19; pistack:Y89; 

>  <intxn_cluster_10>  (68) 
3

>  <intxn_cluster_rank_10>  (68) 
9

>  <N_interactions>  (68) 
6

>  <∆∆G>  (68) 
-10.389353

>  <$/mg>  (68) 
0.0

>  <comRMSD>  (68) 
0.781265

>  <N_rotatable_bonds>  (68) 
8

>  <deep_P1_sidechain>  (68) 
False

>  <farthest_distance_to_substrate>  (68) 
4.246662

>  <hbond:SER:7>  (68) 
hbond:SER:7    0
hbond:SER:7    0
Name: 66, dtype: object

>  <hydroph_interaction:ASN:19>  (68) 
hydroph_interaction:ASN:19    1
hydroph_interaction:ASN:19    1
Name: 66, dtype: object

>  <halogenbond:ASN:19>  (68) 
halogenbond:ASN:19    0
halogenbond:ASN:19    0
Name: 66, dtype: object

>  <hbond:ARG:20>  (68) 
hbond:ARG:20    0
hbond:ARG:20    0
Name: 66, dtype: object

>  <hydroph_interaction:ARG:20>  (68) 
hydroph_interaction:ARG:20    0
hydroph_interaction:ARG:20    0
Name: 66, dtype: object

>  <hbond:HIS:21>  (68) 
hbond:HIS:21    0
hbond:HIS:21    0
Name: 66, dtype: object

>  <hydroph_interaction:HIS:21>  (68) 
hydroph_interaction:HIS:21    1
hydroph_interaction:HIS:21    1
Name: 66, dtype: object

>  <saltbridge:HIS:21>  (68) 
saltbridge:HIS:21    0
saltbridge:HIS:21    0
Name: 66, dtype: object

>  <pistack:HIS:21>  (68) 
pistack:HIS:21    0
pistack:HIS:21    0
Name: 66, dtype: object

>  <pication:HIS:21>  (68) 
pication:HIS:21    0
pication:HIS:21    0
Name: 66, dtype: object

>  <hydroph_interaction:LEU:22>  (68) 
hydroph_interaction:LEU:22    0
hydroph_interaction:LEU:22    0
Name: 66, dtype: object

>  <hbond:SER:36>  (68) 
hbond:SER:36    0
hbond:SER:36    0
Name: 66, dtype: object

>  <hbond:ASP:39>  (68) 
hbond:ASP:39    0
hbond:ASP:39    0
Name: 66, dtype: object

>  <saltbridge:ASP:39>  (68) 
saltbridge:ASP:39    0
saltbridge:ASP:39    0
Name: 66, dtype: object

>  <hydroph_interaction:ASP:39>  (68) 
hydroph_interaction:ASP:39    0
hydroph_interaction:ASP:39    0
Name: 66, dtype: object

>  <halogenbond:ASP:39>  (68) 
halogenbond:ASP:39    0
halogenbond:ASP:39    0
Name: 66, dtype: object

>  <hydroph_interaction:ILE:82>  (68) 
hydroph_interaction:ILE:82    0
hydroph_interaction:ILE:82    0
Name: 66, dtype: object

>  <hydroph_interaction:PHE:83>  (68) 
hydroph_interaction:PHE:83    0
hydroph_interaction:PHE:83    0
Name: 66, dtype: object

>  <hbond:PHE:83>  (68) 
hbond:PHE:83    0
hbond:PHE:83    0
Name: 66, dtype: object

>  <halogenbond:PHE:83>  (68) 
halogenbond:PHE:83    0
halogenbond:PHE:83    0
Name: 66, dtype: object

>  <hydroph_interaction:VAL:84>  (68) 
hydroph_interaction:VAL:84    0
hydroph_interaction:VAL:84    0
Name: 66, dtype: object

>  <hydroph_interaction:GLU:85>  (68) 
hydroph_interaction:GLU:85    0
hydroph_interaction:GLU:85    0
Name: 66, dtype: object

>  <hbond:GLU:85>  (68) 
hbond:GLU:85    0
hbond:GLU:85    0
Name: 66, dtype: object

>  <halogenbond:GLU:85>  (68) 
halogenbond:GLU:85    0
halogenbond:GLU:85    0
Name: 66, dtype: object

>  <halogenbond:ALA:86>  (68) 
halogenbond:ALA:86    0
halogenbond:ALA:86    0
Name: 66, dtype: object

>  <hbond:SER:87>  (68) 
hbond:SER:87    1
hbond:SER:87    1
Name: 66, dtype: object

>  <halogenbond:SER:87>  (68) 
halogenbond:SER:87    0
halogenbond:SER:87    0
Name: 66, dtype: object

>  <hbond:GLU:88>  (68) 
hbond:GLU:88    0
hbond:GLU:88    0
Name: 66, dtype: object

>  <halogenbond:GLU:88>  (68) 
halogenbond:GLU:88    0
halogenbond:GLU:88    0
Name: 66, dtype: object

>  <hydroph_interaction:TYR:89>  (68) 
hydroph_interaction:TYR:89    0
hydroph_interaction:TYR:89    0
Name: 66, dtype: object

>  <pistack:TYR:89>  (68) 
pistack:TYR:89    1
pistack:TYR:89    1
Name: 66, dtype: object

>  <hbond:TYR:89>  (68) 
hbond:TYR:89    1
hbond:TYR:89    1
Name: 66, dtype: object

>  <hbond:TYR:90>  (68) 
hbond:TYR:90    0
hbond:TYR:90    0
Name: 66, dtype: object

>  <hydroph_interaction:TYR:90>  (68) 
hydroph_interaction:TYR:90    0
hydroph_interaction:TYR:90    0
Name: 66, dtype: object

>  <pistack:TYR:90>  (68) 
pistack:TYR:90    0
pistack:TYR:90    0
Name: 66, dtype: object

>  <hbond:ARG:93>  (68) 
hbond:ARG:93    0
hbond:ARG:93    0
Name: 66, dtype: object

>  <saltbridge:ARG:93>  (68) 
saltbridge:ARG:93    0
saltbridge:ARG:93    0
Name: 66, dtype: object

>  <hydroph_interaction:ARG:93>  (68) 
hydroph_interaction:ARG:93    0
hydroph_interaction:ARG:93    0
Name: 66, dtype: object

>  <halogenbond:GLN:95>  (68) 
halogenbond:GLN:95    0
halogenbond:GLN:95    0
Name: 66, dtype: object

>  <hbond:GLN:95>  (68) 
hbond:GLN:95    0
hbond:GLN:95    0
Name: 66, dtype: object

>  <hydroph_interaction:GLN:95>  (68) 
hydroph_interaction:GLN:95    0
hydroph_interaction:GLN:95    0
Name: 66, dtype: object

>  <hydroph_interaction:LEU:98>  (68) 
hydroph_interaction:LEU:98    0
hydroph_interaction:LEU:98    0
Name: 66, dtype: object

>  <hydroph_interaction:LEU:100>  (68) 
hydroph_interaction:LEU:100    0
hydroph_interaction:LEU:100    0
Name: 66, dtype: object

>  <hbond:SER:105>  (68) 
hbond:SER:105    0
hbond:SER:105    0
Name: 66, dtype: object

>  <halogenbond:SER:105>  (68) 
halogenbond:SER:105    0
halogenbond:SER:105    0
Name: 66, dtype: object

>  <hydroph_interaction:PRO:107>  (68) 
hydroph_interaction:PRO:107    1
hydroph_interaction:PRO:107    1
Name: 66, dtype: object

>  <hbond:PRO:107>  (68) 
hbond:PRO:107    0
hbond:PRO:107    0
Name: 66, dtype: object

>  <halogenbond:PRO:107>  (68) 
halogenbond:PRO:107    0
halogenbond:PRO:107    0
Name: 66, dtype: object

>  <hbond:ASP:109>  (68) 
hbond:ASP:109    0
hbond:ASP:109    0
Name: 66, dtype: object

>  <hbond:CYS:110>  (68) 
hbond:CYS:110    0
hbond:CYS:110    0
Name: 66, dtype: object

>  <halogenbond:CYS:110>  (68) 
halogenbond:CYS:110    0
halogenbond:CYS:110    0
Name: 66, dtype: object

>  <hydroph_interaction:VAL:124>  (68) 
hydroph_interaction:VAL:124    0
hydroph_interaction:VAL:124    0
Name: 66, dtype: object

>  <hbond:SER:125>  (68) 
hbond:SER:125    0
hbond:SER:125    0
Name: 66, dtype: object

>  <halogenbond:SER:125>  (68) 
halogenbond:SER:125    0
halogenbond:SER:125    0
Name: 66, dtype: object

>  <hydroph_interaction:THR:126>  (68) 
hydroph_interaction:THR:126    0
hydroph_interaction:THR:126    0
Name: 66, dtype: object

>  <hbond:THR:126>  (68) 
hbond:THR:126    0
hbond:THR:126    0
Name: 66, dtype: object

>  <halogenbond:THR:126>  (68) 
halogenbond:THR:126    0
halogenbond:THR:126    0
Name: 66, dtype: object

>  <hbond:GLY:127>  (68) 
hbond:GLY:127    0
hbond:GLY:127    0
Name: 66, dtype: object

>  <halogenbond:GLY:127>  (68) 
halogenbond:GLY:127    0
halogenbond:GLY:127    0
Name: 66, dtype: object

>  <hbond:GLY:128>  (68) 
hbond:GLY:128    0
hbond:GLY:128    0
Name: 66, dtype: object

>  <hbond:ASN:129>  (68) 
hbond:ASN:129    0
hbond:ASN:129    0
Name: 66, dtype: object

>  <hydroph_interaction:ASN:129>  (68) 
hydroph_interaction:ASN:129    0
hydroph_interaction:ASN:129    0
Name: 66, dtype: object

>  <halogenbond:ASN:129>  (68) 
halogenbond:ASN:129    0
halogenbond:ASN:129    0
Name: 66, dtype: object

>  <hydroph_interaction:LEU:131>  (68) 
hydroph_interaction:LEU:131    0
hydroph_interaction:LEU:131    0
Name: 66, dtype: object

>  <hbond:LEU:131>  (68) 
hbond:LEU:131    0
hbond:LEU:131    0
Name: 66, dtype: object

>  <halogenbond:LEU:131>  (68) 
halogenbond:LEU:131    0
halogenbond:LEU:131    0
Name: 66, dtype: object

>  <hbond:VAL:132>  (68) 
hbond:VAL:132    0
hbond:VAL:132    0
Name: 66, dtype: object

$$$$
Z159567140
     RDKit          3D

 11 11  0  0  0  0  0  0  0  0999 V2000
   40.3647   12.5502    7.6195 C   0  0  0  0  0  0  0  0  0  0  0  0
   40.8915   12.3112    8.9532 N   0  0  0  0  0  0  0  0  0  0  0  0
   39.8199   12.0369    9.8949 C   0  0  2  0  0  0  0  0  0  0  0  0
   38.5984   12.8018    9.5241 C   0  0  0  0  0  0  0  0  0  0  0  0
   40.2078   12.4222   11.3124 C   0  0  0  0  0  0  0  0  0  0  0  0
   41.4579   13.2288   11.6257 C   0  0  0  0  0  0  0  0  0  0  0  0
   41.8014   13.5690   12.9248 C   0  0  0  0  0  0  0  0  0  0  0  0
   40.8908   13.1083   14.0268 C   0  0  0  0  0  0  0  0  0  0  0  0
   39.7474   12.3730   13.7071 C   0  0  0  0  0  0  0  0  0  0  0  0
   39.4112   12.0417   12.3970 C   0  0  0  0  0  0  0  0  0  0  0  0
   37.8019   11.0471   12.1867 Br  0  0  0  0  0  0  0  0  0  0  0  0
  1  2  1  0
  2  3  1  0
  3  4  1  6
  3  5  1  0
  5  6  2  0
  6  7  1  0
  7  8  2  0
  8  9  1  0
  9 10  2  0
 10 11  1  0
 10  5  1  0
A    1
 C1 
A    2
 N1 
A    3
 C2 
A    4
 C3 
A    5
 C4 
A    6
 C5 
A    7
 C6 
A    8
 C7 
A    9
 C8 
A   10
 C9 
A   11
BR1 
M  END
>  <ref_pdb>  (69) 
Ax0310a

>  <ref_mols>  (69) 
Ax0451a,Ax0853a

>  <original SMILES>  (69) 
CNC(C)c1ccccc1Br

>  <rationale>  (69) 
info halogenbond:T126; hbond:G128; hydroph_interaction:I82+L100; 

>  <intxn_cluster_10>  (69) 
8

>  <intxn_cluster_rank_10>  (69) 
11

>  <N_interactions>  (69) 
4

>  <∆∆G>  (69) 
-5.820921

>  <$/mg>  (69) 
0.0

>  <comRMSD>  (69) 
0.572166

>  <N_rotatable_bonds>  (69) 
4

>  <deep_P1_sidechain>  (69) 
False

>  <farthest_distance_to_substrate>  (69) 
4.963063

>  <hbond:SER:7>  (69) 
hbond:SER:7    0
hbond:SER:7    0
Name: 67, dtype: object

>  <hydroph_interaction:ASN:19>  (69) 
hydroph_interaction:ASN:19    0
hydroph_interaction:ASN:19    0
Name: 67, dtype: object

>  <halogenbond:ASN:19>  (69) 
halogenbond:ASN:19    0
halogenbond:ASN:19    0
Name: 67, dtype: object

>  <hbond:ARG:20>  (69) 
hbond:ARG:20    0
hbond:ARG:20    0
Name: 67, dtype: object

>  <hydroph_interaction:ARG:20>  (69) 
hydroph_interaction:ARG:20    0
hydroph_interaction:ARG:20    0
Name: 67, dtype: object

>  <hbond:HIS:21>  (69) 
hbond:HIS:21    0
hbond:HIS:21    0
Name: 67, dtype: object

>  <hydroph_interaction:HIS:21>  (69) 
hydroph_interaction:HIS:21    0
hydroph_interaction:HIS:21    0
Name: 67, dtype: object

>  <saltbridge:HIS:21>  (69) 
saltbridge:HIS:21    0
saltbridge:HIS:21    0
Name: 67, dtype: object

>  <pistack:HIS:21>  (69) 
pistack:HIS:21    0
pistack:HIS:21    0
Name: 67, dtype: object

>  <pication:HIS:21>  (69) 
pication:HIS:21    0
pication:HIS:21    0
Name: 67, dtype: object

>  <hydroph_interaction:LEU:22>  (69) 
hydroph_interaction:LEU:22    0
hydroph_interaction:LEU:22    0
Name: 67, dtype: object

>  <hbond:SER:36>  (69) 
hbond:SER:36    0
hbond:SER:36    0
Name: 67, dtype: object

>  <hbond:ASP:39>  (69) 
hbond:ASP:39    0
hbond:ASP:39    0
Name: 67, dtype: object

>  <saltbridge:ASP:39>  (69) 
saltbridge:ASP:39    0
saltbridge:ASP:39    0
Name: 67, dtype: object

>  <hydroph_interaction:ASP:39>  (69) 
hydroph_interaction:ASP:39    0
hydroph_interaction:ASP:39    0
Name: 67, dtype: object

>  <halogenbond:ASP:39>  (69) 
halogenbond:ASP:39    0
halogenbond:ASP:39    0
Name: 67, dtype: object

>  <hydroph_interaction:ILE:82>  (69) 
hydroph_interaction:ILE:82    1
hydroph_interaction:ILE:82    1
Name: 67, dtype: object

>  <hydroph_interaction:PHE:83>  (69) 
hydroph_interaction:PHE:83    0
hydroph_interaction:PHE:83    0
Name: 67, dtype: object

>  <hbond:PHE:83>  (69) 
hbond:PHE:83    0
hbond:PHE:83    0
Name: 67, dtype: object

>  <halogenbond:PHE:83>  (69) 
halogenbond:PHE:83    0
halogenbond:PHE:83    0
Name: 67, dtype: object

>  <hydroph_interaction:VAL:84>  (69) 
hydroph_interaction:VAL:84    0
hydroph_interaction:VAL:84    0
Name: 67, dtype: object

>  <hydroph_interaction:GLU:85>  (69) 
hydroph_interaction:GLU:85    0
hydroph_interaction:GLU:85    0
Name: 67, dtype: object

>  <hbond:GLU:85>  (69) 
hbond:GLU:85    0
hbond:GLU:85    0
Name: 67, dtype: object

>  <halogenbond:GLU:85>  (69) 
halogenbond:GLU:85    0
halogenbond:GLU:85    0
Name: 67, dtype: object

>  <halogenbond:ALA:86>  (69) 
halogenbond:ALA:86    0
halogenbond:ALA:86    0
Name: 67, dtype: object

>  <hbond:SER:87>  (69) 
hbond:SER:87    0
hbond:SER:87    0
Name: 67, dtype: object

>  <halogenbond:SER:87>  (69) 
halogenbond:SER:87    0
halogenbond:SER:87    0
Name: 67, dtype: object

>  <hbond:GLU:88>  (69) 
hbond:GLU:88    0
hbond:GLU:88    0
Name: 67, dtype: object

>  <halogenbond:GLU:88>  (69) 
halogenbond:GLU:88    0
halogenbond:GLU:88    0
Name: 67, dtype: object

>  <hydroph_interaction:TYR:89>  (69) 
hydroph_interaction:TYR:89    0
hydroph_interaction:TYR:89    0
Name: 67, dtype: object

>  <pistack:TYR:89>  (69) 
pistack:TYR:89    0
pistack:TYR:89    0
Name: 67, dtype: object

>  <hbond:TYR:89>  (69) 
hbond:TYR:89    0
hbond:TYR:89    0
Name: 67, dtype: object

>  <hbond:TYR:90>  (69) 
hbond:TYR:90    0
hbond:TYR:90    0
Name: 67, dtype: object

>  <hydroph_interaction:TYR:90>  (69) 
hydroph_interaction:TYR:90    0
hydroph_interaction:TYR:90    0
Name: 67, dtype: object

>  <pistack:TYR:90>  (69) 
pistack:TYR:90    0
pistack:TYR:90    0
Name: 67, dtype: object

>  <hbond:ARG:93>  (69) 
hbond:ARG:93    0
hbond:ARG:93    0
Name: 67, dtype: object

>  <saltbridge:ARG:93>  (69) 
saltbridge:ARG:93    0
saltbridge:ARG:93    0
Name: 67, dtype: object

>  <hydroph_interaction:ARG:93>  (69) 
hydroph_interaction:ARG:93    0
hydroph_interaction:ARG:93    0
Name: 67, dtype: object

>  <halogenbond:GLN:95>  (69) 
halogenbond:GLN:95    0
halogenbond:GLN:95    0
Name: 67, dtype: object

>  <hbond:GLN:95>  (69) 
hbond:GLN:95    0
hbond:GLN:95    0
Name: 67, dtype: object

>  <hydroph_interaction:GLN:95>  (69) 
hydroph_interaction:GLN:95    0
hydroph_interaction:GLN:95    0
Name: 67, dtype: object

>  <hydroph_interaction:LEU:98>  (69) 
hydroph_interaction:LEU:98    0
hydroph_interaction:LEU:98    0
Name: 67, dtype: object

>  <hydroph_interaction:LEU:100>  (69) 
hydroph_interaction:LEU:100    1
hydroph_interaction:LEU:100    1
Name: 67, dtype: object

>  <hbond:SER:105>  (69) 
hbond:SER:105    0
hbond:SER:105    0
Name: 67, dtype: object

>  <halogenbond:SER:105>  (69) 
halogenbond:SER:105    0
halogenbond:SER:105    0
Name: 67, dtype: object

>  <hydroph_interaction:PRO:107>  (69) 
hydroph_interaction:PRO:107    0
hydroph_interaction:PRO:107    0
Name: 67, dtype: object

>  <hbond:PRO:107>  (69) 
hbond:PRO:107    0
hbond:PRO:107    0
Name: 67, dtype: object

>  <halogenbond:PRO:107>  (69) 
halogenbond:PRO:107    0
halogenbond:PRO:107    0
Name: 67, dtype: object

>  <hbond:ASP:109>  (69) 
hbond:ASP:109    0
hbond:ASP:109    0
Name: 67, dtype: object

>  <hbond:CYS:110>  (69) 
hbond:CYS:110    0
hbond:CYS:110    0
Name: 67, dtype: object

>  <halogenbond:CYS:110>  (69) 
halogenbond:CYS:110    0
halogenbond:CYS:110    0
Name: 67, dtype: object

>  <hydroph_interaction:VAL:124>  (69) 
hydroph_interaction:VAL:124    0
hydroph_interaction:VAL:124    0
Name: 67, dtype: object

>  <hbond:SER:125>  (69) 
hbond:SER:125    0
hbond:SER:125    0
Name: 67, dtype: object

>  <halogenbond:SER:125>  (69) 
halogenbond:SER:125    0
halogenbond:SER:125    0
Name: 67, dtype: object

>  <hydroph_interaction:THR:126>  (69) 
hydroph_interaction:THR:126    0
hydroph_interaction:THR:126    0
Name: 67, dtype: object

>  <hbond:THR:126>  (69) 
hbond:THR:126    0
hbond:THR:126    0
Name: 67, dtype: object

>  <halogenbond:THR:126>  (69) 
halogenbond:THR:126    1
halogenbond:THR:126    1
Name: 67, dtype: object

>  <hbond:GLY:127>  (69) 
hbond:GLY:127    0
hbond:GLY:127    0
Name: 67, dtype: object

>  <halogenbond:GLY:127>  (69) 
halogenbond:GLY:127    0
halogenbond:GLY:127    0
Name: 67, dtype: object

>  <hbond:GLY:128>  (69) 
hbond:GLY:128    1
hbond:GLY:128    1
Name: 67, dtype: object

>  <hbond:ASN:129>  (69) 
hbond:ASN:129    0
hbond:ASN:129    0
Name: 67, dtype: object

>  <hydroph_interaction:ASN:129>  (69) 
hydroph_interaction:ASN:129    0
hydroph_interaction:ASN:129    0
Name: 67, dtype: object

>  <halogenbond:ASN:129>  (69) 
halogenbond:ASN:129    0
halogenbond:ASN:129    0
Name: 67, dtype: object

>  <hydroph_interaction:LEU:131>  (69) 
hydroph_interaction:LEU:131    0
hydroph_interaction:LEU:131    0
Name: 67, dtype: object

>  <hbond:LEU:131>  (69) 
hbond:LEU:131    0
hbond:LEU:131    0
Name: 67, dtype: object

>  <halogenbond:LEU:131>  (69) 
halogenbond:LEU:131    0
halogenbond:LEU:131    0
Name: 67, dtype: object

>  <hbond:VAL:132>  (69) 
hbond:VAL:132    0
hbond:VAL:132    0
Name: 67, dtype: object

$$$$
Z2438366666
     RDKit          3D

 19 20  0  0  0  0  0  0  0  0999 V2000
   29.9131    8.2424    8.6051 C   0  0  0  0  0  0  0  0  0  0  0  0
   31.3175    8.4232    8.1306 C   0  0  0  0  0  0  0  0  0  0  0  0
   31.4645    9.7197    7.5528 N   0  0  0  0  0  0  0  0  0  0  0  0
   32.4249   10.1364    6.7181 C   0  0  0  0  0  0  0  0  0  0  0  0
   32.1167   11.5626    6.3840 C   0  0  0  0  0  0  0  0  0  0  0  0
   30.9234   11.7886    7.1301 C   0  0  0  0  0  0  0  0  0  0  0  0
   30.1535   13.0343    7.1558 C   0  0  0  0  0  0  0  0  0  0  0  0
   29.7487   13.5674    6.1264 O   0  0  0  0  0  0  0  0  0  0  0  0
   29.9302   13.5253    8.4066 O   0  0  0  0  0  0  0  0  0  0  0  0
   28.5661   13.8434    8.7186 C   0  0  0  0  0  0  0  0  0  0  0  0
   28.3445   15.1897    8.6107 C   0  0  0  0  0  0  0  0  0  0  0  0
   29.4879   15.9044    9.1006 O   0  0  0  0  0  0  0  0  0  0  0  0
   29.9430   15.4797   10.3896 C   0  0  0  0  0  0  0  0  0  0  0  0
   31.3247   16.0265   10.7646 C   0  0  2  0  0  0  0  0  0  0  0  0
   31.4203   16.5488   12.2024 C   0  0  0  0  0  0  0  0  0  0  0  0
   32.1307   17.8769   12.0916 C   0  0  0  0  0  0  0  0  0  0  0  0
   32.6391   17.9265   10.6555 C   0  0  0  0  0  0  0  0  0  0  0  0
   31.8047   17.0493    9.8945 O   0  0  0  0  0  0  0  0  0  0  0  0
   30.5587   10.6796    7.8321 N   0  0  0  0  0  0  0  0  0  0  0  0
  1  2  1  0
  2  3  1  0
  3  4  1  0
  4  5  2  0
  5  6  1  0
  6  7  1  0
  7  8  2  0
  7  9  1  0
  9 10  1  0
 10 11  1  0
 11 12  1  0
 12 13  1  0
 14 13  1  6
 14 15  1  0
 15 16  1  0
 16 17  1  0
 17 18  1  0
  6 19  2  0
 19  3  1  0
 18 14  1  0
A    1
 C1 
A    2
 C2 
A    3
 N1 
A    4
 C3 
A    5
 C4 
A    6
 C5 
A    7
 C6 
A    8
 O1 
A    9
 O2 
A   10
 C7 
A   11
 C8 
A   12
 O3 
A   13
 C9 
A   14
 C10
A   15
 C11
A   16
 C12
A   17
 C13
A   18
 O4 
A   19
 N2 
M  END
>  <ref_pdb>  (70) 
Ax0310a

>  <ref_mols>  (70) 
Ax0451a,Ax0884a

>  <original SMILES>  (70) 
CCn1ccc(C(=O)OCCOCC2CCCO2)n1

>  <rationale>  (70) 
info hbond:S87; hydroph_interaction:P107+V124+Y90+T126+V84+R93; 

>  <intxn_cluster_10>  (70) 
4

>  <intxn_cluster_rank_10>  (70) 
12

>  <N_interactions>  (70) 
8

>  <∆∆G>  (70) 
-8.142265

>  <$/mg>  (70) 
163.0

>  <comRMSD>  (70) 
0.721607

>  <N_rotatable_bonds>  (70) 
8

>  <deep_P1_sidechain>  (70) 
True

>  <farthest_distance_to_substrate>  (70) 
2.254504

>  <hbond:SER:7>  (70) 
hbond:SER:7    0
hbond:SER:7    0
Name: 68, dtype: object

>  <hydroph_interaction:ASN:19>  (70) 
hydroph_interaction:ASN:19    0
hydroph_interaction:ASN:19    0
Name: 68, dtype: object

>  <halogenbond:ASN:19>  (70) 
halogenbond:ASN:19    0
halogenbond:ASN:19    0
Name: 68, dtype: object

>  <hbond:ARG:20>  (70) 
hbond:ARG:20    0
hbond:ARG:20    0
Name: 68, dtype: object

>  <hydroph_interaction:ARG:20>  (70) 
hydroph_interaction:ARG:20    0
hydroph_interaction:ARG:20    0
Name: 68, dtype: object

>  <hbond:HIS:21>  (70) 
hbond:HIS:21    0
hbond:HIS:21    0
Name: 68, dtype: object

>  <hydroph_interaction:HIS:21>  (70) 
hydroph_interaction:HIS:21    0
hydroph_interaction:HIS:21    0
Name: 68, dtype: object

>  <saltbridge:HIS:21>  (70) 
saltbridge:HIS:21    0
saltbridge:HIS:21    0
Name: 68, dtype: object

>  <pistack:HIS:21>  (70) 
pistack:HIS:21    0
pistack:HIS:21    0
Name: 68, dtype: object

>  <pication:HIS:21>  (70) 
pication:HIS:21    0
pication:HIS:21    0
Name: 68, dtype: object

>  <hydroph_interaction:LEU:22>  (70) 
hydroph_interaction:LEU:22    0
hydroph_interaction:LEU:22    0
Name: 68, dtype: object

>  <hbond:SER:36>  (70) 
hbond:SER:36    0
hbond:SER:36    0
Name: 68, dtype: object

>  <hbond:ASP:39>  (70) 
hbond:ASP:39    0
hbond:ASP:39    0
Name: 68, dtype: object

>  <saltbridge:ASP:39>  (70) 
saltbridge:ASP:39    0
saltbridge:ASP:39    0
Name: 68, dtype: object

>  <hydroph_interaction:ASP:39>  (70) 
hydroph_interaction:ASP:39    0
hydroph_interaction:ASP:39    0
Name: 68, dtype: object

>  <halogenbond:ASP:39>  (70) 
halogenbond:ASP:39    0
halogenbond:ASP:39    0
Name: 68, dtype: object

>  <hydroph_interaction:ILE:82>  (70) 
hydroph_interaction:ILE:82    0
hydroph_interaction:ILE:82    0
Name: 68, dtype: object

>  <hydroph_interaction:PHE:83>  (70) 
hydroph_interaction:PHE:83    0
hydroph_interaction:PHE:83    0
Name: 68, dtype: object

>  <hbond:PHE:83>  (70) 
hbond:PHE:83    0
hbond:PHE:83    0
Name: 68, dtype: object

>  <halogenbond:PHE:83>  (70) 
halogenbond:PHE:83    0
halogenbond:PHE:83    0
Name: 68, dtype: object

>  <hydroph_interaction:VAL:84>  (70) 
hydroph_interaction:VAL:84    2
hydroph_interaction:VAL:84    2
Name: 68, dtype: object

>  <hydroph_interaction:GLU:85>  (70) 
hydroph_interaction:GLU:85    0
hydroph_interaction:GLU:85    0
Name: 68, dtype: object

>  <hbond:GLU:85>  (70) 
hbond:GLU:85    0
hbond:GLU:85    0
Name: 68, dtype: object

>  <halogenbond:GLU:85>  (70) 
halogenbond:GLU:85    0
halogenbond:GLU:85    0
Name: 68, dtype: object

>  <halogenbond:ALA:86>  (70) 
halogenbond:ALA:86    0
halogenbond:ALA:86    0
Name: 68, dtype: object

>  <hbond:SER:87>  (70) 
hbond:SER:87    1
hbond:SER:87    1
Name: 68, dtype: object

>  <halogenbond:SER:87>  (70) 
halogenbond:SER:87    0
halogenbond:SER:87    0
Name: 68, dtype: object

>  <hbond:GLU:88>  (70) 
hbond:GLU:88    0
hbond:GLU:88    0
Name: 68, dtype: object

>  <halogenbond:GLU:88>  (70) 
halogenbond:GLU:88    0
halogenbond:GLU:88    0
Name: 68, dtype: object

>  <hydroph_interaction:TYR:89>  (70) 
hydroph_interaction:TYR:89    0
hydroph_interaction:TYR:89    0
Name: 68, dtype: object

>  <pistack:TYR:89>  (70) 
pistack:TYR:89    0
pistack:TYR:89    0
Name: 68, dtype: object

>  <hbond:TYR:89>  (70) 
hbond:TYR:89    0
hbond:TYR:89    0
Name: 68, dtype: object

>  <hbond:TYR:90>  (70) 
hbond:TYR:90    0
hbond:TYR:90    0
Name: 68, dtype: object

>  <hydroph_interaction:TYR:90>  (70) 
hydroph_interaction:TYR:90    1
hydroph_interaction:TYR:90    1
Name: 68, dtype: object

>  <pistack:TYR:90>  (70) 
pistack:TYR:90    0
pistack:TYR:90    0
Name: 68, dtype: object

>  <hbond:ARG:93>  (70) 
hbond:ARG:93    0
hbond:ARG:93    0
Name: 68, dtype: object

>  <saltbridge:ARG:93>  (70) 
saltbridge:ARG:93    0
saltbridge:ARG:93    0
Name: 68, dtype: object

>  <hydroph_interaction:ARG:93>  (70) 
hydroph_interaction:ARG:93    1
hydroph_interaction:ARG:93    1
Name: 68, dtype: object

>  <halogenbond:GLN:95>  (70) 
halogenbond:GLN:95    0
halogenbond:GLN:95    0
Name: 68, dtype: object

>  <hbond:GLN:95>  (70) 
hbond:GLN:95    0
hbond:GLN:95    0
Name: 68, dtype: object

>  <hydroph_interaction:GLN:95>  (70) 
hydroph_interaction:GLN:95    0
hydroph_interaction:GLN:95    0
Name: 68, dtype: object

>  <hydroph_interaction:LEU:98>  (70) 
hydroph_interaction:LEU:98    0
hydroph_interaction:LEU:98    0
Name: 68, dtype: object

>  <hydroph_interaction:LEU:100>  (70) 
hydroph_interaction:LEU:100    0
hydroph_interaction:LEU:100    0
Name: 68, dtype: object

>  <hbond:SER:105>  (70) 
hbond:SER:105    0
hbond:SER:105    0
Name: 68, dtype: object

>  <halogenbond:SER:105>  (70) 
halogenbond:SER:105    0
halogenbond:SER:105    0
Name: 68, dtype: object

>  <hydroph_interaction:PRO:107>  (70) 
hydroph_interaction:PRO:107    1
hydroph_interaction:PRO:107    1
Name: 68, dtype: object

>  <hbond:PRO:107>  (70) 
hbond:PRO:107    0
hbond:PRO:107    0
Name: 68, dtype: object

>  <halogenbond:PRO:107>  (70) 
halogenbond:PRO:107    0
halogenbond:PRO:107    0
Name: 68, dtype: object

>  <hbond:ASP:109>  (70) 
hbond:ASP:109    0
hbond:ASP:109    0
Name: 68, dtype: object

>  <hbond:CYS:110>  (70) 
hbond:CYS:110    0
hbond:CYS:110    0
Name: 68, dtype: object

>  <halogenbond:CYS:110>  (70) 
halogenbond:CYS:110    0
halogenbond:CYS:110    0
Name: 68, dtype: object

>  <hydroph_interaction:VAL:124>  (70) 
hydroph_interaction:VAL:124    1
hydroph_interaction:VAL:124    1
Name: 68, dtype: object

>  <hbond:SER:125>  (70) 
hbond:SER:125    0
hbond:SER:125    0
Name: 68, dtype: object

>  <halogenbond:SER:125>  (70) 
halogenbond:SER:125    0
halogenbond:SER:125    0
Name: 68, dtype: object

>  <hydroph_interaction:THR:126>  (70) 
hydroph_interaction:THR:126    1
hydroph_interaction:THR:126    1
Name: 68, dtype: object

>  <hbond:THR:126>  (70) 
hbond:THR:126    0
hbond:THR:126    0
Name: 68, dtype: object

>  <halogenbond:THR:126>  (70) 
halogenbond:THR:126    0
halogenbond:THR:126    0
Name: 68, dtype: object

>  <hbond:GLY:127>  (70) 
hbond:GLY:127    0
hbond:GLY:127    0
Name: 68, dtype: object

>  <halogenbond:GLY:127>  (70) 
halogenbond:GLY:127    0
halogenbond:GLY:127    0
Name: 68, dtype: object

>  <hbond:GLY:128>  (70) 
hbond:GLY:128    0
hbond:GLY:128    0
Name: 68, dtype: object

>  <hbond:ASN:129>  (70) 
hbond:ASN:129    0
hbond:ASN:129    0
Name: 68, dtype: object

>  <hydroph_interaction:ASN:129>  (70) 
hydroph_interaction:ASN:129    0
hydroph_interaction:ASN:129    0
Name: 68, dtype: object

>  <halogenbond:ASN:129>  (70) 
halogenbond:ASN:129    0
halogenbond:ASN:129    0
Name: 68, dtype: object

>  <hydroph_interaction:LEU:131>  (70) 
hydroph_interaction:LEU:131    0
hydroph_interaction:LEU:131    0
Name: 68, dtype: object

>  <hbond:LEU:131>  (70) 
hbond:LEU:131    0
hbond:LEU:131    0
Name: 68, dtype: object

>  <halogenbond:LEU:131>  (70) 
halogenbond:LEU:131    0
halogenbond:LEU:131    0
Name: 68, dtype: object

>  <hbond:VAL:132>  (70) 
hbond:VAL:132    0
hbond:VAL:132    0
Name: 68, dtype: object

$$$$
PV_006952226746
     RDKit          3D

 16 17  0  0  0  0  0  0  0  0999 V2000
   30.7900    8.2838    8.2004 C   0  0  0  0  0  0  0  0  0  0  0  0
   31.3723    9.4956    7.5841 C   0  0  0  0  0  0  0  0  0  0  0  0
   32.2864    9.5004    6.5290 C   0  0  0  0  0  0  0  0  0  0  0  0
   32.8117   10.6344    5.9833 N   0  0  0  0  0  0  0  0  0  0  0  0
   32.3909   11.7976    6.5505 C   0  0  0  0  0  0  0  0  0  0  0  0
   32.9289   12.9250    6.0204 O   0  0  0  0  0  0  0  0  0  0  0  0
   31.4886   11.8712    7.6074 C   0  0  0  0  0  0  0  0  0  0  0  0
   31.0375   13.1160    8.2932 C   0  0  0  0  0  0  0  0  0  0  0  0
   32.0239   13.9107    9.0881 C   0  0  0  0  0  0  0  0  0  0  0  0
   31.7252   15.0638    9.9736 C   0  0  0  0  0  0  0  0  0  0  0  0
   32.5105   16.3418   10.0109 C   0  0  0  0  0  0  0  0  0  0  0  0
   32.2214   17.3182   10.9179 C   0  0  0  0  0  0  0  0  0  0  0  0
   31.1823   17.1099   11.7864 C   0  0  0  0  0  0  0  0  0  0  0  0
   30.4345   15.9565   11.7417 C   0  0  0  0  0  0  0  0  0  0  0  0
   30.6834   14.9481   10.8616 C   0  0  0  0  0  0  0  0  0  0  0  0
   30.9918   10.6911    8.0948 C   0  0  0  0  0  0  0  0  0  0  0  0
  1  2  1  0
  2  3  2  0
  3  4  1  0
  4  5  2  0
  5  6  1  0
  5  7  1  0
  7  8  1  0
  8  9  2  0
  9 10  1  0
 10 11  2  0
 11 12  1  0
 12 13  2  0
 13 14  1  0
 14 15  2  0
  7 16  2  0
 16  2  1  0
 15 10  1  0
A    1
 C1 
A    2
 C2 
A    3
 C3 
A    4
 N1 
A    5
 C4 
A    6
 O1 
A    7
 C5 
A    8
 C6 
A    9
 C7 
A   10
 C8 
A   11
 C9 
A   12
 C10
A   13
 C11
A   14
 C12
A   15
 C13
A   16
 C14
M  END
>  <ref_pdb>  (71) 
Ax0310a

>  <ref_mols>  (71) 
Ax0416a,Ax0556a

>  <original SMILES>  (71) 
Cc1cnc(O)c(/C=C/c2ccccc2)c1

>  <rationale>  (71) 
info hbond:G127; hydroph_interaction:V124+Y90+T126+V84; 

>  <intxn_cluster_10>  (71) 
0

>  <intxn_cluster_rank_10>  (71) 
14

>  <N_interactions>  (71) 
6

>  <∆∆G>  (71) 
-10.030031

>  <$/mg>  (71) 
163.0

>  <comRMSD>  (71) 
0.601274

>  <N_rotatable_bonds>  (71) 
4

>  <deep_P1_sidechain>  (71) 
True

>  <farthest_distance_to_substrate>  (71) 
2.411295

>  <hbond:SER:7>  (71) 
hbond:SER:7    0
hbond:SER:7    0
Name: 69, dtype: object

>  <hydroph_interaction:ASN:19>  (71) 
hydroph_interaction:ASN:19    0
hydroph_interaction:ASN:19    0
Name: 69, dtype: object

>  <halogenbond:ASN:19>  (71) 
halogenbond:ASN:19    0
halogenbond:ASN:19    0
Name: 69, dtype: object

>  <hbond:ARG:20>  (71) 
hbond:ARG:20    0
hbond:ARG:20    0
Name: 69, dtype: object

>  <hydroph_interaction:ARG:20>  (71) 
hydroph_interaction:ARG:20    0
hydroph_interaction:ARG:20    0
Name: 69, dtype: object

>  <hbond:HIS:21>  (71) 
hbond:HIS:21    0
hbond:HIS:21    0
Name: 69, dtype: object

>  <hydroph_interaction:HIS:21>  (71) 
hydroph_interaction:HIS:21    0
hydroph_interaction:HIS:21    0
Name: 69, dtype: object

>  <saltbridge:HIS:21>  (71) 
saltbridge:HIS:21    0
saltbridge:HIS:21    0
Name: 69, dtype: object

>  <pistack:HIS:21>  (71) 
pistack:HIS:21    0
pistack:HIS:21    0
Name: 69, dtype: object

>  <pication:HIS:21>  (71) 
pication:HIS:21    0
pication:HIS:21    0
Name: 69, dtype: object

>  <hydroph_interaction:LEU:22>  (71) 
hydroph_interaction:LEU:22    0
hydroph_interaction:LEU:22    0
Name: 69, dtype: object

>  <hbond:SER:36>  (71) 
hbond:SER:36    0
hbond:SER:36    0
Name: 69, dtype: object

>  <hbond:ASP:39>  (71) 
hbond:ASP:39    0
hbond:ASP:39    0
Name: 69, dtype: object

>  <saltbridge:ASP:39>  (71) 
saltbridge:ASP:39    0
saltbridge:ASP:39    0
Name: 69, dtype: object

>  <hydroph_interaction:ASP:39>  (71) 
hydroph_interaction:ASP:39    0
hydroph_interaction:ASP:39    0
Name: 69, dtype: object

>  <halogenbond:ASP:39>  (71) 
halogenbond:ASP:39    0
halogenbond:ASP:39    0
Name: 69, dtype: object

>  <hydroph_interaction:ILE:82>  (71) 
hydroph_interaction:ILE:82    0
hydroph_interaction:ILE:82    0
Name: 69, dtype: object

>  <hydroph_interaction:PHE:83>  (71) 
hydroph_interaction:PHE:83    0
hydroph_interaction:PHE:83    0
Name: 69, dtype: object

>  <hbond:PHE:83>  (71) 
hbond:PHE:83    0
hbond:PHE:83    0
Name: 69, dtype: object

>  <halogenbond:PHE:83>  (71) 
halogenbond:PHE:83    0
halogenbond:PHE:83    0
Name: 69, dtype: object

>  <hydroph_interaction:VAL:84>  (71) 
hydroph_interaction:VAL:84    1
hydroph_interaction:VAL:84    1
Name: 69, dtype: object

>  <hydroph_interaction:GLU:85>  (71) 
hydroph_interaction:GLU:85    0
hydroph_interaction:GLU:85    0
Name: 69, dtype: object

>  <hbond:GLU:85>  (71) 
hbond:GLU:85    0
hbond:GLU:85    0
Name: 69, dtype: object

>  <halogenbond:GLU:85>  (71) 
halogenbond:GLU:85    0
halogenbond:GLU:85    0
Name: 69, dtype: object

>  <halogenbond:ALA:86>  (71) 
halogenbond:ALA:86    0
halogenbond:ALA:86    0
Name: 69, dtype: object

>  <hbond:SER:87>  (71) 
hbond:SER:87    0
hbond:SER:87    0
Name: 69, dtype: object

>  <halogenbond:SER:87>  (71) 
halogenbond:SER:87    0
halogenbond:SER:87    0
Name: 69, dtype: object

>  <hbond:GLU:88>  (71) 
hbond:GLU:88    0
hbond:GLU:88    0
Name: 69, dtype: object

>  <halogenbond:GLU:88>  (71) 
halogenbond:GLU:88    0
halogenbond:GLU:88    0
Name: 69, dtype: object

>  <hydroph_interaction:TYR:89>  (71) 
hydroph_interaction:TYR:89    0
hydroph_interaction:TYR:89    0
Name: 69, dtype: object

>  <pistack:TYR:89>  (71) 
pistack:TYR:89    0
pistack:TYR:89    0
Name: 69, dtype: object

>  <hbond:TYR:89>  (71) 
hbond:TYR:89    0
hbond:TYR:89    0
Name: 69, dtype: object

>  <hbond:TYR:90>  (71) 
hbond:TYR:90    0
hbond:TYR:90    0
Name: 69, dtype: object

>  <hydroph_interaction:TYR:90>  (71) 
hydroph_interaction:TYR:90    2
hydroph_interaction:TYR:90    2
Name: 69, dtype: object

>  <pistack:TYR:90>  (71) 
pistack:TYR:90    0
pistack:TYR:90    0
Name: 69, dtype: object

>  <hbond:ARG:93>  (71) 
hbond:ARG:93    0
hbond:ARG:93    0
Name: 69, dtype: object

>  <saltbridge:ARG:93>  (71) 
saltbridge:ARG:93    0
saltbridge:ARG:93    0
Name: 69, dtype: object

>  <hydroph_interaction:ARG:93>  (71) 
hydroph_interaction:ARG:93    0
hydroph_interaction:ARG:93    0
Name: 69, dtype: object

>  <halogenbond:GLN:95>  (71) 
halogenbond:GLN:95    0
halogenbond:GLN:95    0
Name: 69, dtype: object

>  <hbond:GLN:95>  (71) 
hbond:GLN:95    0
hbond:GLN:95    0
Name: 69, dtype: object

>  <hydroph_interaction:GLN:95>  (71) 
hydroph_interaction:GLN:95    0
hydroph_interaction:GLN:95    0
Name: 69, dtype: object

>  <hydroph_interaction:LEU:98>  (71) 
hydroph_interaction:LEU:98    0
hydroph_interaction:LEU:98    0
Name: 69, dtype: object

>  <hydroph_interaction:LEU:100>  (71) 
hydroph_interaction:LEU:100    0
hydroph_interaction:LEU:100    0
Name: 69, dtype: object

>  <hbond:SER:105>  (71) 
hbond:SER:105    0
hbond:SER:105    0
Name: 69, dtype: object

>  <halogenbond:SER:105>  (71) 
halogenbond:SER:105    0
halogenbond:SER:105    0
Name: 69, dtype: object

>  <hydroph_interaction:PRO:107>  (71) 
hydroph_interaction:PRO:107    0
hydroph_interaction:PRO:107    0
Name: 69, dtype: object

>  <hbond:PRO:107>  (71) 
hbond:PRO:107    0
hbond:PRO:107    0
Name: 69, dtype: object

>  <halogenbond:PRO:107>  (71) 
halogenbond:PRO:107    0
halogenbond:PRO:107    0
Name: 69, dtype: object

>  <hbond:ASP:109>  (71) 
hbond:ASP:109    0
hbond:ASP:109    0
Name: 69, dtype: object

>  <hbond:CYS:110>  (71) 
hbond:CYS:110    0
hbond:CYS:110    0
Name: 69, dtype: object

>  <halogenbond:CYS:110>  (71) 
halogenbond:CYS:110    0
halogenbond:CYS:110    0
Name: 69, dtype: object

>  <hydroph_interaction:VAL:124>  (71) 
hydroph_interaction:VAL:124    1
hydroph_interaction:VAL:124    1
Name: 69, dtype: object

>  <hbond:SER:125>  (71) 
hbond:SER:125    0
hbond:SER:125    0
Name: 69, dtype: object

>  <halogenbond:SER:125>  (71) 
halogenbond:SER:125    0
halogenbond:SER:125    0
Name: 69, dtype: object

>  <hydroph_interaction:THR:126>  (71) 
hydroph_interaction:THR:126    1
hydroph_interaction:THR:126    1
Name: 69, dtype: object

>  <hbond:THR:126>  (71) 
hbond:THR:126    0
hbond:THR:126    0
Name: 69, dtype: object

>  <halogenbond:THR:126>  (71) 
halogenbond:THR:126    0
halogenbond:THR:126    0
Name: 69, dtype: object

>  <hbond:GLY:127>  (71) 
hbond:GLY:127    1
hbond:GLY:127    1
Name: 69, dtype: object

>  <halogenbond:GLY:127>  (71) 
halogenbond:GLY:127    0
halogenbond:GLY:127    0
Name: 69, dtype: object

>  <hbond:GLY:128>  (71) 
hbond:GLY:128    0
hbond:GLY:128    0
Name: 69, dtype: object

>  <hbond:ASN:129>  (71) 
hbond:ASN:129    0
hbond:ASN:129    0
Name: 69, dtype: object

>  <hydroph_interaction:ASN:129>  (71) 
hydroph_interaction:ASN:129    0
hydroph_interaction:ASN:129    0
Name: 69, dtype: object

>  <halogenbond:ASN:129>  (71) 
halogenbond:ASN:129    0
halogenbond:ASN:129    0
Name: 69, dtype: object

>  <hydroph_interaction:LEU:131>  (71) 
hydroph_interaction:LEU:131    0
hydroph_interaction:LEU:131    0
Name: 69, dtype: object

>  <hbond:LEU:131>  (71) 
hbond:LEU:131    0
hbond:LEU:131    0
Name: 69, dtype: object

>  <halogenbond:LEU:131>  (71) 
halogenbond:LEU:131    0
halogenbond:LEU:131    0
Name: 69, dtype: object

>  <hbond:VAL:132>  (71) 
hbond:VAL:132    0
hbond:VAL:132    0
Name: 69, dtype: object

$$$$
PV_003068590305
     RDKit          3D

 18 18  0  0  0  0  0  0  0  0999 V2000
   26.7396   13.5231    5.4852 C   0  0  0  0  0  0  0  0  0  0  0  0
   25.9458   12.2520    5.7513 C   0  0  2  0  0  0  0  0  0  0  0  0
   24.5915   12.2264    5.0913 C   0  0  0  0  0  0  0  0  0  0  0  0
   24.0545   10.8495    5.1731 C   0  0  0  0  0  0  0  0  0  0  0  0
   23.7640   10.5697    6.6452 C   0  0  2  0  0  0  0  0  0  0  0  0
   22.2555   10.4262    6.8398 C   0  0  0  0  0  0  0  0  0  0  0  0
   21.6720    9.4504    7.3077 O   0  0  0  0  0  0  0  0  0  0  0  0
   21.5740   11.5123    6.4235 O   0  0  0  0  0  0  0  0  0  0  0  0
   24.3865   11.6854    7.5530 C   0  0  0  0  0  0  0  0  0  0  0  0
   25.7855   11.9689    7.1327 N   0  0  0  0  0  0  0  0  0  0  0  0
   26.8457   12.3762    8.1023 C   0  0  0  0  0  0  0  0  0  0  0  0
   26.8226   13.4429    8.7141 O   0  0  0  0  0  0  0  0  0  0  0  0
   27.9592   11.3231    8.2633 C   0  0  0  0  0  0  0  0  0  0  0  0
   29.3956   11.6247    7.9525 C   0  0  0  0  0  0  0  0  0  0  0  0
   30.1957   10.4023    8.2217 N   0  0  0  0  0  0  0  0  0  0  0  0
   31.2900   10.0121    7.4829 C   0  0  0  0  0  0  0  0  0  0  0  0
   31.7848   11.0365    6.7429 N   0  0  0  0  0  0  0  0  0  0  0  0
   31.8113    8.8939    7.4476 O   0  0  0  0  0  0  0  0  0  0  0  0
  2  1  1  1
  2  3  1  0
  3  4  1  0
  4  5  1  0
  5  6  1  6
  6  7  2  0
  6  8  1  0
  5  9  1  0
  9 10  1  0
 10 11  1  0
 11 12  2  0
 11 13  1  0
 13 14  1  0
 14 15  1  0
 15 16  1  0
 16 17  1  0
 16 18  2  0
 10  2  1  0
A    1
 C1 
A    2
 C2 
A    3
 C3 
A    4
 C4 
A    5
 C5 
A    6
 C6 
A    7
 O1 
A    8
 O2 
A    9
 C7 
A   10
 N1 
A   11
 C8 
A   12
 O3 
A   13
 C9 
A   14
 C10
A   15
 N2 
A   16
 C11
A   17
 N3 
A   18
 O4 
M  END
>  <ref_pdb>  (72) 
Ax0310a

>  <ref_mols>  (72) 
Ax0450a,Ax1140a

>  <original SMILES>  (72) 
CC1CCC(C(=O)O)CN1C(=O)CCNC(N)=O

>  <rationale>  (72) 
info hbond:S125+G127+S7; hydroph_interaction:P107+Y89; 

>  <intxn_cluster_10>  (72) 
9

>  <intxn_cluster_rank_10>  (72) 
9

>  <N_interactions>  (72) 
6

>  <∆∆G>  (72) 
-3.479091

>  <$/mg>  (72) 
0.0

>  <comRMSD>  (72) 
0.850704

>  <N_rotatable_bonds>  (72) 
5

>  <deep_P1_sidechain>  (72) 
False

>  <farthest_distance_to_substrate>  (72) 
4.820208

>  <hbond:SER:7>  (72) 
hbond:SER:7    1
hbond:SER:7    1
Name: 70, dtype: object

>  <hydroph_interaction:ASN:19>  (72) 
hydroph_interaction:ASN:19    0
hydroph_interaction:ASN:19    0
Name: 70, dtype: object

>  <halogenbond:ASN:19>  (72) 
halogenbond:ASN:19    0
halogenbond:ASN:19    0
Name: 70, dtype: object

>  <hbond:ARG:20>  (72) 
hbond:ARG:20    0
hbond:ARG:20    0
Name: 70, dtype: object

>  <hydroph_interaction:ARG:20>  (72) 
hydroph_interaction:ARG:20    0
hydroph_interaction:ARG:20    0
Name: 70, dtype: object

>  <hbond:HIS:21>  (72) 
hbond:HIS:21    0
hbond:HIS:21    0
Name: 70, dtype: object

>  <hydroph_interaction:HIS:21>  (72) 
hydroph_interaction:HIS:21    0
hydroph_interaction:HIS:21    0
Name: 70, dtype: object

>  <saltbridge:HIS:21>  (72) 
saltbridge:HIS:21    0
saltbridge:HIS:21    0
Name: 70, dtype: object

>  <pistack:HIS:21>  (72) 
pistack:HIS:21    0
pistack:HIS:21    0
Name: 70, dtype: object

>  <pication:HIS:21>  (72) 
pication:HIS:21    0
pication:HIS:21    0
Name: 70, dtype: object

>  <hydroph_interaction:LEU:22>  (72) 
hydroph_interaction:LEU:22    0
hydroph_interaction:LEU:22    0
Name: 70, dtype: object

>  <hbond:SER:36>  (72) 
hbond:SER:36    0
hbond:SER:36    0
Name: 70, dtype: object

>  <hbond:ASP:39>  (72) 
hbond:ASP:39    0
hbond:ASP:39    0
Name: 70, dtype: object

>  <saltbridge:ASP:39>  (72) 
saltbridge:ASP:39    0
saltbridge:ASP:39    0
Name: 70, dtype: object

>  <hydroph_interaction:ASP:39>  (72) 
hydroph_interaction:ASP:39    0
hydroph_interaction:ASP:39    0
Name: 70, dtype: object

>  <halogenbond:ASP:39>  (72) 
halogenbond:ASP:39    0
halogenbond:ASP:39    0
Name: 70, dtype: object

>  <hydroph_interaction:ILE:82>  (72) 
hydroph_interaction:ILE:82    0
hydroph_interaction:ILE:82    0
Name: 70, dtype: object

>  <hydroph_interaction:PHE:83>  (72) 
hydroph_interaction:PHE:83    0
hydroph_interaction:PHE:83    0
Name: 70, dtype: object

>  <hbond:PHE:83>  (72) 
hbond:PHE:83    0
hbond:PHE:83    0
Name: 70, dtype: object

>  <halogenbond:PHE:83>  (72) 
halogenbond:PHE:83    0
halogenbond:PHE:83    0
Name: 70, dtype: object

>  <hydroph_interaction:VAL:84>  (72) 
hydroph_interaction:VAL:84    0
hydroph_interaction:VAL:84    0
Name: 70, dtype: object

>  <hydroph_interaction:GLU:85>  (72) 
hydroph_interaction:GLU:85    0
hydroph_interaction:GLU:85    0
Name: 70, dtype: object

>  <hbond:GLU:85>  (72) 
hbond:GLU:85    0
hbond:GLU:85    0
Name: 70, dtype: object

>  <halogenbond:GLU:85>  (72) 
halogenbond:GLU:85    0
halogenbond:GLU:85    0
Name: 70, dtype: object

>  <halogenbond:ALA:86>  (72) 
halogenbond:ALA:86    0
halogenbond:ALA:86    0
Name: 70, dtype: object

>  <hbond:SER:87>  (72) 
hbond:SER:87    0
hbond:SER:87    0
Name: 70, dtype: object

>  <halogenbond:SER:87>  (72) 
halogenbond:SER:87    0
halogenbond:SER:87    0
Name: 70, dtype: object

>  <hbond:GLU:88>  (72) 
hbond:GLU:88    0
hbond:GLU:88    0
Name: 70, dtype: object

>  <halogenbond:GLU:88>  (72) 
halogenbond:GLU:88    0
halogenbond:GLU:88    0
Name: 70, dtype: object

>  <hydroph_interaction:TYR:89>  (72) 
hydroph_interaction:TYR:89    2
hydroph_interaction:TYR:89    2
Name: 70, dtype: object

>  <pistack:TYR:89>  (72) 
pistack:TYR:89    0
pistack:TYR:89    0
Name: 70, dtype: object

>  <hbond:TYR:89>  (72) 
hbond:TYR:89    0
hbond:TYR:89    0
Name: 70, dtype: object

>  <hbond:TYR:90>  (72) 
hbond:TYR:90    0
hbond:TYR:90    0
Name: 70, dtype: object

>  <hydroph_interaction:TYR:90>  (72) 
hydroph_interaction:TYR:90    0
hydroph_interaction:TYR:90    0
Name: 70, dtype: object

>  <pistack:TYR:90>  (72) 
pistack:TYR:90    0
pistack:TYR:90    0
Name: 70, dtype: object

>  <hbond:ARG:93>  (72) 
hbond:ARG:93    0
hbond:ARG:93    0
Name: 70, dtype: object

>  <saltbridge:ARG:93>  (72) 
saltbridge:ARG:93    0
saltbridge:ARG:93    0
Name: 70, dtype: object

>  <hydroph_interaction:ARG:93>  (72) 
hydroph_interaction:ARG:93    0
hydroph_interaction:ARG:93    0
Name: 70, dtype: object

>  <halogenbond:GLN:95>  (72) 
halogenbond:GLN:95    0
halogenbond:GLN:95    0
Name: 70, dtype: object

>  <hbond:GLN:95>  (72) 
hbond:GLN:95    0
hbond:GLN:95    0
Name: 70, dtype: object

>  <hydroph_interaction:GLN:95>  (72) 
hydroph_interaction:GLN:95    0
hydroph_interaction:GLN:95    0
Name: 70, dtype: object

>  <hydroph_interaction:LEU:98>  (72) 
hydroph_interaction:LEU:98    0
hydroph_interaction:LEU:98    0
Name: 70, dtype: object

>  <hydroph_interaction:LEU:100>  (72) 
hydroph_interaction:LEU:100    0
hydroph_interaction:LEU:100    0
Name: 70, dtype: object

>  <hbond:SER:105>  (72) 
hbond:SER:105    0
hbond:SER:105    0
Name: 70, dtype: object

>  <halogenbond:SER:105>  (72) 
halogenbond:SER:105    0
halogenbond:SER:105    0
Name: 70, dtype: object

>  <hydroph_interaction:PRO:107>  (72) 
hydroph_interaction:PRO:107    1
hydroph_interaction:PRO:107    1
Name: 70, dtype: object

>  <hbond:PRO:107>  (72) 
hbond:PRO:107    0
hbond:PRO:107    0
Name: 70, dtype: object

>  <halogenbond:PRO:107>  (72) 
halogenbond:PRO:107    0
halogenbond:PRO:107    0
Name: 70, dtype: object

>  <hbond:ASP:109>  (72) 
hbond:ASP:109    0
hbond:ASP:109    0
Name: 70, dtype: object

>  <hbond:CYS:110>  (72) 
hbond:CYS:110    0
hbond:CYS:110    0
Name: 70, dtype: object

>  <halogenbond:CYS:110>  (72) 
halogenbond:CYS:110    0
halogenbond:CYS:110    0
Name: 70, dtype: object

>  <hydroph_interaction:VAL:124>  (72) 
hydroph_interaction:VAL:124    0
hydroph_interaction:VAL:124    0
Name: 70, dtype: object

>  <hbond:SER:125>  (72) 
hbond:SER:125    1
hbond:SER:125    1
Name: 70, dtype: object

>  <halogenbond:SER:125>  (72) 
halogenbond:SER:125    0
halogenbond:SER:125    0
Name: 70, dtype: object

>  <hydroph_interaction:THR:126>  (72) 
hydroph_interaction:THR:126    0
hydroph_interaction:THR:126    0
Name: 70, dtype: object

>  <hbond:THR:126>  (72) 
hbond:THR:126    0
hbond:THR:126    0
Name: 70, dtype: object

>  <halogenbond:THR:126>  (72) 
halogenbond:THR:126    0
halogenbond:THR:126    0
Name: 70, dtype: object

>  <hbond:GLY:127>  (72) 
hbond:GLY:127    1
hbond:GLY:127    1
Name: 70, dtype: object

>  <halogenbond:GLY:127>  (72) 
halogenbond:GLY:127    0
halogenbond:GLY:127    0
Name: 70, dtype: object

>  <hbond:GLY:128>  (72) 
hbond:GLY:128    0
hbond:GLY:128    0
Name: 70, dtype: object

>  <hbond:ASN:129>  (72) 
hbond:ASN:129    0
hbond:ASN:129    0
Name: 70, dtype: object

>  <hydroph_interaction:ASN:129>  (72) 
hydroph_interaction:ASN:129    0
hydroph_interaction:ASN:129    0
Name: 70, dtype: object

>  <halogenbond:ASN:129>  (72) 
halogenbond:ASN:129    0
halogenbond:ASN:129    0
Name: 70, dtype: object

>  <hydroph_interaction:LEU:131>  (72) 
hydroph_interaction:LEU:131    0
hydroph_interaction:LEU:131    0
Name: 70, dtype: object

>  <hbond:LEU:131>  (72) 
hbond:LEU:131    0
hbond:LEU:131    0
Name: 70, dtype: object

>  <halogenbond:LEU:131>  (72) 
halogenbond:LEU:131    0
halogenbond:LEU:131    0
Name: 70, dtype: object

>  <hbond:VAL:132>  (72) 
hbond:VAL:132    0
hbond:VAL:132    0
Name: 70, dtype: object

$$$$
Z4764827118
     RDKit          3D

 15 16  0  0  0  0  0  0  0  0999 V2000
   34.0963   12.3937    4.8381 C   0  0  0  0  0  0  0  0  0  0  0  0
   33.2011   11.5996    5.7671 C   0  0  0  0  0  0  0  0  0  0  0  0
   33.1553   10.2228    5.8986 C   0  0  0  0  0  0  0  0  0  0  0  0
   32.2545    9.6896    6.8211 C   0  0  0  0  0  0  0  0  0  0  0  0
   31.4190   10.4905    7.5900 C   0  0  0  0  0  0  0  0  0  0  0  0
   30.6627    9.7098    8.3801 C   0  0  0  0  0  0  0  0  0  0  0  0
   31.0275    8.3442    8.1109 C   0  0  0  0  0  0  0  0  0  0  0  0
   32.0190    8.3628    7.1505 O   0  0  0  0  0  0  0  0  0  0  0  0
   31.4546   11.8638    7.4755 C   0  0  0  0  0  0  0  0  0  0  0  0
   30.6083   12.5876    8.2912 N   0  0  0  0  0  0  0  0  0  0  0  0
   29.4398   13.1703    7.6941 C   0  0  0  0  0  0  0  0  0  0  0  0
   29.0901   14.3296    8.6071 C   0  0  1  0  0  0  0  0  0  0  0  0
   28.3170   15.3832    7.9052 C   0  0  0  0  0  0  0  0  0  0  0  0
   28.3385   13.8899    9.6482 F   0  0  0  0  0  0  0  0  0  0  0  0
   32.3245   12.4582    6.5788 N   0  0  0  0  0  0  0  0  0  0  0  0
  1  2  1  0
  2  3  2  0
  3  4  1  0
  4  5  2  0
  5  6  1  0
  6  7  2  0
  7  8  1  0
  5  9  1  0
  9 10  1  0
 10 11  1  0
 11 12  1  0
 12 13  1  6
 12 14  1  0
  9 15  2  0
 15  2  1  0
  8  4  1  0
A    1
 C1 
A    2
 C2 
A    3
 C3 
A    4
 C4 
A    5
 C5 
A    6
 C6 
A    7
 C7 
A    8
 O1 
A    9
 C8 
A   10
 N1 
A   11
 C9 
A   12
 C10
A   13
 C11
A   14
 F1 
A   15
 N2 
M  END
>  <ref_pdb>  (73) 
Ax0310a

>  <ref_mols>  (73) 
Ax0554a,Ax0739a

>  <original SMILES>  (73) 
Cc1cc2occc2c(NCC(C)F)n1

>  <rationale>  (73) 
info halogenbond:D39; hbond:S125; hydroph_interaction:Y89; 

>  <intxn_cluster_10>  (73) 
9

>  <intxn_cluster_rank_10>  (73) 
6

>  <N_interactions>  (73) 
3

>  <∆∆G>  (73) 
-8.984763

>  <$/mg>  (73) 
0.0

>  <comRMSD>  (73) 
0.896942

>  <N_rotatable_bonds>  (73) 
5

>  <deep_P1_sidechain>  (73) 
False

>  <farthest_distance_to_substrate>  (73) 
2.408146

>  <hbond:SER:7>  (73) 
hbond:SER:7    0
hbond:SER:7    0
Name: 71, dtype: object

>  <hydroph_interaction:ASN:19>  (73) 
hydroph_interaction:ASN:19    0
hydroph_interaction:ASN:19    0
Name: 71, dtype: object

>  <halogenbond:ASN:19>  (73) 
halogenbond:ASN:19    0
halogenbond:ASN:19    0
Name: 71, dtype: object

>  <hbond:ARG:20>  (73) 
hbond:ARG:20    0
hbond:ARG:20    0
Name: 71, dtype: object

>  <hydroph_interaction:ARG:20>  (73) 
hydroph_interaction:ARG:20    0
hydroph_interaction:ARG:20    0
Name: 71, dtype: object

>  <hbond:HIS:21>  (73) 
hbond:HIS:21    0
hbond:HIS:21    0
Name: 71, dtype: object

>  <hydroph_interaction:HIS:21>  (73) 
hydroph_interaction:HIS:21    0
hydroph_interaction:HIS:21    0
Name: 71, dtype: object

>  <saltbridge:HIS:21>  (73) 
saltbridge:HIS:21    0
saltbridge:HIS:21    0
Name: 71, dtype: object

>  <pistack:HIS:21>  (73) 
pistack:HIS:21    0
pistack:HIS:21    0
Name: 71, dtype: object

>  <pication:HIS:21>  (73) 
pication:HIS:21    0
pication:HIS:21    0
Name: 71, dtype: object

>  <hydroph_interaction:LEU:22>  (73) 
hydroph_interaction:LEU:22    0
hydroph_interaction:LEU:22    0
Name: 71, dtype: object

>  <hbond:SER:36>  (73) 
hbond:SER:36    0
hbond:SER:36    0
Name: 71, dtype: object

>  <hbond:ASP:39>  (73) 
hbond:ASP:39    0
hbond:ASP:39    0
Name: 71, dtype: object

>  <saltbridge:ASP:39>  (73) 
saltbridge:ASP:39    0
saltbridge:ASP:39    0
Name: 71, dtype: object

>  <hydroph_interaction:ASP:39>  (73) 
hydroph_interaction:ASP:39    0
hydroph_interaction:ASP:39    0
Name: 71, dtype: object

>  <halogenbond:ASP:39>  (73) 
halogenbond:ASP:39    1
halogenbond:ASP:39    1
Name: 71, dtype: object

>  <hydroph_interaction:ILE:82>  (73) 
hydroph_interaction:ILE:82    0
hydroph_interaction:ILE:82    0
Name: 71, dtype: object

>  <hydroph_interaction:PHE:83>  (73) 
hydroph_interaction:PHE:83    0
hydroph_interaction:PHE:83    0
Name: 71, dtype: object

>  <hbond:PHE:83>  (73) 
hbond:PHE:83    0
hbond:PHE:83    0
Name: 71, dtype: object

>  <halogenbond:PHE:83>  (73) 
halogenbond:PHE:83    0
halogenbond:PHE:83    0
Name: 71, dtype: object

>  <hydroph_interaction:VAL:84>  (73) 
hydroph_interaction:VAL:84    0
hydroph_interaction:VAL:84    0
Name: 71, dtype: object

>  <hydroph_interaction:GLU:85>  (73) 
hydroph_interaction:GLU:85    0
hydroph_interaction:GLU:85    0
Name: 71, dtype: object

>  <hbond:GLU:85>  (73) 
hbond:GLU:85    0
hbond:GLU:85    0
Name: 71, dtype: object

>  <halogenbond:GLU:85>  (73) 
halogenbond:GLU:85    0
halogenbond:GLU:85    0
Name: 71, dtype: object

>  <halogenbond:ALA:86>  (73) 
halogenbond:ALA:86    0
halogenbond:ALA:86    0
Name: 71, dtype: object

>  <hbond:SER:87>  (73) 
hbond:SER:87    0
hbond:SER:87    0
Name: 71, dtype: object

>  <halogenbond:SER:87>  (73) 
halogenbond:SER:87    0
halogenbond:SER:87    0
Name: 71, dtype: object

>  <hbond:GLU:88>  (73) 
hbond:GLU:88    0
hbond:GLU:88    0
Name: 71, dtype: object

>  <halogenbond:GLU:88>  (73) 
halogenbond:GLU:88    0
halogenbond:GLU:88    0
Name: 71, dtype: object

>  <hydroph_interaction:TYR:89>  (73) 
hydroph_interaction:TYR:89    1
hydroph_interaction:TYR:89    1
Name: 71, dtype: object

>  <pistack:TYR:89>  (73) 
pistack:TYR:89    0
pistack:TYR:89    0
Name: 71, dtype: object

>  <hbond:TYR:89>  (73) 
hbond:TYR:89    0
hbond:TYR:89    0
Name: 71, dtype: object

>  <hbond:TYR:90>  (73) 
hbond:TYR:90    0
hbond:TYR:90    0
Name: 71, dtype: object

>  <hydroph_interaction:TYR:90>  (73) 
hydroph_interaction:TYR:90    0
hydroph_interaction:TYR:90    0
Name: 71, dtype: object

>  <pistack:TYR:90>  (73) 
pistack:TYR:90    0
pistack:TYR:90    0
Name: 71, dtype: object

>  <hbond:ARG:93>  (73) 
hbond:ARG:93    0
hbond:ARG:93    0
Name: 71, dtype: object

>  <saltbridge:ARG:93>  (73) 
saltbridge:ARG:93    0
saltbridge:ARG:93    0
Name: 71, dtype: object

>  <hydroph_interaction:ARG:93>  (73) 
hydroph_interaction:ARG:93    0
hydroph_interaction:ARG:93    0
Name: 71, dtype: object

>  <halogenbond:GLN:95>  (73) 
halogenbond:GLN:95    0
halogenbond:GLN:95    0
Name: 71, dtype: object

>  <hbond:GLN:95>  (73) 
hbond:GLN:95    0
hbond:GLN:95    0
Name: 71, dtype: object

>  <hydroph_interaction:GLN:95>  (73) 
hydroph_interaction:GLN:95    0
hydroph_interaction:GLN:95    0
Name: 71, dtype: object

>  <hydroph_interaction:LEU:98>  (73) 
hydroph_interaction:LEU:98    0
hydroph_interaction:LEU:98    0
Name: 71, dtype: object

>  <hydroph_interaction:LEU:100>  (73) 
hydroph_interaction:LEU:100    0
hydroph_interaction:LEU:100    0
Name: 71, dtype: object

>  <hbond:SER:105>  (73) 
hbond:SER:105    0
hbond:SER:105    0
Name: 71, dtype: object

>  <halogenbond:SER:105>  (73) 
halogenbond:SER:105    0
halogenbond:SER:105    0
Name: 71, dtype: object

>  <hydroph_interaction:PRO:107>  (73) 
hydroph_interaction:PRO:107    0
hydroph_interaction:PRO:107    0
Name: 71, dtype: object

>  <hbond:PRO:107>  (73) 
hbond:PRO:107    0
hbond:PRO:107    0
Name: 71, dtype: object

>  <halogenbond:PRO:107>  (73) 
halogenbond:PRO:107    0
halogenbond:PRO:107    0
Name: 71, dtype: object

>  <hbond:ASP:109>  (73) 
hbond:ASP:109    0
hbond:ASP:109    0
Name: 71, dtype: object

>  <hbond:CYS:110>  (73) 
hbond:CYS:110    0
hbond:CYS:110    0
Name: 71, dtype: object

>  <halogenbond:CYS:110>  (73) 
halogenbond:CYS:110    0
halogenbond:CYS:110    0
Name: 71, dtype: object

>  <hydroph_interaction:VAL:124>  (73) 
hydroph_interaction:VAL:124    0
hydroph_interaction:VAL:124    0
Name: 71, dtype: object

>  <hbond:SER:125>  (73) 
hbond:SER:125    1
hbond:SER:125    1
Name: 71, dtype: object

>  <halogenbond:SER:125>  (73) 
halogenbond:SER:125    0
halogenbond:SER:125    0
Name: 71, dtype: object

>  <hydroph_interaction:THR:126>  (73) 
hydroph_interaction:THR:126    0
hydroph_interaction:THR:126    0
Name: 71, dtype: object

>  <hbond:THR:126>  (73) 
hbond:THR:126    0
hbond:THR:126    0
Name: 71, dtype: object

>  <halogenbond:THR:126>  (73) 
halogenbond:THR:126    0
halogenbond:THR:126    0
Name: 71, dtype: object

>  <hbond:GLY:127>  (73) 
hbond:GLY:127    0
hbond:GLY:127    0
Name: 71, dtype: object

>  <halogenbond:GLY:127>  (73) 
halogenbond:GLY:127    0
halogenbond:GLY:127    0
Name: 71, dtype: object

>  <hbond:GLY:128>  (73) 
hbond:GLY:128    0
hbond:GLY:128    0
Name: 71, dtype: object

>  <hbond:ASN:129>  (73) 
hbond:ASN:129    0
hbond:ASN:129    0
Name: 71, dtype: object

>  <hydroph_interaction:ASN:129>  (73) 
hydroph_interaction:ASN:129    0
hydroph_interaction:ASN:129    0
Name: 71, dtype: object

>  <halogenbond:ASN:129>  (73) 
halogenbond:ASN:129    0
halogenbond:ASN:129    0
Name: 71, dtype: object

>  <hydroph_interaction:LEU:131>  (73) 
hydroph_interaction:LEU:131    0
hydroph_interaction:LEU:131    0
Name: 71, dtype: object

>  <hbond:LEU:131>  (73) 
hbond:LEU:131    0
hbond:LEU:131    0
Name: 71, dtype: object

>  <halogenbond:LEU:131>  (73) 
halogenbond:LEU:131    0
halogenbond:LEU:131    0
Name: 71, dtype: object

>  <hbond:VAL:132>  (73) 
hbond:VAL:132    0
hbond:VAL:132    0
Name: 71, dtype: object

$$$$
Z847698764
     RDKit          3D

 21 22  0  0  0  0  0  0  0  0999 V2000
   26.1595   20.0435   12.6064 N   0  0  0  0  0  0  0  0  0  0  0  0
   25.8507   19.0256   11.7564 C   0  0  0  0  0  0  0  0  0  0  0  0
   25.1259   19.2495   10.5529 O   0  0  0  0  0  0  0  0  0  0  0  0
   26.2995   17.6513   12.2508 C   0  0  0  0  0  0  0  0  0  0  0  0
   27.3119   17.1388   11.7566 O   0  0  0  0  0  0  0  0  0  0  0  0
   27.3525   17.0732   10.4158 C   0  0  0  0  0  0  0  0  0  0  0  0
   27.1807   18.0163    9.7766 O   0  0  0  0  0  0  0  0  0  0  0  0
   27.6432   15.8030    9.9336 C   0  0  0  0  0  0  0  0  0  0  0  0
   27.4560   14.8843   10.8531 C   0  0  0  0  0  0  0  0  0  0  0  0
   27.6686   13.5737   10.5911 C   0  0  0  0  0  0  0  0  0  0  0  0
   28.0869   13.1398    9.4229 N   0  0  0  0  0  0  0  0  0  0  0  0
   28.3377   14.0961    8.4060 C   0  0  0  0  0  0  0  0  0  0  0  0
   28.9701   13.3353    6.9433 S   0  0  0  0  0  0  0  0  0  0  0  0
   30.0467   12.3728    8.0600 C   0  0  0  0  0  0  0  0  0  0  0  0
   30.9566   11.3167    7.4847 C   0  0  0  0  0  0  0  0  0  0  0  0
   30.8072    9.8928    8.0152 C   0  0  0  0  0  0  0  0  0  0  0  0
   31.7474    8.9227    7.4005 C   0  0  0  0  0  0  0  0  0  0  0  0
   32.6671    9.3136    6.4324 C   0  0  0  0  0  0  0  0  0  0  0  0
   32.7502   10.6244    5.9988 C   0  0  0  0  0  0  0  0  0  0  0  0
   31.9121   11.6133    6.5106 C   0  0  0  0  0  0  0  0  0  0  0  0
   28.1130   15.4309    8.6276 C   0  0  0  0  0  0  0  0  0  0  0  0
  1  2  1  0
  2  3  2  0
  2  4  1  0
  4  5  1  0
  5  6  1  0
  6  7  2  0
  6  8  1  0
  8  9  2  0
  9 10  1  0
 10 11  2  0
 11 12  1  0
 12 13  1  0
 13 14  1  0
 14 15  1  0
 15 16  2  0
 16 17  1  0
 17 18  2  0
 18 19  1  0
 19 20  2  0
 12 21  2  0
 21  8  1  0
 20 15  1  0
A    1
 N1 
A    2
 C1 
A    3
 O1 
A    4
 C2 
A    5
 O2 
A    6
 C3 
A    7
 O3 
A    8
 C4 
A    9
 C5 
A   10
 C6 
A   11
 N2 
A   12
 C7 
A   13
 S1 
A   14
 C8 
A   15
 C9 
A   16
 C10
A   17
 C11
A   18
 C12
A   19
 C13
A   20
 C14
A   21
 C15
M  END
>  <ref_pdb>  (74) 
Ax0310a

>  <ref_mols>  (74) 
Ax0554a,Ax0732a

>  <original SMILES>  (74) 
NC(=O)COC(=O)c1ccnc(SCc2ccccc2)c1

>  <rationale>  (74) 
info hbond:R93+S36; hydroph_interaction:P107+Y89+Y90+D39; pication:H21; saltbridge:H21+R93; 

>  <intxn_cluster_10>  (74) 
1

>  <intxn_cluster_rank_10>  (74) 
12

>  <N_interactions>  (74) 
10

>  <∆∆G>  (74) 
-3.818097

>  <$/mg>  (74) 
0.0

>  <comRMSD>  (74) 
0.833275

>  <N_rotatable_bonds>  (74) 
6

>  <deep_P1_sidechain>  (74) 
False

>  <farthest_distance_to_substrate>  (74) 
3.726824

>  <hbond:SER:7>  (74) 
hbond:SER:7    0
hbond:SER:7    0
Name: 72, dtype: object

>  <hydroph_interaction:ASN:19>  (74) 
hydroph_interaction:ASN:19    0
hydroph_interaction:ASN:19    0
Name: 72, dtype: object

>  <halogenbond:ASN:19>  (74) 
halogenbond:ASN:19    0
halogenbond:ASN:19    0
Name: 72, dtype: object

>  <hbond:ARG:20>  (74) 
hbond:ARG:20    0
hbond:ARG:20    0
Name: 72, dtype: object

>  <hydroph_interaction:ARG:20>  (74) 
hydroph_interaction:ARG:20    0
hydroph_interaction:ARG:20    0
Name: 72, dtype: object

>  <hbond:HIS:21>  (74) 
hbond:HIS:21    0
hbond:HIS:21    0
Name: 72, dtype: object

>  <hydroph_interaction:HIS:21>  (74) 
hydroph_interaction:HIS:21    0
hydroph_interaction:HIS:21    0
Name: 72, dtype: object

>  <saltbridge:HIS:21>  (74) 
saltbridge:HIS:21    1
saltbridge:HIS:21    1
Name: 72, dtype: object

>  <pistack:HIS:21>  (74) 
pistack:HIS:21    0
pistack:HIS:21    0
Name: 72, dtype: object

>  <pication:HIS:21>  (74) 
pication:HIS:21    1
pication:HIS:21    1
Name: 72, dtype: object

>  <hydroph_interaction:LEU:22>  (74) 
hydroph_interaction:LEU:22    0
hydroph_interaction:LEU:22    0
Name: 72, dtype: object

>  <hbond:SER:36>  (74) 
hbond:SER:36    1
hbond:SER:36    1
Name: 72, dtype: object

>  <hbond:ASP:39>  (74) 
hbond:ASP:39    0
hbond:ASP:39    0
Name: 72, dtype: object

>  <saltbridge:ASP:39>  (74) 
saltbridge:ASP:39    0
saltbridge:ASP:39    0
Name: 72, dtype: object

>  <hydroph_interaction:ASP:39>  (74) 
hydroph_interaction:ASP:39    1
hydroph_interaction:ASP:39    1
Name: 72, dtype: object

>  <halogenbond:ASP:39>  (74) 
halogenbond:ASP:39    0
halogenbond:ASP:39    0
Name: 72, dtype: object

>  <hydroph_interaction:ILE:82>  (74) 
hydroph_interaction:ILE:82    0
hydroph_interaction:ILE:82    0
Name: 72, dtype: object

>  <hydroph_interaction:PHE:83>  (74) 
hydroph_interaction:PHE:83    0
hydroph_interaction:PHE:83    0
Name: 72, dtype: object

>  <hbond:PHE:83>  (74) 
hbond:PHE:83    0
hbond:PHE:83    0
Name: 72, dtype: object

>  <halogenbond:PHE:83>  (74) 
halogenbond:PHE:83    0
halogenbond:PHE:83    0
Name: 72, dtype: object

>  <hydroph_interaction:VAL:84>  (74) 
hydroph_interaction:VAL:84    0
hydroph_interaction:VAL:84    0
Name: 72, dtype: object

>  <hydroph_interaction:GLU:85>  (74) 
hydroph_interaction:GLU:85    0
hydroph_interaction:GLU:85    0
Name: 72, dtype: object

>  <hbond:GLU:85>  (74) 
hbond:GLU:85    0
hbond:GLU:85    0
Name: 72, dtype: object

>  <halogenbond:GLU:85>  (74) 
halogenbond:GLU:85    0
halogenbond:GLU:85    0
Name: 72, dtype: object

>  <halogenbond:ALA:86>  (74) 
halogenbond:ALA:86    0
halogenbond:ALA:86    0
Name: 72, dtype: object

>  <hbond:SER:87>  (74) 
hbond:SER:87    0
hbond:SER:87    0
Name: 72, dtype: object

>  <halogenbond:SER:87>  (74) 
halogenbond:SER:87    0
halogenbond:SER:87    0
Name: 72, dtype: object

>  <hbond:GLU:88>  (74) 
hbond:GLU:88    0
hbond:GLU:88    0
Name: 72, dtype: object

>  <halogenbond:GLU:88>  (74) 
halogenbond:GLU:88    0
halogenbond:GLU:88    0
Name: 72, dtype: object

>  <hydroph_interaction:TYR:89>  (74) 
hydroph_interaction:TYR:89    1
hydroph_interaction:TYR:89    1
Name: 72, dtype: object

>  <pistack:TYR:89>  (74) 
pistack:TYR:89    0
pistack:TYR:89    0
Name: 72, dtype: object

>  <hbond:TYR:89>  (74) 
hbond:TYR:89    0
hbond:TYR:89    0
Name: 72, dtype: object

>  <hbond:TYR:90>  (74) 
hbond:TYR:90    0
hbond:TYR:90    0
Name: 72, dtype: object

>  <hydroph_interaction:TYR:90>  (74) 
hydroph_interaction:TYR:90    1
hydroph_interaction:TYR:90    1
Name: 72, dtype: object

>  <pistack:TYR:90>  (74) 
pistack:TYR:90    0
pistack:TYR:90    0
Name: 72, dtype: object

>  <hbond:ARG:93>  (74) 
hbond:ARG:93    2
hbond:ARG:93    2
Name: 72, dtype: object

>  <saltbridge:ARG:93>  (74) 
saltbridge:ARG:93    1
saltbridge:ARG:93    1
Name: 72, dtype: object

>  <hydroph_interaction:ARG:93>  (74) 
hydroph_interaction:ARG:93    0
hydroph_interaction:ARG:93    0
Name: 72, dtype: object

>  <halogenbond:GLN:95>  (74) 
halogenbond:GLN:95    0
halogenbond:GLN:95    0
Name: 72, dtype: object

>  <hbond:GLN:95>  (74) 
hbond:GLN:95    0
hbond:GLN:95    0
Name: 72, dtype: object

>  <hydroph_interaction:GLN:95>  (74) 
hydroph_interaction:GLN:95    0
hydroph_interaction:GLN:95    0
Name: 72, dtype: object

>  <hydroph_interaction:LEU:98>  (74) 
hydroph_interaction:LEU:98    0
hydroph_interaction:LEU:98    0
Name: 72, dtype: object

>  <hydroph_interaction:LEU:100>  (74) 
hydroph_interaction:LEU:100    0
hydroph_interaction:LEU:100    0
Name: 72, dtype: object

>  <hbond:SER:105>  (74) 
hbond:SER:105    0
hbond:SER:105    0
Name: 72, dtype: object

>  <halogenbond:SER:105>  (74) 
halogenbond:SER:105    0
halogenbond:SER:105    0
Name: 72, dtype: object

>  <hydroph_interaction:PRO:107>  (74) 
hydroph_interaction:PRO:107    1
hydroph_interaction:PRO:107    1
Name: 72, dtype: object

>  <hbond:PRO:107>  (74) 
hbond:PRO:107    0
hbond:PRO:107    0
Name: 72, dtype: object

>  <halogenbond:PRO:107>  (74) 
halogenbond:PRO:107    0
halogenbond:PRO:107    0
Name: 72, dtype: object

>  <hbond:ASP:109>  (74) 
hbond:ASP:109    0
hbond:ASP:109    0
Name: 72, dtype: object

>  <hbond:CYS:110>  (74) 
hbond:CYS:110    0
hbond:CYS:110    0
Name: 72, dtype: object

>  <halogenbond:CYS:110>  (74) 
halogenbond:CYS:110    0
halogenbond:CYS:110    0
Name: 72, dtype: object

>  <hydroph_interaction:VAL:124>  (74) 
hydroph_interaction:VAL:124    0
hydroph_interaction:VAL:124    0
Name: 72, dtype: object

>  <hbond:SER:125>  (74) 
hbond:SER:125    0
hbond:SER:125    0
Name: 72, dtype: object

>  <halogenbond:SER:125>  (74) 
halogenbond:SER:125    0
halogenbond:SER:125    0
Name: 72, dtype: object

>  <hydroph_interaction:THR:126>  (74) 
hydroph_interaction:THR:126    0
hydroph_interaction:THR:126    0
Name: 72, dtype: object

>  <hbond:THR:126>  (74) 
hbond:THR:126    0
hbond:THR:126    0
Name: 72, dtype: object

>  <halogenbond:THR:126>  (74) 
halogenbond:THR:126    0
halogenbond:THR:126    0
Name: 72, dtype: object

>  <hbond:GLY:127>  (74) 
hbond:GLY:127    0
hbond:GLY:127    0
Name: 72, dtype: object

>  <halogenbond:GLY:127>  (74) 
halogenbond:GLY:127    0
halogenbond:GLY:127    0
Name: 72, dtype: object

>  <hbond:GLY:128>  (74) 
hbond:GLY:128    0
hbond:GLY:128    0
Name: 72, dtype: object

>  <hbond:ASN:129>  (74) 
hbond:ASN:129    0
hbond:ASN:129    0
Name: 72, dtype: object

>  <hydroph_interaction:ASN:129>  (74) 
hydroph_interaction:ASN:129    0
hydroph_interaction:ASN:129    0
Name: 72, dtype: object

>  <halogenbond:ASN:129>  (74) 
halogenbond:ASN:129    0
halogenbond:ASN:129    0
Name: 72, dtype: object

>  <hydroph_interaction:LEU:131>  (74) 
hydroph_interaction:LEU:131    0
hydroph_interaction:LEU:131    0
Name: 72, dtype: object

>  <hbond:LEU:131>  (74) 
hbond:LEU:131    0
hbond:LEU:131    0
Name: 72, dtype: object

>  <halogenbond:LEU:131>  (74) 
halogenbond:LEU:131    0
halogenbond:LEU:131    0
Name: 72, dtype: object

>  <hbond:VAL:132>  (74) 
hbond:VAL:132    0
hbond:VAL:132    0
Name: 72, dtype: object

$$$$
Z3185382907
     RDKit          3D

 17 17  0  0  0  0  0  0  0  0999 V2000
   25.8451   12.9095    7.2542 C   0  0  0  0  0  0  0  0  0  0  0  0
   26.9214   13.3508    8.2384 C   0  0  0  0  0  0  0  0  0  0  0  0
   26.6621   13.1810    9.6021 C   0  0  0  0  0  0  0  0  0  0  0  0
   25.3388   12.8794    9.8717 C   0  0  0  0  0  0  0  0  0  0  0  0
   28.1976   13.9124    7.6856 C   0  0  0  0  0  0  0  0  0  0  0  0
   28.4054   15.1178    7.5524 O   0  0  0  0  0  0  0  0  0  0  0  0
   29.1165   12.9506    7.3108 N   0  0  0  0  0  0  0  0  0  0  0  0
   30.3490   12.7912    8.0292 C   0  0  0  0  0  0  0  0  0  0  0  0
   30.9857   11.4961    7.6500 C   0  0  0  0  0  0  0  0  0  0  0  0
   30.5645   10.3669    8.2962 C   0  0  0  0  0  0  0  0  0  0  0  0
   31.1577    9.0612    7.9641 C   0  0  0  0  0  0  0  0  0  0  0  0
   30.4949    8.0483    8.8352 C   0  0  0  0  0  0  0  0  0  0  0  0
   32.1400    8.9636    7.0022 C   0  0  0  0  0  0  0  0  0  0  0  0
   32.5487   10.1352    6.3621 C   0  0  0  0  0  0  0  0  0  0  0  0
   31.9917   11.3878    6.6697 C   0  0  0  0  0  0  0  0  0  0  0  0
   32.3554   12.5627    6.0791 O   0  0  0  0  0  0  0  0  0  0  0  0
   33.6163   13.1162    6.4503 C   0  0  0  0  0  0  0  0  0  0  0  0
  1  2  2  0
  2  3  1  0
  3  4  1  0
  2  5  1  0
  5  6  2  0
  5  7  1  0
  7  8  1  0
  8  9  1  0
  9 10  2  0
 10 11  1  0
 11 12  1  0
 11 13  2  0
 13 14  1  0
 14 15  2  0
 15 16  1  0
 16 17  1  0
 15  9  1  0
A    1
 C1 
A    2
 C2 
A    3
 C3 
A    4
 C4 
A    5
 C5 
A    6
 O1 
A    7
 N1 
A    8
 C6 
A    9
 C7 
A   10
 C8 
A   11
 C9 
A   12
 C10
A   13
 C11
A   14
 C12
A   15
 C13
A   16
 O2 
A   17
 C14
M  END
>  <ref_pdb>  (75) 
Ax0310a

>  <ref_mols>  (75) 
Ax0310a,Ax0554a

>  <original SMILES>  (75) 
C=C(CC)C(=O)NCc1cc(C)ccc1OC

>  <rationale>  (75) 
info hbond:S87; hydroph_interaction:V124+Y89+H21+N19; 

>  <intxn_cluster_10>  (75) 
2

>  <intxn_cluster_rank_10>  (75) 
13

>  <N_interactions>  (75) 
5

>  <∆∆G>  (75) 
-12.030671

>  <$/mg>  (75) 
163.0

>  <comRMSD>  (75) 
0.919413

>  <N_rotatable_bonds>  (75) 
8

>  <deep_P1_sidechain>  (75) 
True

>  <farthest_distance_to_substrate>  (75) 
3.152723

>  <hbond:SER:7>  (75) 
hbond:SER:7    0
hbond:SER:7    0
Name: 73, dtype: object

>  <hydroph_interaction:ASN:19>  (75) 
hydroph_interaction:ASN:19    1
hydroph_interaction:ASN:19    1
Name: 73, dtype: object

>  <halogenbond:ASN:19>  (75) 
halogenbond:ASN:19    0
halogenbond:ASN:19    0
Name: 73, dtype: object

>  <hbond:ARG:20>  (75) 
hbond:ARG:20    0
hbond:ARG:20    0
Name: 73, dtype: object

>  <hydroph_interaction:ARG:20>  (75) 
hydroph_interaction:ARG:20    0
hydroph_interaction:ARG:20    0
Name: 73, dtype: object

>  <hbond:HIS:21>  (75) 
hbond:HIS:21    0
hbond:HIS:21    0
Name: 73, dtype: object

>  <hydroph_interaction:HIS:21>  (75) 
hydroph_interaction:HIS:21    1
hydroph_interaction:HIS:21    1
Name: 73, dtype: object

>  <saltbridge:HIS:21>  (75) 
saltbridge:HIS:21    0
saltbridge:HIS:21    0
Name: 73, dtype: object

>  <pistack:HIS:21>  (75) 
pistack:HIS:21    0
pistack:HIS:21    0
Name: 73, dtype: object

>  <pication:HIS:21>  (75) 
pication:HIS:21    0
pication:HIS:21    0
Name: 73, dtype: object

>  <hydroph_interaction:LEU:22>  (75) 
hydroph_interaction:LEU:22    0
hydroph_interaction:LEU:22    0
Name: 73, dtype: object

>  <hbond:SER:36>  (75) 
hbond:SER:36    0
hbond:SER:36    0
Name: 73, dtype: object

>  <hbond:ASP:39>  (75) 
hbond:ASP:39    0
hbond:ASP:39    0
Name: 73, dtype: object

>  <saltbridge:ASP:39>  (75) 
saltbridge:ASP:39    0
saltbridge:ASP:39    0
Name: 73, dtype: object

>  <hydroph_interaction:ASP:39>  (75) 
hydroph_interaction:ASP:39    0
hydroph_interaction:ASP:39    0
Name: 73, dtype: object

>  <halogenbond:ASP:39>  (75) 
halogenbond:ASP:39    0
halogenbond:ASP:39    0
Name: 73, dtype: object

>  <hydroph_interaction:ILE:82>  (75) 
hydroph_interaction:ILE:82    0
hydroph_interaction:ILE:82    0
Name: 73, dtype: object

>  <hydroph_interaction:PHE:83>  (75) 
hydroph_interaction:PHE:83    0
hydroph_interaction:PHE:83    0
Name: 73, dtype: object

>  <hbond:PHE:83>  (75) 
hbond:PHE:83    0
hbond:PHE:83    0
Name: 73, dtype: object

>  <halogenbond:PHE:83>  (75) 
halogenbond:PHE:83    0
halogenbond:PHE:83    0
Name: 73, dtype: object

>  <hydroph_interaction:VAL:84>  (75) 
hydroph_interaction:VAL:84    0
hydroph_interaction:VAL:84    0
Name: 73, dtype: object

>  <hydroph_interaction:GLU:85>  (75) 
hydroph_interaction:GLU:85    0
hydroph_interaction:GLU:85    0
Name: 73, dtype: object

>  <hbond:GLU:85>  (75) 
hbond:GLU:85    0
hbond:GLU:85    0
Name: 73, dtype: object

>  <halogenbond:GLU:85>  (75) 
halogenbond:GLU:85    0
halogenbond:GLU:85    0
Name: 73, dtype: object

>  <halogenbond:ALA:86>  (75) 
halogenbond:ALA:86    0
halogenbond:ALA:86    0
Name: 73, dtype: object

>  <hbond:SER:87>  (75) 
hbond:SER:87    1
hbond:SER:87    1
Name: 73, dtype: object

>  <halogenbond:SER:87>  (75) 
halogenbond:SER:87    0
halogenbond:SER:87    0
Name: 73, dtype: object

>  <hbond:GLU:88>  (75) 
hbond:GLU:88    0
hbond:GLU:88    0
Name: 73, dtype: object

>  <halogenbond:GLU:88>  (75) 
halogenbond:GLU:88    0
halogenbond:GLU:88    0
Name: 73, dtype: object

>  <hydroph_interaction:TYR:89>  (75) 
hydroph_interaction:TYR:89    1
hydroph_interaction:TYR:89    1
Name: 73, dtype: object

>  <pistack:TYR:89>  (75) 
pistack:TYR:89    0
pistack:TYR:89    0
Name: 73, dtype: object

>  <hbond:TYR:89>  (75) 
hbond:TYR:89    0
hbond:TYR:89    0
Name: 73, dtype: object

>  <hbond:TYR:90>  (75) 
hbond:TYR:90    0
hbond:TYR:90    0
Name: 73, dtype: object

>  <hydroph_interaction:TYR:90>  (75) 
hydroph_interaction:TYR:90    0
hydroph_interaction:TYR:90    0
Name: 73, dtype: object

>  <pistack:TYR:90>  (75) 
pistack:TYR:90    0
pistack:TYR:90    0
Name: 73, dtype: object

>  <hbond:ARG:93>  (75) 
hbond:ARG:93    0
hbond:ARG:93    0
Name: 73, dtype: object

>  <saltbridge:ARG:93>  (75) 
saltbridge:ARG:93    0
saltbridge:ARG:93    0
Name: 73, dtype: object

>  <hydroph_interaction:ARG:93>  (75) 
hydroph_interaction:ARG:93    0
hydroph_interaction:ARG:93    0
Name: 73, dtype: object

>  <halogenbond:GLN:95>  (75) 
halogenbond:GLN:95    0
halogenbond:GLN:95    0
Name: 73, dtype: object

>  <hbond:GLN:95>  (75) 
hbond:GLN:95    0
hbond:GLN:95    0
Name: 73, dtype: object

>  <hydroph_interaction:GLN:95>  (75) 
hydroph_interaction:GLN:95    0
hydroph_interaction:GLN:95    0
Name: 73, dtype: object

>  <hydroph_interaction:LEU:98>  (75) 
hydroph_interaction:LEU:98    0
hydroph_interaction:LEU:98    0
Name: 73, dtype: object

>  <hydroph_interaction:LEU:100>  (75) 
hydroph_interaction:LEU:100    0
hydroph_interaction:LEU:100    0
Name: 73, dtype: object

>  <hbond:SER:105>  (75) 
hbond:SER:105    0
hbond:SER:105    0
Name: 73, dtype: object

>  <halogenbond:SER:105>  (75) 
halogenbond:SER:105    0
halogenbond:SER:105    0
Name: 73, dtype: object

>  <hydroph_interaction:PRO:107>  (75) 
hydroph_interaction:PRO:107    0
hydroph_interaction:PRO:107    0
Name: 73, dtype: object

>  <hbond:PRO:107>  (75) 
hbond:PRO:107    0
hbond:PRO:107    0
Name: 73, dtype: object

>  <halogenbond:PRO:107>  (75) 
halogenbond:PRO:107    0
halogenbond:PRO:107    0
Name: 73, dtype: object

>  <hbond:ASP:109>  (75) 
hbond:ASP:109    0
hbond:ASP:109    0
Name: 73, dtype: object

>  <hbond:CYS:110>  (75) 
hbond:CYS:110    0
hbond:CYS:110    0
Name: 73, dtype: object

>  <halogenbond:CYS:110>  (75) 
halogenbond:CYS:110    0
halogenbond:CYS:110    0
Name: 73, dtype: object

>  <hydroph_interaction:VAL:124>  (75) 
hydroph_interaction:VAL:124    1
hydroph_interaction:VAL:124    1
Name: 73, dtype: object

>  <hbond:SER:125>  (75) 
hbond:SER:125    0
hbond:SER:125    0
Name: 73, dtype: object

>  <halogenbond:SER:125>  (75) 
halogenbond:SER:125    0
halogenbond:SER:125    0
Name: 73, dtype: object

>  <hydroph_interaction:THR:126>  (75) 
hydroph_interaction:THR:126    0
hydroph_interaction:THR:126    0
Name: 73, dtype: object

>  <hbond:THR:126>  (75) 
hbond:THR:126    0
hbond:THR:126    0
Name: 73, dtype: object

>  <halogenbond:THR:126>  (75) 
halogenbond:THR:126    0
halogenbond:THR:126    0
Name: 73, dtype: object

>  <hbond:GLY:127>  (75) 
hbond:GLY:127    0
hbond:GLY:127    0
Name: 73, dtype: object

>  <halogenbond:GLY:127>  (75) 
halogenbond:GLY:127    0
halogenbond:GLY:127    0
Name: 73, dtype: object

>  <hbond:GLY:128>  (75) 
hbond:GLY:128    0
hbond:GLY:128    0
Name: 73, dtype: object

>  <hbond:ASN:129>  (75) 
hbond:ASN:129    0
hbond:ASN:129    0
Name: 73, dtype: object

>  <hydroph_interaction:ASN:129>  (75) 
hydroph_interaction:ASN:129    0
hydroph_interaction:ASN:129    0
Name: 73, dtype: object

>  <halogenbond:ASN:129>  (75) 
halogenbond:ASN:129    0
halogenbond:ASN:129    0
Name: 73, dtype: object

>  <hydroph_interaction:LEU:131>  (75) 
hydroph_interaction:LEU:131    0
hydroph_interaction:LEU:131    0
Name: 73, dtype: object

>  <hbond:LEU:131>  (75) 
hbond:LEU:131    0
hbond:LEU:131    0
Name: 73, dtype: object

>  <halogenbond:LEU:131>  (75) 
halogenbond:LEU:131    0
halogenbond:LEU:131    0
Name: 73, dtype: object

>  <hbond:VAL:132>  (75) 
hbond:VAL:132    0
hbond:VAL:132    0
Name: 73, dtype: object

$$$$
Z2596715545
     RDKit          3D

 13 13  0  0  0  0  0  0  0  0999 V2000
   38.7597   13.3416    8.6956 C   0  0  0  0  0  0  0  0  0  0  0  0
   39.7005   13.7697    9.7024 N   0  0  0  0  0  0  0  0  0  0  0  0
   40.2864   12.8332   10.5239 C   0  0  0  0  0  0  0  0  0  0  0  0
   41.4851   12.5824   10.5541 O   0  0  0  0  0  0  0  0  0  0  0  0
   39.2355   12.1304   11.3908 C   0  0  1  0  0  0  0  0  0  0  0  0
   38.2298   13.0844   11.9999 C   0  0  0  0  0  0  0  0  0  0  0  0
   37.1117   12.3661   12.7082 C   0  0  0  0  0  0  0  0  0  0  0  0
   36.7298   11.0576   12.0940 C   0  0  2  0  0  0  0  0  0  0  0  0
   36.4789   10.2174   13.2501 C   0  0  0  0  0  0  0  0  0  0  0  0
   35.9985   10.6684   14.2706 O   0  0  0  0  0  0  0  0  0  0  0  0
   36.8468    8.9458   13.0959 O   0  0  0  0  0  0  0  0  0  0  0  0
   37.8259   10.3829   11.3765 C   0  0  0  0  0  0  0  0  0  0  0  0
   38.4891   11.1585   10.5175 C   0  0  0  0  0  0  0  0  0  0  0  0
  1  2  1  0
  2  3  1  0
  3  4  2  0
  5  3  1  6
  5  6  1  0
  6  7  1  0
  7  8  1  0
  8  9  1  1
  9 10  2  0
  9 11  1  0
  8 12  1  0
 12 13  1  0
 13  5  1  0
A    1
 C1 
A    2
 N1 
A    3
 C2 
A    4
 O1 
A    5
 C3 
A    6
 C4 
A    7
 C5 
A    8
 C6 
A    9
 C7 
A   10
 O2 
A   11
 O3 
A   12
 C8 
A   13
 C9 
M  END
>  <ref_pdb>  (76) 
Ax0310a

>  <ref_mols>  (76) 
Ax0473a,Ax0351a

>  <original SMILES>  (76) 
CNC(=O)C1CCC(C(=O)O)CC1

>  <rationale>  (76) 
info hbond:T126+E85+N129+L131; hydroph_interaction:V84+L131; 

>  <intxn_cluster_10>  (76) 
4

>  <intxn_cluster_rank_10>  (76) 
7

>  <N_interactions>  (76) 
7

>  <∆∆G>  (76) 
-1.160549

>  <$/mg>  (76) 
0.0

>  <comRMSD>  (76) 
0.570815

>  <N_rotatable_bonds>  (76) 
3

>  <deep_P1_sidechain>  (76) 
False

>  <farthest_distance_to_substrate>  (76) 
4.574844

>  <hbond:SER:7>  (76) 
hbond:SER:7    0
hbond:SER:7    0
Name: 74, dtype: object

>  <hydroph_interaction:ASN:19>  (76) 
hydroph_interaction:ASN:19    0
hydroph_interaction:ASN:19    0
Name: 74, dtype: object

>  <halogenbond:ASN:19>  (76) 
halogenbond:ASN:19    0
halogenbond:ASN:19    0
Name: 74, dtype: object

>  <hbond:ARG:20>  (76) 
hbond:ARG:20    0
hbond:ARG:20    0
Name: 74, dtype: object

>  <hydroph_interaction:ARG:20>  (76) 
hydroph_interaction:ARG:20    0
hydroph_interaction:ARG:20    0
Name: 74, dtype: object

>  <hbond:HIS:21>  (76) 
hbond:HIS:21    0
hbond:HIS:21    0
Name: 74, dtype: object

>  <hydroph_interaction:HIS:21>  (76) 
hydroph_interaction:HIS:21    0
hydroph_interaction:HIS:21    0
Name: 74, dtype: object

>  <saltbridge:HIS:21>  (76) 
saltbridge:HIS:21    0
saltbridge:HIS:21    0
Name: 74, dtype: object

>  <pistack:HIS:21>  (76) 
pistack:HIS:21    0
pistack:HIS:21    0
Name: 74, dtype: object

>  <pication:HIS:21>  (76) 
pication:HIS:21    0
pication:HIS:21    0
Name: 74, dtype: object

>  <hydroph_interaction:LEU:22>  (76) 
hydroph_interaction:LEU:22    0
hydroph_interaction:LEU:22    0
Name: 74, dtype: object

>  <hbond:SER:36>  (76) 
hbond:SER:36    0
hbond:SER:36    0
Name: 74, dtype: object

>  <hbond:ASP:39>  (76) 
hbond:ASP:39    0
hbond:ASP:39    0
Name: 74, dtype: object

>  <saltbridge:ASP:39>  (76) 
saltbridge:ASP:39    0
saltbridge:ASP:39    0
Name: 74, dtype: object

>  <hydroph_interaction:ASP:39>  (76) 
hydroph_interaction:ASP:39    0
hydroph_interaction:ASP:39    0
Name: 74, dtype: object

>  <halogenbond:ASP:39>  (76) 
halogenbond:ASP:39    0
halogenbond:ASP:39    0
Name: 74, dtype: object

>  <hydroph_interaction:ILE:82>  (76) 
hydroph_interaction:ILE:82    0
hydroph_interaction:ILE:82    0
Name: 74, dtype: object

>  <hydroph_interaction:PHE:83>  (76) 
hydroph_interaction:PHE:83    0
hydroph_interaction:PHE:83    0
Name: 74, dtype: object

>  <hbond:PHE:83>  (76) 
hbond:PHE:83    0
hbond:PHE:83    0
Name: 74, dtype: object

>  <halogenbond:PHE:83>  (76) 
halogenbond:PHE:83    0
halogenbond:PHE:83    0
Name: 74, dtype: object

>  <hydroph_interaction:VAL:84>  (76) 
hydroph_interaction:VAL:84    2
hydroph_interaction:VAL:84    2
Name: 74, dtype: object

>  <hydroph_interaction:GLU:85>  (76) 
hydroph_interaction:GLU:85    0
hydroph_interaction:GLU:85    0
Name: 74, dtype: object

>  <hbond:GLU:85>  (76) 
hbond:GLU:85    1
hbond:GLU:85    1
Name: 74, dtype: object

>  <halogenbond:GLU:85>  (76) 
halogenbond:GLU:85    0
halogenbond:GLU:85    0
Name: 74, dtype: object

>  <halogenbond:ALA:86>  (76) 
halogenbond:ALA:86    0
halogenbond:ALA:86    0
Name: 74, dtype: object

>  <hbond:SER:87>  (76) 
hbond:SER:87    0
hbond:SER:87    0
Name: 74, dtype: object

>  <halogenbond:SER:87>  (76) 
halogenbond:SER:87    0
halogenbond:SER:87    0
Name: 74, dtype: object

>  <hbond:GLU:88>  (76) 
hbond:GLU:88    0
hbond:GLU:88    0
Name: 74, dtype: object

>  <halogenbond:GLU:88>  (76) 
halogenbond:GLU:88    0
halogenbond:GLU:88    0
Name: 74, dtype: object

>  <hydroph_interaction:TYR:89>  (76) 
hydroph_interaction:TYR:89    0
hydroph_interaction:TYR:89    0
Name: 74, dtype: object

>  <pistack:TYR:89>  (76) 
pistack:TYR:89    0
pistack:TYR:89    0
Name: 74, dtype: object

>  <hbond:TYR:89>  (76) 
hbond:TYR:89    0
hbond:TYR:89    0
Name: 74, dtype: object

>  <hbond:TYR:90>  (76) 
hbond:TYR:90    0
hbond:TYR:90    0
Name: 74, dtype: object

>  <hydroph_interaction:TYR:90>  (76) 
hydroph_interaction:TYR:90    0
hydroph_interaction:TYR:90    0
Name: 74, dtype: object

>  <pistack:TYR:90>  (76) 
pistack:TYR:90    0
pistack:TYR:90    0
Name: 74, dtype: object

>  <hbond:ARG:93>  (76) 
hbond:ARG:93    0
hbond:ARG:93    0
Name: 74, dtype: object

>  <saltbridge:ARG:93>  (76) 
saltbridge:ARG:93    0
saltbridge:ARG:93    0
Name: 74, dtype: object

>  <hydroph_interaction:ARG:93>  (76) 
hydroph_interaction:ARG:93    0
hydroph_interaction:ARG:93    0
Name: 74, dtype: object

>  <halogenbond:GLN:95>  (76) 
halogenbond:GLN:95    0
halogenbond:GLN:95    0
Name: 74, dtype: object

>  <hbond:GLN:95>  (76) 
hbond:GLN:95    0
hbond:GLN:95    0
Name: 74, dtype: object

>  <hydroph_interaction:GLN:95>  (76) 
hydroph_interaction:GLN:95    0
hydroph_interaction:GLN:95    0
Name: 74, dtype: object

>  <hydroph_interaction:LEU:98>  (76) 
hydroph_interaction:LEU:98    0
hydroph_interaction:LEU:98    0
Name: 74, dtype: object

>  <hydroph_interaction:LEU:100>  (76) 
hydroph_interaction:LEU:100    0
hydroph_interaction:LEU:100    0
Name: 74, dtype: object

>  <hbond:SER:105>  (76) 
hbond:SER:105    0
hbond:SER:105    0
Name: 74, dtype: object

>  <halogenbond:SER:105>  (76) 
halogenbond:SER:105    0
halogenbond:SER:105    0
Name: 74, dtype: object

>  <hydroph_interaction:PRO:107>  (76) 
hydroph_interaction:PRO:107    0
hydroph_interaction:PRO:107    0
Name: 74, dtype: object

>  <hbond:PRO:107>  (76) 
hbond:PRO:107    0
hbond:PRO:107    0
Name: 74, dtype: object

>  <halogenbond:PRO:107>  (76) 
halogenbond:PRO:107    0
halogenbond:PRO:107    0
Name: 74, dtype: object

>  <hbond:ASP:109>  (76) 
hbond:ASP:109    0
hbond:ASP:109    0
Name: 74, dtype: object

>  <hbond:CYS:110>  (76) 
hbond:CYS:110    0
hbond:CYS:110    0
Name: 74, dtype: object

>  <halogenbond:CYS:110>  (76) 
halogenbond:CYS:110    0
halogenbond:CYS:110    0
Name: 74, dtype: object

>  <hydroph_interaction:VAL:124>  (76) 
hydroph_interaction:VAL:124    0
hydroph_interaction:VAL:124    0
Name: 74, dtype: object

>  <hbond:SER:125>  (76) 
hbond:SER:125    0
hbond:SER:125    0
Name: 74, dtype: object

>  <halogenbond:SER:125>  (76) 
halogenbond:SER:125    0
halogenbond:SER:125    0
Name: 74, dtype: object

>  <hydroph_interaction:THR:126>  (76) 
hydroph_interaction:THR:126    0
hydroph_interaction:THR:126    0
Name: 74, dtype: object

>  <hbond:THR:126>  (76) 
hbond:THR:126    1
hbond:THR:126    1
Name: 74, dtype: object

>  <halogenbond:THR:126>  (76) 
halogenbond:THR:126    0
halogenbond:THR:126    0
Name: 74, dtype: object

>  <hbond:GLY:127>  (76) 
hbond:GLY:127    0
hbond:GLY:127    0
Name: 74, dtype: object

>  <halogenbond:GLY:127>  (76) 
halogenbond:GLY:127    0
halogenbond:GLY:127    0
Name: 74, dtype: object

>  <hbond:GLY:128>  (76) 
hbond:GLY:128    0
hbond:GLY:128    0
Name: 74, dtype: object

>  <hbond:ASN:129>  (76) 
hbond:ASN:129    1
hbond:ASN:129    1
Name: 74, dtype: object

>  <hydroph_interaction:ASN:129>  (76) 
hydroph_interaction:ASN:129    0
hydroph_interaction:ASN:129    0
Name: 74, dtype: object

>  <halogenbond:ASN:129>  (76) 
halogenbond:ASN:129    0
halogenbond:ASN:129    0
Name: 74, dtype: object

>  <hydroph_interaction:LEU:131>  (76) 
hydroph_interaction:LEU:131    1
hydroph_interaction:LEU:131    1
Name: 74, dtype: object

>  <hbond:LEU:131>  (76) 
hbond:LEU:131    1
hbond:LEU:131    1
Name: 74, dtype: object

>  <halogenbond:LEU:131>  (76) 
halogenbond:LEU:131    0
halogenbond:LEU:131    0
Name: 74, dtype: object

>  <hbond:VAL:132>  (76) 
hbond:VAL:132    0
hbond:VAL:132    0
Name: 74, dtype: object

$$$$
Z5089435414
     RDKit          3D

 16 17  0  0  0  0  0  0  0  0999 V2000
   27.9885   15.2704    8.4835 C   0  0  0  0  0  0  0  0  0  0  0  0
   28.7368   14.0401    8.9155 C   0  0  0  0  0  0  0  0  0  0  0  0
   29.6105   13.5607    7.8539 N   0  0  0  0  0  0  0  0  0  0  0  0
   28.9583   13.2633    6.5804 C   0  0  0  0  0  0  0  0  0  0  0  0
   30.8503   13.1082    8.2243 C   0  0  0  0  0  0  0  0  0  0  0  0
   31.6192   13.7500    8.9484 O   0  0  0  0  0  0  0  0  0  0  0  0
   31.3305   11.7669    7.7215 C   0  0  0  0  0  0  0  0  0  0  0  0
   30.6990   10.5730    8.2906 C   0  0  0  0  0  0  0  0  0  0  0  0
   31.0212    9.3018    7.9643 C   0  0  0  0  0  0  0  0  0  0  0  0
   30.3980    8.1186    8.5527 C   0  0  0  0  0  0  0  0  0  0  0  0
   32.0367    9.1533    6.9888 C   0  0  0  0  0  0  0  0  0  0  0  0
   32.7184   10.3721    6.3585 C   0  0  0  0  0  0  0  0  0  0  0  0
   32.3149   11.6190    6.7796 C   0  0  0  0  0  0  0  0  0  0  0  0
   33.0752   12.5172    6.0897 N   0  0  0  0  0  0  0  0  0  0  0  0
   33.8921   11.7796    5.2809 C   0  0  0  0  0  0  0  0  0  0  0  0
   33.6829   10.4802    5.4336 N   0  0  0  0  0  0  0  0  0  0  0  0
  1  2  1  0
  2  3  1  0
  3  4  1  0
  3  5  1  0
  5  6  2  0
  5  7  1  0
  7  8  2  0
  8  9  1  0
  9 10  1  0
  9 11  2  0
 11 12  1  0
 12 13  2  0
 13 14  1  0
 14 15  1  0
 15 16  2  0
 13  7  1  0
 16 12  1  0
A    1
 C1 
A    2
 C2 
A    3
 N1 
A    4
 C3 
A    5
 C4 
A    6
 O1 
A    7
 C5 
A    8
 C6 
A    9
 C7 
A   10
 C8 
A   11
 C9 
A   12
 C10
A   13
 C11
A   14
 N2 
A   15
 C12
A   16
 N3 
M  END
>  <ref_pdb>  (77) 
Ax0310a

>  <ref_mols>  (77) 
Ax0554a,Ax0732a

>  <original SMILES>  (77) 
CCN(C)C(=O)c1cc(C)cc2nc[nH]c12

>  <rationale>  (77) 
info hbond:S87; hydroph_interaction:V124+Y89+Y90; 

>  <intxn_cluster_10>  (77) 
0

>  <intxn_cluster_rank_10>  (77) 
16

>  <N_interactions>  (77) 
4

>  <∆∆G>  (77) 
-13.026752

>  <$/mg>  (77) 
163.0

>  <comRMSD>  (77) 
0.972789

>  <N_rotatable_bonds>  (77) 
5

>  <deep_P1_sidechain>  (77) 
True

>  <farthest_distance_to_substrate>  (77) 
2.175365

>  <hbond:SER:7>  (77) 
hbond:SER:7    0
hbond:SER:7    0
Name: 75, dtype: object

>  <hydroph_interaction:ASN:19>  (77) 
hydroph_interaction:ASN:19    0
hydroph_interaction:ASN:19    0
Name: 75, dtype: object

>  <halogenbond:ASN:19>  (77) 
halogenbond:ASN:19    0
halogenbond:ASN:19    0
Name: 75, dtype: object

>  <hbond:ARG:20>  (77) 
hbond:ARG:20    0
hbond:ARG:20    0
Name: 75, dtype: object

>  <hydroph_interaction:ARG:20>  (77) 
hydroph_interaction:ARG:20    0
hydroph_interaction:ARG:20    0
Name: 75, dtype: object

>  <hbond:HIS:21>  (77) 
hbond:HIS:21    0
hbond:HIS:21    0
Name: 75, dtype: object

>  <hydroph_interaction:HIS:21>  (77) 
hydroph_interaction:HIS:21    0
hydroph_interaction:HIS:21    0
Name: 75, dtype: object

>  <saltbridge:HIS:21>  (77) 
saltbridge:HIS:21    0
saltbridge:HIS:21    0
Name: 75, dtype: object

>  <pistack:HIS:21>  (77) 
pistack:HIS:21    0
pistack:HIS:21    0
Name: 75, dtype: object

>  <pication:HIS:21>  (77) 
pication:HIS:21    0
pication:HIS:21    0
Name: 75, dtype: object

>  <hydroph_interaction:LEU:22>  (77) 
hydroph_interaction:LEU:22    0
hydroph_interaction:LEU:22    0
Name: 75, dtype: object

>  <hbond:SER:36>  (77) 
hbond:SER:36    0
hbond:SER:36    0
Name: 75, dtype: object

>  <hbond:ASP:39>  (77) 
hbond:ASP:39    0
hbond:ASP:39    0
Name: 75, dtype: object

>  <saltbridge:ASP:39>  (77) 
saltbridge:ASP:39    0
saltbridge:ASP:39    0
Name: 75, dtype: object

>  <hydroph_interaction:ASP:39>  (77) 
hydroph_interaction:ASP:39    0
hydroph_interaction:ASP:39    0
Name: 75, dtype: object

>  <halogenbond:ASP:39>  (77) 
halogenbond:ASP:39    0
halogenbond:ASP:39    0
Name: 75, dtype: object

>  <hydroph_interaction:ILE:82>  (77) 
hydroph_interaction:ILE:82    0
hydroph_interaction:ILE:82    0
Name: 75, dtype: object

>  <hydroph_interaction:PHE:83>  (77) 
hydroph_interaction:PHE:83    0
hydroph_interaction:PHE:83    0
Name: 75, dtype: object

>  <hbond:PHE:83>  (77) 
hbond:PHE:83    0
hbond:PHE:83    0
Name: 75, dtype: object

>  <halogenbond:PHE:83>  (77) 
halogenbond:PHE:83    0
halogenbond:PHE:83    0
Name: 75, dtype: object

>  <hydroph_interaction:VAL:84>  (77) 
hydroph_interaction:VAL:84    0
hydroph_interaction:VAL:84    0
Name: 75, dtype: object

>  <hydroph_interaction:GLU:85>  (77) 
hydroph_interaction:GLU:85    0
hydroph_interaction:GLU:85    0
Name: 75, dtype: object

>  <hbond:GLU:85>  (77) 
hbond:GLU:85    0
hbond:GLU:85    0
Name: 75, dtype: object

>  <halogenbond:GLU:85>  (77) 
halogenbond:GLU:85    0
halogenbond:GLU:85    0
Name: 75, dtype: object

>  <halogenbond:ALA:86>  (77) 
halogenbond:ALA:86    0
halogenbond:ALA:86    0
Name: 75, dtype: object

>  <hbond:SER:87>  (77) 
hbond:SER:87    1
hbond:SER:87    1
Name: 75, dtype: object

>  <halogenbond:SER:87>  (77) 
halogenbond:SER:87    0
halogenbond:SER:87    0
Name: 75, dtype: object

>  <hbond:GLU:88>  (77) 
hbond:GLU:88    0
hbond:GLU:88    0
Name: 75, dtype: object

>  <halogenbond:GLU:88>  (77) 
halogenbond:GLU:88    0
halogenbond:GLU:88    0
Name: 75, dtype: object

>  <hydroph_interaction:TYR:89>  (77) 
hydroph_interaction:TYR:89    1
hydroph_interaction:TYR:89    1
Name: 75, dtype: object

>  <pistack:TYR:89>  (77) 
pistack:TYR:89    0
pistack:TYR:89    0
Name: 75, dtype: object

>  <hbond:TYR:89>  (77) 
hbond:TYR:89    0
hbond:TYR:89    0
Name: 75, dtype: object

>  <hbond:TYR:90>  (77) 
hbond:TYR:90    0
hbond:TYR:90    0
Name: 75, dtype: object

>  <hydroph_interaction:TYR:90>  (77) 
hydroph_interaction:TYR:90    1
hydroph_interaction:TYR:90    1
Name: 75, dtype: object

>  <pistack:TYR:90>  (77) 
pistack:TYR:90    0
pistack:TYR:90    0
Name: 75, dtype: object

>  <hbond:ARG:93>  (77) 
hbond:ARG:93    0
hbond:ARG:93    0
Name: 75, dtype: object

>  <saltbridge:ARG:93>  (77) 
saltbridge:ARG:93    0
saltbridge:ARG:93    0
Name: 75, dtype: object

>  <hydroph_interaction:ARG:93>  (77) 
hydroph_interaction:ARG:93    0
hydroph_interaction:ARG:93    0
Name: 75, dtype: object

>  <halogenbond:GLN:95>  (77) 
halogenbond:GLN:95    0
halogenbond:GLN:95    0
Name: 75, dtype: object

>  <hbond:GLN:95>  (77) 
hbond:GLN:95    0
hbond:GLN:95    0
Name: 75, dtype: object

>  <hydroph_interaction:GLN:95>  (77) 
hydroph_interaction:GLN:95    0
hydroph_interaction:GLN:95    0
Name: 75, dtype: object

>  <hydroph_interaction:LEU:98>  (77) 
hydroph_interaction:LEU:98    0
hydroph_interaction:LEU:98    0
Name: 75, dtype: object

>  <hydroph_interaction:LEU:100>  (77) 
hydroph_interaction:LEU:100    0
hydroph_interaction:LEU:100    0
Name: 75, dtype: object

>  <hbond:SER:105>  (77) 
hbond:SER:105    0
hbond:SER:105    0
Name: 75, dtype: object

>  <halogenbond:SER:105>  (77) 
halogenbond:SER:105    0
halogenbond:SER:105    0
Name: 75, dtype: object

>  <hydroph_interaction:PRO:107>  (77) 
hydroph_interaction:PRO:107    0
hydroph_interaction:PRO:107    0
Name: 75, dtype: object

>  <hbond:PRO:107>  (77) 
hbond:PRO:107    0
hbond:PRO:107    0
Name: 75, dtype: object

>  <halogenbond:PRO:107>  (77) 
halogenbond:PRO:107    0
halogenbond:PRO:107    0
Name: 75, dtype: object

>  <hbond:ASP:109>  (77) 
hbond:ASP:109    0
hbond:ASP:109    0
Name: 75, dtype: object

>  <hbond:CYS:110>  (77) 
hbond:CYS:110    0
hbond:CYS:110    0
Name: 75, dtype: object

>  <halogenbond:CYS:110>  (77) 
halogenbond:CYS:110    0
halogenbond:CYS:110    0
Name: 75, dtype: object

>  <hydroph_interaction:VAL:124>  (77) 
hydroph_interaction:VAL:124    1
hydroph_interaction:VAL:124    1
Name: 75, dtype: object

>  <hbond:SER:125>  (77) 
hbond:SER:125    0
hbond:SER:125    0
Name: 75, dtype: object

>  <halogenbond:SER:125>  (77) 
halogenbond:SER:125    0
halogenbond:SER:125    0
Name: 75, dtype: object

>  <hydroph_interaction:THR:126>  (77) 
hydroph_interaction:THR:126    0
hydroph_interaction:THR:126    0
Name: 75, dtype: object

>  <hbond:THR:126>  (77) 
hbond:THR:126    0
hbond:THR:126    0
Name: 75, dtype: object

>  <halogenbond:THR:126>  (77) 
halogenbond:THR:126    0
halogenbond:THR:126    0
Name: 75, dtype: object

>  <hbond:GLY:127>  (77) 
hbond:GLY:127    0
hbond:GLY:127    0
Name: 75, dtype: object

>  <halogenbond:GLY:127>  (77) 
halogenbond:GLY:127    0
halogenbond:GLY:127    0
Name: 75, dtype: object

>  <hbond:GLY:128>  (77) 
hbond:GLY:128    0
hbond:GLY:128    0
Name: 75, dtype: object

>  <hbond:ASN:129>  (77) 
hbond:ASN:129    0
hbond:ASN:129    0
Name: 75, dtype: object

>  <hydroph_interaction:ASN:129>  (77) 
hydroph_interaction:ASN:129    0
hydroph_interaction:ASN:129    0
Name: 75, dtype: object

>  <halogenbond:ASN:129>  (77) 
halogenbond:ASN:129    0
halogenbond:ASN:129    0
Name: 75, dtype: object

>  <hydroph_interaction:LEU:131>  (77) 
hydroph_interaction:LEU:131    0
hydroph_interaction:LEU:131    0
Name: 75, dtype: object

>  <hbond:LEU:131>  (77) 
hbond:LEU:131    0
hbond:LEU:131    0
Name: 75, dtype: object

>  <halogenbond:LEU:131>  (77) 
halogenbond:LEU:131    0
halogenbond:LEU:131    0
Name: 75, dtype: object

>  <hbond:VAL:132>  (77) 
hbond:VAL:132    0
hbond:VAL:132    0
Name: 75, dtype: object

$$$$
Z1607665206
     RDKit          3D

 16 16  0  0  0  0  0  0  0  0999 V2000
   38.0281   10.9009   10.6988 C   0  0  0  0  0  0  0  0  0  0  0  0
   37.1118   12.1031   10.6788 C   0  0  0  0  0  0  0  0  0  0  0  0
   37.5198   13.2974    9.3972 S   0  0  0  0  0  6  0  0  0  0  0  0
   38.1973   12.6200    8.3144 O   0  0  0  0  0  0  0  0  0  0  0  0
   38.2121   14.3389   10.1011 O   0  0  0  0  0  0  0  0  0  0  0  0
   35.9068   13.9054    8.8257 C   0  0  0  0  0  0  0  0  0  0  0  0
   35.6278   13.9070    7.4407 C   0  0  0  0  0  0  0  0  0  0  0  0
   33.8762   13.7468    6.8682 S   0  0  0  0  0  0  0  0  0  0  0  0
   33.6996   12.3008    5.7430 C   0  0  0  0  0  0  0  0  0  0  0  0
   32.7953   11.2936    6.4326 C   0  0  0  0  0  0  0  0  0  0  0  0
   31.7382   11.8068    7.2795 C   0  0  0  0  0  0  0  0  0  0  0  0
   30.8914   10.8397    7.9712 C   0  0  0  0  0  0  0  0  0  0  0  0
   31.1716    9.3802    7.7637 C   0  0  0  0  0  0  0  0  0  0  0  0
   30.3992    8.4479    8.4176 C   0  0  0  0  0  0  0  0  0  0  0  0
   32.2241    9.0711    6.9011 C   0  0  0  0  0  0  0  0  0  0  0  0
   33.0172    9.9660    6.2473 N   0  0  0  0  0  0  0  0  0  0  0  0
  1  2  1  0
  2  3  1  0
  3  4  2  0
  3  5  2  0
  3  6  1  0
  6  7  1  0
  7  8  1  0
  8  9  1  0
  9 10  1  0
 10 11  2  0
 11 12  1  0
 12 13  2  0
 13 14  1  0
 13 15  1  0
 15 16  2  0
 16 10  1  0
A    1
 C1 
A    2
 C2 
A    3
 S1 
A    4
 O1 
A    5
 O2 
A    6
 C3 
A    7
 C4 
A    8
 S2 
A    9
 C5 
A   10
 C6 
A   11
 C7 
A   12
 C8 
A   13
 C9 
A   14
 C10
A   15
 C11
A   16
 N1 
M  END
>  <ref_pdb>  (78) 
Ax0310a

>  <ref_mols>  (78) 
Ax0416a,Ax0365a

>  <original SMILES>  (78) 
CCS(=O)(=O)CCSCc1ccc(C)cn1

>  <rationale>  (78) 
info hydroph_interaction:V124+L131; 

>  <intxn_cluster_10>  (78) 
0

>  <intxn_cluster_rank_10>  (78) 
5

>  <N_interactions>  (78) 
2

>  <∆∆G>  (78) 
-10.92727

>  <$/mg>  (78) 
163.0

>  <comRMSD>  (78) 
0.670968

>  <N_rotatable_bonds>  (78) 
8

>  <deep_P1_sidechain>  (78) 
True

>  <farthest_distance_to_substrate>  (78) 
2.353648

>  <hbond:SER:7>  (78) 
hbond:SER:7    0
hbond:SER:7    0
Name: 76, dtype: object

>  <hydroph_interaction:ASN:19>  (78) 
hydroph_interaction:ASN:19    0
hydroph_interaction:ASN:19    0
Name: 76, dtype: object

>  <halogenbond:ASN:19>  (78) 
halogenbond:ASN:19    0
halogenbond:ASN:19    0
Name: 76, dtype: object

>  <hbond:ARG:20>  (78) 
hbond:ARG:20    0
hbond:ARG:20    0
Name: 76, dtype: object

>  <hydroph_interaction:ARG:20>  (78) 
hydroph_interaction:ARG:20    0
hydroph_interaction:ARG:20    0
Name: 76, dtype: object

>  <hbond:HIS:21>  (78) 
hbond:HIS:21    0
hbond:HIS:21    0
Name: 76, dtype: object

>  <hydroph_interaction:HIS:21>  (78) 
hydroph_interaction:HIS:21    0
hydroph_interaction:HIS:21    0
Name: 76, dtype: object

>  <saltbridge:HIS:21>  (78) 
saltbridge:HIS:21    0
saltbridge:HIS:21    0
Name: 76, dtype: object

>  <pistack:HIS:21>  (78) 
pistack:HIS:21    0
pistack:HIS:21    0
Name: 76, dtype: object

>  <pication:HIS:21>  (78) 
pication:HIS:21    0
pication:HIS:21    0
Name: 76, dtype: object

>  <hydroph_interaction:LEU:22>  (78) 
hydroph_interaction:LEU:22    0
hydroph_interaction:LEU:22    0
Name: 76, dtype: object

>  <hbond:SER:36>  (78) 
hbond:SER:36    0
hbond:SER:36    0
Name: 76, dtype: object

>  <hbond:ASP:39>  (78) 
hbond:ASP:39    0
hbond:ASP:39    0
Name: 76, dtype: object

>  <saltbridge:ASP:39>  (78) 
saltbridge:ASP:39    0
saltbridge:ASP:39    0
Name: 76, dtype: object

>  <hydroph_interaction:ASP:39>  (78) 
hydroph_interaction:ASP:39    0
hydroph_interaction:ASP:39    0
Name: 76, dtype: object

>  <halogenbond:ASP:39>  (78) 
halogenbond:ASP:39    0
halogenbond:ASP:39    0
Name: 76, dtype: object

>  <hydroph_interaction:ILE:82>  (78) 
hydroph_interaction:ILE:82    0
hydroph_interaction:ILE:82    0
Name: 76, dtype: object

>  <hydroph_interaction:PHE:83>  (78) 
hydroph_interaction:PHE:83    0
hydroph_interaction:PHE:83    0
Name: 76, dtype: object

>  <hbond:PHE:83>  (78) 
hbond:PHE:83    0
hbond:PHE:83    0
Name: 76, dtype: object

>  <halogenbond:PHE:83>  (78) 
halogenbond:PHE:83    0
halogenbond:PHE:83    0
Name: 76, dtype: object

>  <hydroph_interaction:VAL:84>  (78) 
hydroph_interaction:VAL:84    0
hydroph_interaction:VAL:84    0
Name: 76, dtype: object

>  <hydroph_interaction:GLU:85>  (78) 
hydroph_interaction:GLU:85    0
hydroph_interaction:GLU:85    0
Name: 76, dtype: object

>  <hbond:GLU:85>  (78) 
hbond:GLU:85    0
hbond:GLU:85    0
Name: 76, dtype: object

>  <halogenbond:GLU:85>  (78) 
halogenbond:GLU:85    0
halogenbond:GLU:85    0
Name: 76, dtype: object

>  <halogenbond:ALA:86>  (78) 
halogenbond:ALA:86    0
halogenbond:ALA:86    0
Name: 76, dtype: object

>  <hbond:SER:87>  (78) 
hbond:SER:87    0
hbond:SER:87    0
Name: 76, dtype: object

>  <halogenbond:SER:87>  (78) 
halogenbond:SER:87    0
halogenbond:SER:87    0
Name: 76, dtype: object

>  <hbond:GLU:88>  (78) 
hbond:GLU:88    0
hbond:GLU:88    0
Name: 76, dtype: object

>  <halogenbond:GLU:88>  (78) 
halogenbond:GLU:88    0
halogenbond:GLU:88    0
Name: 76, dtype: object

>  <hydroph_interaction:TYR:89>  (78) 
hydroph_interaction:TYR:89    0
hydroph_interaction:TYR:89    0
Name: 76, dtype: object

>  <pistack:TYR:89>  (78) 
pistack:TYR:89    0
pistack:TYR:89    0
Name: 76, dtype: object

>  <hbond:TYR:89>  (78) 
hbond:TYR:89    0
hbond:TYR:89    0
Name: 76, dtype: object

>  <hbond:TYR:90>  (78) 
hbond:TYR:90    0
hbond:TYR:90    0
Name: 76, dtype: object

>  <hydroph_interaction:TYR:90>  (78) 
hydroph_interaction:TYR:90    0
hydroph_interaction:TYR:90    0
Name: 76, dtype: object

>  <pistack:TYR:90>  (78) 
pistack:TYR:90    0
pistack:TYR:90    0
Name: 76, dtype: object

>  <hbond:ARG:93>  (78) 
hbond:ARG:93    0
hbond:ARG:93    0
Name: 76, dtype: object

>  <saltbridge:ARG:93>  (78) 
saltbridge:ARG:93    0
saltbridge:ARG:93    0
Name: 76, dtype: object

>  <hydroph_interaction:ARG:93>  (78) 
hydroph_interaction:ARG:93    0
hydroph_interaction:ARG:93    0
Name: 76, dtype: object

>  <halogenbond:GLN:95>  (78) 
halogenbond:GLN:95    0
halogenbond:GLN:95    0
Name: 76, dtype: object

>  <hbond:GLN:95>  (78) 
hbond:GLN:95    0
hbond:GLN:95    0
Name: 76, dtype: object

>  <hydroph_interaction:GLN:95>  (78) 
hydroph_interaction:GLN:95    0
hydroph_interaction:GLN:95    0
Name: 76, dtype: object

>  <hydroph_interaction:LEU:98>  (78) 
hydroph_interaction:LEU:98    0
hydroph_interaction:LEU:98    0
Name: 76, dtype: object

>  <hydroph_interaction:LEU:100>  (78) 
hydroph_interaction:LEU:100    0
hydroph_interaction:LEU:100    0
Name: 76, dtype: object

>  <hbond:SER:105>  (78) 
hbond:SER:105    0
hbond:SER:105    0
Name: 76, dtype: object

>  <halogenbond:SER:105>  (78) 
halogenbond:SER:105    0
halogenbond:SER:105    0
Name: 76, dtype: object

>  <hydroph_interaction:PRO:107>  (78) 
hydroph_interaction:PRO:107    0
hydroph_interaction:PRO:107    0
Name: 76, dtype: object

>  <hbond:PRO:107>  (78) 
hbond:PRO:107    0
hbond:PRO:107    0
Name: 76, dtype: object

>  <halogenbond:PRO:107>  (78) 
halogenbond:PRO:107    0
halogenbond:PRO:107    0
Name: 76, dtype: object

>  <hbond:ASP:109>  (78) 
hbond:ASP:109    0
hbond:ASP:109    0
Name: 76, dtype: object

>  <hbond:CYS:110>  (78) 
hbond:CYS:110    0
hbond:CYS:110    0
Name: 76, dtype: object

>  <halogenbond:CYS:110>  (78) 
halogenbond:CYS:110    0
halogenbond:CYS:110    0
Name: 76, dtype: object

>  <hydroph_interaction:VAL:124>  (78) 
hydroph_interaction:VAL:124    1
hydroph_interaction:VAL:124    1
Name: 76, dtype: object

>  <hbond:SER:125>  (78) 
hbond:SER:125    0
hbond:SER:125    0
Name: 76, dtype: object

>  <halogenbond:SER:125>  (78) 
halogenbond:SER:125    0
halogenbond:SER:125    0
Name: 76, dtype: object

>  <hydroph_interaction:THR:126>  (78) 
hydroph_interaction:THR:126    0
hydroph_interaction:THR:126    0
Name: 76, dtype: object

>  <hbond:THR:126>  (78) 
hbond:THR:126    0
hbond:THR:126    0
Name: 76, dtype: object

>  <halogenbond:THR:126>  (78) 
halogenbond:THR:126    0
halogenbond:THR:126    0
Name: 76, dtype: object

>  <hbond:GLY:127>  (78) 
hbond:GLY:127    0
hbond:GLY:127    0
Name: 76, dtype: object

>  <halogenbond:GLY:127>  (78) 
halogenbond:GLY:127    0
halogenbond:GLY:127    0
Name: 76, dtype: object

>  <hbond:GLY:128>  (78) 
hbond:GLY:128    0
hbond:GLY:128    0
Name: 76, dtype: object

>  <hbond:ASN:129>  (78) 
hbond:ASN:129    0
hbond:ASN:129    0
Name: 76, dtype: object

>  <hydroph_interaction:ASN:129>  (78) 
hydroph_interaction:ASN:129    0
hydroph_interaction:ASN:129    0
Name: 76, dtype: object

>  <halogenbond:ASN:129>  (78) 
halogenbond:ASN:129    0
halogenbond:ASN:129    0
Name: 76, dtype: object

>  <hydroph_interaction:LEU:131>  (78) 
hydroph_interaction:LEU:131    1
hydroph_interaction:LEU:131    1
Name: 76, dtype: object

>  <hbond:LEU:131>  (78) 
hbond:LEU:131    0
hbond:LEU:131    0
Name: 76, dtype: object

>  <halogenbond:LEU:131>  (78) 
halogenbond:LEU:131    0
halogenbond:LEU:131    0
Name: 76, dtype: object

>  <hbond:VAL:132>  (78) 
hbond:VAL:132    0
hbond:VAL:132    0
Name: 76, dtype: object

$$$$
PV_003057963240
     RDKit          3D

 19 20  0  0  0  0  0  0  0  0999 V2000
   30.3208    8.3067    8.5151 C   0  0  0  0  0  0  0  0  0  0  0  0
   30.9535    9.5303    7.9156 C   0  0  0  0  0  0  0  0  0  0  0  0
   32.0875    9.2818    6.9409 C   0  0  0  0  0  0  0  0  0  0  0  0
   32.6855   10.4073    6.3863 C   0  0  0  0  0  0  0  0  0  0  0  0
   32.1689   11.7875    6.7951 C   0  0  0  0  0  0  0  0  0  0  0  0
   32.7472   12.8962    6.2756 O   0  0  0  0  0  0  0  0  0  0  0  0
   33.6626   13.4233    7.2417 C   0  0  0  0  0  0  0  0  0  0  0  0
   34.6472   14.1339    6.5834 C   0  0  0  0  0  0  0  0  0  0  0  0
   34.7537   15.3484    7.1308 F   0  0  0  0  0  0  0  0  0  0  0  0
   34.2751   14.3071    5.2813 F   0  0  0  0  0  0  0  0  0  0  0  0
   35.8991   13.6094    6.6062 C   0  0  0  0  0  0  0  0  0  0  0  0
   36.5107   13.7195    7.8637 C   0  0  0  0  0  0  0  0  0  0  0  0
   37.9575   13.1873    7.8778 C   0  0  0  0  0  0  0  0  0  0  0  0
   38.5409   12.8571    6.5936 O   0  0  0  0  0  0  0  0  0  0  0  0
   38.1806   13.6182    5.4305 C   0  0  0  0  0  0  0  0  0  0  0  0
   36.7462   14.1368    5.4424 C   0  0  0  0  0  0  0  0  0  0  0  0
   31.1185   11.9368    7.6962 C   0  0  0  0  0  0  0  0  0  0  0  0
   30.6107   13.2830    8.1045 C   0  0  0  0  0  0  0  0  0  0  0  0
   30.5303   10.8059    8.2354 C   0  0  0  0  0  0  0  0  0  0  0  0
  1  2  1  0
  2  3  2  0
  3  4  1  0
  4  5  2  0
  5  6  1  0
  6  7  1  0
  7  8  1  0
  8  9  1  0
  8 10  1  0
  8 11  1  0
 11 12  1  0
 12 13  1  0
 13 14  1  0
 14 15  1  0
 15 16  1  0
  5 17  1  0
 17 18  1  0
 17 19  2  0
 19  2  1  0
 16 11  1  0
A    1
 C1 
A    2
 C2 
A    3
 C3 
A    4
 C4 
A    5
 C5 
A    6
 O1 
A    7
 C6 
A    8
 C7 
A    9
 F1 
A   10
 F2 
A   11
 C8 
A   12
 C9 
A   13
 C10
A   14
 O2 
A   15
 C11
A   16
 C12
A   17
 C13
A   18
 C14
A   19
 C15
M  END
>  <ref_pdb>  (79) 
Ax0310a

>  <ref_mols>  (79) 
Ax0556a,Ax0732a

>  <original SMILES>  (79) 
Cc1ccc(OCC(F)(F)C2CCOCC2)c(C)c1

>  <rationale>  (79) 
info halogenbond:E85; hydroph_interaction:V124+V84; 

>  <intxn_cluster_10>  (79) 
0

>  <intxn_cluster_rank_10>  (79) 
6

>  <N_interactions>  (79) 
3

>  <∆∆G>  (79) 
-6.327266

>  <$/mg>  (79) 
244.5

>  <comRMSD>  (79) 
0.60804

>  <N_rotatable_bonds>  (79) 
6

>  <deep_P1_sidechain>  (79) 
True

>  <farthest_distance_to_substrate>  (79) 
2.2626

>  <hbond:SER:7>  (79) 
hbond:SER:7    0
hbond:SER:7    0
Name: 77, dtype: object

>  <hydroph_interaction:ASN:19>  (79) 
hydroph_interaction:ASN:19    0
hydroph_interaction:ASN:19    0
Name: 77, dtype: object

>  <halogenbond:ASN:19>  (79) 
halogenbond:ASN:19    0
halogenbond:ASN:19    0
Name: 77, dtype: object

>  <hbond:ARG:20>  (79) 
hbond:ARG:20    0
hbond:ARG:20    0
Name: 77, dtype: object

>  <hydroph_interaction:ARG:20>  (79) 
hydroph_interaction:ARG:20    0
hydroph_interaction:ARG:20    0
Name: 77, dtype: object

>  <hbond:HIS:21>  (79) 
hbond:HIS:21    0
hbond:HIS:21    0
Name: 77, dtype: object

>  <hydroph_interaction:HIS:21>  (79) 
hydroph_interaction:HIS:21    0
hydroph_interaction:HIS:21    0
Name: 77, dtype: object

>  <saltbridge:HIS:21>  (79) 
saltbridge:HIS:21    0
saltbridge:HIS:21    0
Name: 77, dtype: object

>  <pistack:HIS:21>  (79) 
pistack:HIS:21    0
pistack:HIS:21    0
Name: 77, dtype: object

>  <pication:HIS:21>  (79) 
pication:HIS:21    0
pication:HIS:21    0
Name: 77, dtype: object

>  <hydroph_interaction:LEU:22>  (79) 
hydroph_interaction:LEU:22    0
hydroph_interaction:LEU:22    0
Name: 77, dtype: object

>  <hbond:SER:36>  (79) 
hbond:SER:36    0
hbond:SER:36    0
Name: 77, dtype: object

>  <hbond:ASP:39>  (79) 
hbond:ASP:39    0
hbond:ASP:39    0
Name: 77, dtype: object

>  <saltbridge:ASP:39>  (79) 
saltbridge:ASP:39    0
saltbridge:ASP:39    0
Name: 77, dtype: object

>  <hydroph_interaction:ASP:39>  (79) 
hydroph_interaction:ASP:39    0
hydroph_interaction:ASP:39    0
Name: 77, dtype: object

>  <halogenbond:ASP:39>  (79) 
halogenbond:ASP:39    0
halogenbond:ASP:39    0
Name: 77, dtype: object

>  <hydroph_interaction:ILE:82>  (79) 
hydroph_interaction:ILE:82    0
hydroph_interaction:ILE:82    0
Name: 77, dtype: object

>  <hydroph_interaction:PHE:83>  (79) 
hydroph_interaction:PHE:83    0
hydroph_interaction:PHE:83    0
Name: 77, dtype: object

>  <hbond:PHE:83>  (79) 
hbond:PHE:83    0
hbond:PHE:83    0
Name: 77, dtype: object

>  <halogenbond:PHE:83>  (79) 
halogenbond:PHE:83    0
halogenbond:PHE:83    0
Name: 77, dtype: object

>  <hydroph_interaction:VAL:84>  (79) 
hydroph_interaction:VAL:84    1
hydroph_interaction:VAL:84    1
Name: 77, dtype: object

>  <hydroph_interaction:GLU:85>  (79) 
hydroph_interaction:GLU:85    0
hydroph_interaction:GLU:85    0
Name: 77, dtype: object

>  <hbond:GLU:85>  (79) 
hbond:GLU:85    0
hbond:GLU:85    0
Name: 77, dtype: object

>  <halogenbond:GLU:85>  (79) 
halogenbond:GLU:85    1
halogenbond:GLU:85    1
Name: 77, dtype: object

>  <halogenbond:ALA:86>  (79) 
halogenbond:ALA:86    0
halogenbond:ALA:86    0
Name: 77, dtype: object

>  <hbond:SER:87>  (79) 
hbond:SER:87    0
hbond:SER:87    0
Name: 77, dtype: object

>  <halogenbond:SER:87>  (79) 
halogenbond:SER:87    0
halogenbond:SER:87    0
Name: 77, dtype: object

>  <hbond:GLU:88>  (79) 
hbond:GLU:88    0
hbond:GLU:88    0
Name: 77, dtype: object

>  <halogenbond:GLU:88>  (79) 
halogenbond:GLU:88    0
halogenbond:GLU:88    0
Name: 77, dtype: object

>  <hydroph_interaction:TYR:89>  (79) 
hydroph_interaction:TYR:89    0
hydroph_interaction:TYR:89    0
Name: 77, dtype: object

>  <pistack:TYR:89>  (79) 
pistack:TYR:89    0
pistack:TYR:89    0
Name: 77, dtype: object

>  <hbond:TYR:89>  (79) 
hbond:TYR:89    0
hbond:TYR:89    0
Name: 77, dtype: object

>  <hbond:TYR:90>  (79) 
hbond:TYR:90    0
hbond:TYR:90    0
Name: 77, dtype: object

>  <hydroph_interaction:TYR:90>  (79) 
hydroph_interaction:TYR:90    0
hydroph_interaction:TYR:90    0
Name: 77, dtype: object

>  <pistack:TYR:90>  (79) 
pistack:TYR:90    0
pistack:TYR:90    0
Name: 77, dtype: object

>  <hbond:ARG:93>  (79) 
hbond:ARG:93    0
hbond:ARG:93    0
Name: 77, dtype: object

>  <saltbridge:ARG:93>  (79) 
saltbridge:ARG:93    0
saltbridge:ARG:93    0
Name: 77, dtype: object

>  <hydroph_interaction:ARG:93>  (79) 
hydroph_interaction:ARG:93    0
hydroph_interaction:ARG:93    0
Name: 77, dtype: object

>  <halogenbond:GLN:95>  (79) 
halogenbond:GLN:95    0
halogenbond:GLN:95    0
Name: 77, dtype: object

>  <hbond:GLN:95>  (79) 
hbond:GLN:95    0
hbond:GLN:95    0
Name: 77, dtype: object

>  <hydroph_interaction:GLN:95>  (79) 
hydroph_interaction:GLN:95    0
hydroph_interaction:GLN:95    0
Name: 77, dtype: object

>  <hydroph_interaction:LEU:98>  (79) 
hydroph_interaction:LEU:98    0
hydroph_interaction:LEU:98    0
Name: 77, dtype: object

>  <hydroph_interaction:LEU:100>  (79) 
hydroph_interaction:LEU:100    0
hydroph_interaction:LEU:100    0
Name: 77, dtype: object

>  <hbond:SER:105>  (79) 
hbond:SER:105    0
hbond:SER:105    0
Name: 77, dtype: object

>  <halogenbond:SER:105>  (79) 
halogenbond:SER:105    0
halogenbond:SER:105    0
Name: 77, dtype: object

>  <hydroph_interaction:PRO:107>  (79) 
hydroph_interaction:PRO:107    0
hydroph_interaction:PRO:107    0
Name: 77, dtype: object

>  <hbond:PRO:107>  (79) 
hbond:PRO:107    0
hbond:PRO:107    0
Name: 77, dtype: object

>  <halogenbond:PRO:107>  (79) 
halogenbond:PRO:107    0
halogenbond:PRO:107    0
Name: 77, dtype: object

>  <hbond:ASP:109>  (79) 
hbond:ASP:109    0
hbond:ASP:109    0
Name: 77, dtype: object

>  <hbond:CYS:110>  (79) 
hbond:CYS:110    0
hbond:CYS:110    0
Name: 77, dtype: object

>  <halogenbond:CYS:110>  (79) 
halogenbond:CYS:110    0
halogenbond:CYS:110    0
Name: 77, dtype: object

>  <hydroph_interaction:VAL:124>  (79) 
hydroph_interaction:VAL:124    1
hydroph_interaction:VAL:124    1
Name: 77, dtype: object

>  <hbond:SER:125>  (79) 
hbond:SER:125    0
hbond:SER:125    0
Name: 77, dtype: object

>  <halogenbond:SER:125>  (79) 
halogenbond:SER:125    0
halogenbond:SER:125    0
Name: 77, dtype: object

>  <hydroph_interaction:THR:126>  (79) 
hydroph_interaction:THR:126    0
hydroph_interaction:THR:126    0
Name: 77, dtype: object

>  <hbond:THR:126>  (79) 
hbond:THR:126    0
hbond:THR:126    0
Name: 77, dtype: object

>  <halogenbond:THR:126>  (79) 
halogenbond:THR:126    0
halogenbond:THR:126    0
Name: 77, dtype: object

>  <hbond:GLY:127>  (79) 
hbond:GLY:127    0
hbond:GLY:127    0
Name: 77, dtype: object

>  <halogenbond:GLY:127>  (79) 
halogenbond:GLY:127    0
halogenbond:GLY:127    0
Name: 77, dtype: object

>  <hbond:GLY:128>  (79) 
hbond:GLY:128    0
hbond:GLY:128    0
Name: 77, dtype: object

>  <hbond:ASN:129>  (79) 
hbond:ASN:129    0
hbond:ASN:129    0
Name: 77, dtype: object

>  <hydroph_interaction:ASN:129>  (79) 
hydroph_interaction:ASN:129    0
hydroph_interaction:ASN:129    0
Name: 77, dtype: object

>  <halogenbond:ASN:129>  (79) 
halogenbond:ASN:129    0
halogenbond:ASN:129    0
Name: 77, dtype: object

>  <hydroph_interaction:LEU:131>  (79) 
hydroph_interaction:LEU:131    0
hydroph_interaction:LEU:131    0
Name: 77, dtype: object

>  <hbond:LEU:131>  (79) 
hbond:LEU:131    0
hbond:LEU:131    0
Name: 77, dtype: object

>  <halogenbond:LEU:131>  (79) 
halogenbond:LEU:131    0
halogenbond:LEU:131    0
Name: 77, dtype: object

>  <hbond:VAL:132>  (79) 
hbond:VAL:132    0
hbond:VAL:132    0
Name: 77, dtype: object

$$$$
Z4646473011
     RDKit          3D

 15 15  0  0  0  0  0  0  0  0999 V2000
   27.5048   15.4283    9.4036 C   0  0  0  0  0  0  0  0  0  0  0  0
   28.4120   14.2232    9.4640 C   0  0  0  0  0  0  0  0  0  0  0  0
   29.0776   13.9776    8.1169 C   0  0  2  0  0  0  0  0  0  0  0  0
   28.4195   12.8780    7.2846 C   0  0  0  0  0  0  0  0  0  0  0  0
   30.5504   13.6805    8.3354 C   0  0  0  0  0  0  0  0  0  0  0  0
   31.1954   13.9273    9.3457 O   0  0  0  0  0  0  0  0  0  0  0  0
   31.0353   13.0965    7.1790 O   0  0  0  0  0  0  0  0  0  0  0  0
   31.3285   11.7380    7.2533 C   0  0  0  0  0  0  0  0  0  0  0  0
   32.3440   11.2921    6.4249 C   0  0  0  0  0  0  0  0  0  0  0  0
   32.6931    9.9514    6.4291 C   0  0  0  0  0  0  0  0  0  0  0  0
   33.7973    9.4649    5.5451 C   0  0  0  0  0  0  0  0  0  0  0  0
   32.0034    9.0771    7.2740 C   0  0  0  0  0  0  0  0  0  0  0  0
   30.9890    9.5266    8.1159 C   0  0  0  0  0  0  0  0  0  0  0  0
   30.2873    8.5760    9.0218 C   0  0  0  0  0  0  0  0  0  0  0  0
   30.6472   10.8751    8.1010 C   0  0  0  0  0  0  0  0  0  0  0  0
  1  2  1  0
  2  3  1  0
  3  4  1  1
  3  5  1  0
  5  6  2  0
  5  7  1  0
  7  8  1  0
  8  9  2  0
  9 10  1  0
 10 11  1  0
 10 12  2  0
 12 13  1  0
 13 14  1  0
 13 15  2  0
 15  8  1  0
A    1
 C1 
A    2
 C2 
A    3
 C3 
A    4
 C4 
A    5
 C5 
A    6
 O1 
A    7
 O2 
A    8
 C6 
A    9
 C7 
A   10
 C8 
A   11
 C9 
A   12
 C10
A   13
 C11
A   14
 C12
A   15
 C13
M  END
>  <ref_pdb>  (80) 
Ax0310a

>  <ref_mols>  (80) 
Ax0451a,Ax0739a

>  <original SMILES>  (80) 
CC[C@H](C)C(=O)Oc1cc(C)cc(C)c1

>  <rationale>  (80) 
info hbond:S87; hydroph_interaction:P107+V124+Y89+Y90+H21; 

>  <intxn_cluster_10>  (80) 
0

>  <intxn_cluster_rank_10>  (80) 
17

>  <N_interactions>  (80) 
6

>  <∆∆G>  (80) 
-13.728619

>  <$/mg>  (80) 
163.0

>  <comRMSD>  (80) 
0.923474

>  <N_rotatable_bonds>  (80) 
7

>  <deep_P1_sidechain>  (80) 
True

>  <farthest_distance_to_substrate>  (80) 
2.663289

>  <hbond:SER:7>  (80) 
hbond:SER:7    0
hbond:SER:7    0
Name: 78, dtype: object

>  <hydroph_interaction:ASN:19>  (80) 
hydroph_interaction:ASN:19    0
hydroph_interaction:ASN:19    0
Name: 78, dtype: object

>  <halogenbond:ASN:19>  (80) 
halogenbond:ASN:19    0
halogenbond:ASN:19    0
Name: 78, dtype: object

>  <hbond:ARG:20>  (80) 
hbond:ARG:20    0
hbond:ARG:20    0
Name: 78, dtype: object

>  <hydroph_interaction:ARG:20>  (80) 
hydroph_interaction:ARG:20    0
hydroph_interaction:ARG:20    0
Name: 78, dtype: object

>  <hbond:HIS:21>  (80) 
hbond:HIS:21    0
hbond:HIS:21    0
Name: 78, dtype: object

>  <hydroph_interaction:HIS:21>  (80) 
hydroph_interaction:HIS:21    1
hydroph_interaction:HIS:21    1
Name: 78, dtype: object

>  <saltbridge:HIS:21>  (80) 
saltbridge:HIS:21    0
saltbridge:HIS:21    0
Name: 78, dtype: object

>  <pistack:HIS:21>  (80) 
pistack:HIS:21    0
pistack:HIS:21    0
Name: 78, dtype: object

>  <pication:HIS:21>  (80) 
pication:HIS:21    0
pication:HIS:21    0
Name: 78, dtype: object

>  <hydroph_interaction:LEU:22>  (80) 
hydroph_interaction:LEU:22    0
hydroph_interaction:LEU:22    0
Name: 78, dtype: object

>  <hbond:SER:36>  (80) 
hbond:SER:36    0
hbond:SER:36    0
Name: 78, dtype: object

>  <hbond:ASP:39>  (80) 
hbond:ASP:39    0
hbond:ASP:39    0
Name: 78, dtype: object

>  <saltbridge:ASP:39>  (80) 
saltbridge:ASP:39    0
saltbridge:ASP:39    0
Name: 78, dtype: object

>  <hydroph_interaction:ASP:39>  (80) 
hydroph_interaction:ASP:39    0
hydroph_interaction:ASP:39    0
Name: 78, dtype: object

>  <halogenbond:ASP:39>  (80) 
halogenbond:ASP:39    0
halogenbond:ASP:39    0
Name: 78, dtype: object

>  <hydroph_interaction:ILE:82>  (80) 
hydroph_interaction:ILE:82    0
hydroph_interaction:ILE:82    0
Name: 78, dtype: object

>  <hydroph_interaction:PHE:83>  (80) 
hydroph_interaction:PHE:83    0
hydroph_interaction:PHE:83    0
Name: 78, dtype: object

>  <hbond:PHE:83>  (80) 
hbond:PHE:83    0
hbond:PHE:83    0
Name: 78, dtype: object

>  <halogenbond:PHE:83>  (80) 
halogenbond:PHE:83    0
halogenbond:PHE:83    0
Name: 78, dtype: object

>  <hydroph_interaction:VAL:84>  (80) 
hydroph_interaction:VAL:84    0
hydroph_interaction:VAL:84    0
Name: 78, dtype: object

>  <hydroph_interaction:GLU:85>  (80) 
hydroph_interaction:GLU:85    0
hydroph_interaction:GLU:85    0
Name: 78, dtype: object

>  <hbond:GLU:85>  (80) 
hbond:GLU:85    0
hbond:GLU:85    0
Name: 78, dtype: object

>  <halogenbond:GLU:85>  (80) 
halogenbond:GLU:85    0
halogenbond:GLU:85    0
Name: 78, dtype: object

>  <halogenbond:ALA:86>  (80) 
halogenbond:ALA:86    0
halogenbond:ALA:86    0
Name: 78, dtype: object

>  <hbond:SER:87>  (80) 
hbond:SER:87    1
hbond:SER:87    1
Name: 78, dtype: object

>  <halogenbond:SER:87>  (80) 
halogenbond:SER:87    0
halogenbond:SER:87    0
Name: 78, dtype: object

>  <hbond:GLU:88>  (80) 
hbond:GLU:88    0
hbond:GLU:88    0
Name: 78, dtype: object

>  <halogenbond:GLU:88>  (80) 
halogenbond:GLU:88    0
halogenbond:GLU:88    0
Name: 78, dtype: object

>  <hydroph_interaction:TYR:89>  (80) 
hydroph_interaction:TYR:89    1
hydroph_interaction:TYR:89    1
Name: 78, dtype: object

>  <pistack:TYR:89>  (80) 
pistack:TYR:89    0
pistack:TYR:89    0
Name: 78, dtype: object

>  <hbond:TYR:89>  (80) 
hbond:TYR:89    0
hbond:TYR:89    0
Name: 78, dtype: object

>  <hbond:TYR:90>  (80) 
hbond:TYR:90    0
hbond:TYR:90    0
Name: 78, dtype: object

>  <hydroph_interaction:TYR:90>  (80) 
hydroph_interaction:TYR:90    1
hydroph_interaction:TYR:90    1
Name: 78, dtype: object

>  <pistack:TYR:90>  (80) 
pistack:TYR:90    0
pistack:TYR:90    0
Name: 78, dtype: object

>  <hbond:ARG:93>  (80) 
hbond:ARG:93    0
hbond:ARG:93    0
Name: 78, dtype: object

>  <saltbridge:ARG:93>  (80) 
saltbridge:ARG:93    0
saltbridge:ARG:93    0
Name: 78, dtype: object

>  <hydroph_interaction:ARG:93>  (80) 
hydroph_interaction:ARG:93    0
hydroph_interaction:ARG:93    0
Name: 78, dtype: object

>  <halogenbond:GLN:95>  (80) 
halogenbond:GLN:95    0
halogenbond:GLN:95    0
Name: 78, dtype: object

>  <hbond:GLN:95>  (80) 
hbond:GLN:95    0
hbond:GLN:95    0
Name: 78, dtype: object

>  <hydroph_interaction:GLN:95>  (80) 
hydroph_interaction:GLN:95    0
hydroph_interaction:GLN:95    0
Name: 78, dtype: object

>  <hydroph_interaction:LEU:98>  (80) 
hydroph_interaction:LEU:98    0
hydroph_interaction:LEU:98    0
Name: 78, dtype: object

>  <hydroph_interaction:LEU:100>  (80) 
hydroph_interaction:LEU:100    0
hydroph_interaction:LEU:100    0
Name: 78, dtype: object

>  <hbond:SER:105>  (80) 
hbond:SER:105    0
hbond:SER:105    0
Name: 78, dtype: object

>  <halogenbond:SER:105>  (80) 
halogenbond:SER:105    0
halogenbond:SER:105    0
Name: 78, dtype: object

>  <hydroph_interaction:PRO:107>  (80) 
hydroph_interaction:PRO:107    1
hydroph_interaction:PRO:107    1
Name: 78, dtype: object

>  <hbond:PRO:107>  (80) 
hbond:PRO:107    0
hbond:PRO:107    0
Name: 78, dtype: object

>  <halogenbond:PRO:107>  (80) 
halogenbond:PRO:107    0
halogenbond:PRO:107    0
Name: 78, dtype: object

>  <hbond:ASP:109>  (80) 
hbond:ASP:109    0
hbond:ASP:109    0
Name: 78, dtype: object

>  <hbond:CYS:110>  (80) 
hbond:CYS:110    0
hbond:CYS:110    0
Name: 78, dtype: object

>  <halogenbond:CYS:110>  (80) 
halogenbond:CYS:110    0
halogenbond:CYS:110    0
Name: 78, dtype: object

>  <hydroph_interaction:VAL:124>  (80) 
hydroph_interaction:VAL:124    1
hydroph_interaction:VAL:124    1
Name: 78, dtype: object

>  <hbond:SER:125>  (80) 
hbond:SER:125    0
hbond:SER:125    0
Name: 78, dtype: object

>  <halogenbond:SER:125>  (80) 
halogenbond:SER:125    0
halogenbond:SER:125    0
Name: 78, dtype: object

>  <hydroph_interaction:THR:126>  (80) 
hydroph_interaction:THR:126    0
hydroph_interaction:THR:126    0
Name: 78, dtype: object

>  <hbond:THR:126>  (80) 
hbond:THR:126    0
hbond:THR:126    0
Name: 78, dtype: object

>  <halogenbond:THR:126>  (80) 
halogenbond:THR:126    0
halogenbond:THR:126    0
Name: 78, dtype: object

>  <hbond:GLY:127>  (80) 
hbond:GLY:127    0
hbond:GLY:127    0
Name: 78, dtype: object

>  <halogenbond:GLY:127>  (80) 
halogenbond:GLY:127    0
halogenbond:GLY:127    0
Name: 78, dtype: object

>  <hbond:GLY:128>  (80) 
hbond:GLY:128    0
hbond:GLY:128    0
Name: 78, dtype: object

>  <hbond:ASN:129>  (80) 
hbond:ASN:129    0
hbond:ASN:129    0
Name: 78, dtype: object

>  <hydroph_interaction:ASN:129>  (80) 
hydroph_interaction:ASN:129    0
hydroph_interaction:ASN:129    0
Name: 78, dtype: object

>  <halogenbond:ASN:129>  (80) 
halogenbond:ASN:129    0
halogenbond:ASN:129    0
Name: 78, dtype: object

>  <hydroph_interaction:LEU:131>  (80) 
hydroph_interaction:LEU:131    0
hydroph_interaction:LEU:131    0
Name: 78, dtype: object

>  <hbond:LEU:131>  (80) 
hbond:LEU:131    0
hbond:LEU:131    0
Name: 78, dtype: object

>  <halogenbond:LEU:131>  (80) 
halogenbond:LEU:131    0
halogenbond:LEU:131    0
Name: 78, dtype: object

>  <hbond:VAL:132>  (80) 
hbond:VAL:132    0
hbond:VAL:132    0
Name: 78, dtype: object

$$$$
PV_003585554678
     RDKit          3D

 17 19  0  0  0  0  0  0  0  0999 V2000
   27.5079   16.0254    9.5776 C   0  0  0  0  0  0  0  0  0  0  0  0
   28.5482   15.0464    9.2107 C   0  0  0  0  0  0  0  0  0  0  0  0
   30.0215   15.2178    9.5816 C   0  0  0  0  0  0  0  0  0  0  0  0
   30.9459   14.0988    9.1297 C   0  0  0  0  0  0  0  0  0  0  0  0
   30.3471   12.9838    8.3959 C   0  0  0  0  0  0  0  0  0  0  0  0
   31.0066   11.8137    7.8993 C   0  0  0  0  0  0  0  0  0  0  0  0
   30.5847   10.6322    8.4304 C   0  0  0  0  0  0  0  0  0  0  0  0
   31.2576    9.6360    7.8974 N   0  0  0  0  0  0  0  0  0  0  0  0
   31.0122    8.2889    8.2829 C   0  0  0  0  0  0  0  0  0  0  0  0
   32.1581   10.1079    6.9747 C   0  0  0  0  0  0  0  0  0  0  0  0
   33.0765    9.4373    6.1574 C   0  0  0  0  0  0  0  0  0  0  0  0
   33.8744   10.1207    5.3057 N   0  0  0  0  0  0  0  0  0  0  0  0
   33.7557   11.4634    5.2714 C   0  0  0  0  0  0  0  0  0  0  0  0
   32.8516   12.1946    6.0676 C   0  0  0  0  0  0  0  0  0  0  0  0
   32.0252   11.5017    6.9488 C   0  0  0  0  0  0  0  0  0  0  0  0
   28.9968   12.9567    8.1225 C   0  0  0  0  0  0  0  0  0  0  0  0
   28.1192   13.9521    8.5098 C   0  0  0  0  0  0  0  0  0  0  0  0
  1  2  1  0
  2  3  2  0
  3  4  1  0
  4  5  2  0
  5  6  1  0
  6  7  2  0
  7  8  1  0
  8  9  1  0
  8 10  1  0
 10 11  2  0
 11 12  1  0
 12 13  2  0
 13 14  1  0
 14 15  2  0
  5 16  1  0
 16 17  2  0
 17  2  1  0
 15  6  1  0
 15 10  1  0
A    1
 C1 
A    2
 C2 
A    3
 C3 
A    4
 C4 
A    5
 C5 
A    6
 C6 
A    7
 C7 
A    8
 N1 
A    9
 C8 
A   10
 C9 
A   11
 C10
A   12
 N2 
A   13
 C11
A   14
 C12
A   15
 C13
A   16
 C14
A   17
 C15
M  END
>  <ref_pdb>  (81) 
Ax0310a

>  <ref_mols>  (81) 
Ax0451a,Ax0812a

>  <original SMILES>  (81) 
Cc1ccc(-c2cn(C)c3cnccc23)cc1

>  <rationale>  (81) 
info hydroph_interaction:Y89+Y90+H21; 

>  <intxn_cluster_10>  (81) 
0

>  <intxn_cluster_rank_10>  (81) 
16

>  <N_interactions>  (81) 
3

>  <∆∆G>  (81) 
-10.97634

>  <$/mg>  (81) 
163.0

>  <comRMSD>  (81) 
0.849253

>  <N_rotatable_bonds>  (81) 
3

>  <deep_P1_sidechain>  (81) 
False

>  <farthest_distance_to_substrate>  (81) 
2.510167

>  <hbond:SER:7>  (81) 
hbond:SER:7    0
hbond:SER:7    0
Name: 79, dtype: object

>  <hydroph_interaction:ASN:19>  (81) 
hydroph_interaction:ASN:19    0
hydroph_interaction:ASN:19    0
Name: 79, dtype: object

>  <halogenbond:ASN:19>  (81) 
halogenbond:ASN:19    0
halogenbond:ASN:19    0
Name: 79, dtype: object

>  <hbond:ARG:20>  (81) 
hbond:ARG:20    0
hbond:ARG:20    0
Name: 79, dtype: object

>  <hydroph_interaction:ARG:20>  (81) 
hydroph_interaction:ARG:20    0
hydroph_interaction:ARG:20    0
Name: 79, dtype: object

>  <hbond:HIS:21>  (81) 
hbond:HIS:21    0
hbond:HIS:21    0
Name: 79, dtype: object

>  <hydroph_interaction:HIS:21>  (81) 
hydroph_interaction:HIS:21    1
hydroph_interaction:HIS:21    1
Name: 79, dtype: object

>  <saltbridge:HIS:21>  (81) 
saltbridge:HIS:21    0
saltbridge:HIS:21    0
Name: 79, dtype: object

>  <pistack:HIS:21>  (81) 
pistack:HIS:21    0
pistack:HIS:21    0
Name: 79, dtype: object

>  <pication:HIS:21>  (81) 
pication:HIS:21    0
pication:HIS:21    0
Name: 79, dtype: object

>  <hydroph_interaction:LEU:22>  (81) 
hydroph_interaction:LEU:22    0
hydroph_interaction:LEU:22    0
Name: 79, dtype: object

>  <hbond:SER:36>  (81) 
hbond:SER:36    0
hbond:SER:36    0
Name: 79, dtype: object

>  <hbond:ASP:39>  (81) 
hbond:ASP:39    0
hbond:ASP:39    0
Name: 79, dtype: object

>  <saltbridge:ASP:39>  (81) 
saltbridge:ASP:39    0
saltbridge:ASP:39    0
Name: 79, dtype: object

>  <hydroph_interaction:ASP:39>  (81) 
hydroph_interaction:ASP:39    0
hydroph_interaction:ASP:39    0
Name: 79, dtype: object

>  <halogenbond:ASP:39>  (81) 
halogenbond:ASP:39    0
halogenbond:ASP:39    0
Name: 79, dtype: object

>  <hydroph_interaction:ILE:82>  (81) 
hydroph_interaction:ILE:82    0
hydroph_interaction:ILE:82    0
Name: 79, dtype: object

>  <hydroph_interaction:PHE:83>  (81) 
hydroph_interaction:PHE:83    0
hydroph_interaction:PHE:83    0
Name: 79, dtype: object

>  <hbond:PHE:83>  (81) 
hbond:PHE:83    0
hbond:PHE:83    0
Name: 79, dtype: object

>  <halogenbond:PHE:83>  (81) 
halogenbond:PHE:83    0
halogenbond:PHE:83    0
Name: 79, dtype: object

>  <hydroph_interaction:VAL:84>  (81) 
hydroph_interaction:VAL:84    0
hydroph_interaction:VAL:84    0
Name: 79, dtype: object

>  <hydroph_interaction:GLU:85>  (81) 
hydroph_interaction:GLU:85    0
hydroph_interaction:GLU:85    0
Name: 79, dtype: object

>  <hbond:GLU:85>  (81) 
hbond:GLU:85    0
hbond:GLU:85    0
Name: 79, dtype: object

>  <halogenbond:GLU:85>  (81) 
halogenbond:GLU:85    0
halogenbond:GLU:85    0
Name: 79, dtype: object

>  <halogenbond:ALA:86>  (81) 
halogenbond:ALA:86    0
halogenbond:ALA:86    0
Name: 79, dtype: object

>  <hbond:SER:87>  (81) 
hbond:SER:87    0
hbond:SER:87    0
Name: 79, dtype: object

>  <halogenbond:SER:87>  (81) 
halogenbond:SER:87    0
halogenbond:SER:87    0
Name: 79, dtype: object

>  <hbond:GLU:88>  (81) 
hbond:GLU:88    0
hbond:GLU:88    0
Name: 79, dtype: object

>  <halogenbond:GLU:88>  (81) 
halogenbond:GLU:88    0
halogenbond:GLU:88    0
Name: 79, dtype: object

>  <hydroph_interaction:TYR:89>  (81) 
hydroph_interaction:TYR:89    1
hydroph_interaction:TYR:89    1
Name: 79, dtype: object

>  <pistack:TYR:89>  (81) 
pistack:TYR:89    0
pistack:TYR:89    0
Name: 79, dtype: object

>  <hbond:TYR:89>  (81) 
hbond:TYR:89    0
hbond:TYR:89    0
Name: 79, dtype: object

>  <hbond:TYR:90>  (81) 
hbond:TYR:90    0
hbond:TYR:90    0
Name: 79, dtype: object

>  <hydroph_interaction:TYR:90>  (81) 
hydroph_interaction:TYR:90    1
hydroph_interaction:TYR:90    1
Name: 79, dtype: object

>  <pistack:TYR:90>  (81) 
pistack:TYR:90    0
pistack:TYR:90    0
Name: 79, dtype: object

>  <hbond:ARG:93>  (81) 
hbond:ARG:93    0
hbond:ARG:93    0
Name: 79, dtype: object

>  <saltbridge:ARG:93>  (81) 
saltbridge:ARG:93    0
saltbridge:ARG:93    0
Name: 79, dtype: object

>  <hydroph_interaction:ARG:93>  (81) 
hydroph_interaction:ARG:93    0
hydroph_interaction:ARG:93    0
Name: 79, dtype: object

>  <halogenbond:GLN:95>  (81) 
halogenbond:GLN:95    0
halogenbond:GLN:95    0
Name: 79, dtype: object

>  <hbond:GLN:95>  (81) 
hbond:GLN:95    0
hbond:GLN:95    0
Name: 79, dtype: object

>  <hydroph_interaction:GLN:95>  (81) 
hydroph_interaction:GLN:95    0
hydroph_interaction:GLN:95    0
Name: 79, dtype: object

>  <hydroph_interaction:LEU:98>  (81) 
hydroph_interaction:LEU:98    0
hydroph_interaction:LEU:98    0
Name: 79, dtype: object

>  <hydroph_interaction:LEU:100>  (81) 
hydroph_interaction:LEU:100    0
hydroph_interaction:LEU:100    0
Name: 79, dtype: object

>  <hbond:SER:105>  (81) 
hbond:SER:105    0
hbond:SER:105    0
Name: 79, dtype: object

>  <halogenbond:SER:105>  (81) 
halogenbond:SER:105    0
halogenbond:SER:105    0
Name: 79, dtype: object

>  <hydroph_interaction:PRO:107>  (81) 
hydroph_interaction:PRO:107    0
hydroph_interaction:PRO:107    0
Name: 79, dtype: object

>  <hbond:PRO:107>  (81) 
hbond:PRO:107    0
hbond:PRO:107    0
Name: 79, dtype: object

>  <halogenbond:PRO:107>  (81) 
halogenbond:PRO:107    0
halogenbond:PRO:107    0
Name: 79, dtype: object

>  <hbond:ASP:109>  (81) 
hbond:ASP:109    0
hbond:ASP:109    0
Name: 79, dtype: object

>  <hbond:CYS:110>  (81) 
hbond:CYS:110    0
hbond:CYS:110    0
Name: 79, dtype: object

>  <halogenbond:CYS:110>  (81) 
halogenbond:CYS:110    0
halogenbond:CYS:110    0
Name: 79, dtype: object

>  <hydroph_interaction:VAL:124>  (81) 
hydroph_interaction:VAL:124    0
hydroph_interaction:VAL:124    0
Name: 79, dtype: object

>  <hbond:SER:125>  (81) 
hbond:SER:125    0
hbond:SER:125    0
Name: 79, dtype: object

>  <halogenbond:SER:125>  (81) 
halogenbond:SER:125    0
halogenbond:SER:125    0
Name: 79, dtype: object

>  <hydroph_interaction:THR:126>  (81) 
hydroph_interaction:THR:126    0
hydroph_interaction:THR:126    0
Name: 79, dtype: object

>  <hbond:THR:126>  (81) 
hbond:THR:126    0
hbond:THR:126    0
Name: 79, dtype: object

>  <halogenbond:THR:126>  (81) 
halogenbond:THR:126    0
halogenbond:THR:126    0
Name: 79, dtype: object

>  <hbond:GLY:127>  (81) 
hbond:GLY:127    0
hbond:GLY:127    0
Name: 79, dtype: object

>  <halogenbond:GLY:127>  (81) 
halogenbond:GLY:127    0
halogenbond:GLY:127    0
Name: 79, dtype: object

>  <hbond:GLY:128>  (81) 
hbond:GLY:128    0
hbond:GLY:128    0
Name: 79, dtype: object

>  <hbond:ASN:129>  (81) 
hbond:ASN:129    0
hbond:ASN:129    0
Name: 79, dtype: object

>  <hydroph_interaction:ASN:129>  (81) 
hydroph_interaction:ASN:129    0
hydroph_interaction:ASN:129    0
Name: 79, dtype: object

>  <halogenbond:ASN:129>  (81) 
halogenbond:ASN:129    0
halogenbond:ASN:129    0
Name: 79, dtype: object

>  <hydroph_interaction:LEU:131>  (81) 
hydroph_interaction:LEU:131    0
hydroph_interaction:LEU:131    0
Name: 79, dtype: object

>  <hbond:LEU:131>  (81) 
hbond:LEU:131    0
hbond:LEU:131    0
Name: 79, dtype: object

>  <halogenbond:LEU:131>  (81) 
halogenbond:LEU:131    0
halogenbond:LEU:131    0
Name: 79, dtype: object

>  <hbond:VAL:132>  (81) 
hbond:VAL:132    0
hbond:VAL:132    0
Name: 79, dtype: object

$$$$
Z4264516456
     RDKit          3D

 18 18  0  0  0  0  0  0  0  0999 V2000
   28.6232   15.6167    8.1167 C   0  0  0  0  0  0  0  0  0  0  0  0
   28.0575   14.3966    7.4513 C   0  0  0  0  0  0  0  0  0  0  0  0
   28.5806   13.2338    8.0751 O   0  0  0  0  0  0  0  0  0  0  0  0
   29.5784   12.6376    7.3813 C   0  0  0  0  0  0  0  0  0  0  0  0
   29.5825   12.7604    6.1668 O   0  0  0  0  0  0  0  0  0  0  0  0
   30.5551   11.9288    8.0328 N   0  0  0  0  0  0  0  0  0  0  0  0
   31.2855   10.8365    7.5307 C   0  0  0  0  0  0  0  0  0  0  0  0
   32.3423   10.9781    6.6375 C   0  0  0  0  0  0  0  0  0  0  0  0
   32.9612   12.1793    6.0048 C   0  0  0  0  0  0  0  0  0  0  0  0
   33.7697   11.9126    4.8824 C   0  0  0  0  0  0  0  0  0  0  0  0
   34.0095   13.0402    3.9205 C   0  0  0  0  0  0  0  0  0  0  0  0
   33.0491   13.1285    2.9793 F   0  0  0  0  0  0  0  0  0  0  0  0
   34.0537   14.2281    4.5590 F   0  0  0  0  0  0  0  0  0  0  0  0
   35.1899   12.8809    3.2775 F   0  0  0  0  0  0  0  0  0  0  0  0
   32.7792    9.7001    6.4068 N   0  0  0  0  0  0  0  0  0  0  0  0
   33.8414    9.3031    5.5808 C   0  0  0  0  0  0  0  0  0  0  0  0
   32.0796    8.7651    7.0762 N   0  0  0  0  0  0  0  0  0  0  0  0
   31.1692    9.4516    7.7629 C   0  0  0  0  0  0  0  0  0  0  0  0
  1  2  1  0
  2  3  1  0
  3  4  1  0
  4  5  2  0
  4  6  1  0
  6  7  1  0
  7  8  2  0
  8  9  1  0
  9 10  1  0
 10 11  1  0
 11 12  1  0
 11 13  1  0
 11 14  1  0
  8 15  1  0
 15 16  1  0
 15 17  1  0
 17 18  2  0
 18  7  1  0
A    1
 C1 
A    2
 C2 
A    3
 O1 
A    4
 C3 
A    5
 O2 
A    6
 N1 
A    7
 C4 
A    8
 C5 
A    9
 C6 
A   10
 C7 
A   11
 C8 
A   12
 F1 
A   13
 F2 
A   14
 F3 
A   15
 N2 
A   16
 C9 
A   17
 N3 
A   18
 C10
M  END
>  <ref_pdb>  (82) 
Ax0310a

>  <ref_mols>  (82) 
Ax0310a,Ax0566a

>  <original SMILES>  (82) 
CCOC(=O)Nc1cnn(C)c1CCC(F)(F)F

>  <rationale>  (82) 
info halogenbond:S87+A86; hbond:S125; hydroph_interaction:Y89+Y90; 

>  <intxn_cluster_10>  (82) 
2

>  <intxn_cluster_rank_10>  (82) 
14

>  <N_interactions>  (82) 
5

>  <∆∆G>  (82) 
-8.193593

>  <$/mg>  (82) 
0.0

>  <comRMSD>  (82) 
0.545699

>  <N_rotatable_bonds>  (82) 
6

>  <deep_P1_sidechain>  (82) 
False

>  <farthest_distance_to_substrate>  (82) 
3.713722

>  <hbond:SER:7>  (82) 
hbond:SER:7    0
hbond:SER:7    0
Name: 80, dtype: object

>  <hydroph_interaction:ASN:19>  (82) 
hydroph_interaction:ASN:19    0
hydroph_interaction:ASN:19    0
Name: 80, dtype: object

>  <halogenbond:ASN:19>  (82) 
halogenbond:ASN:19    0
halogenbond:ASN:19    0
Name: 80, dtype: object

>  <hbond:ARG:20>  (82) 
hbond:ARG:20    0
hbond:ARG:20    0
Name: 80, dtype: object

>  <hydroph_interaction:ARG:20>  (82) 
hydroph_interaction:ARG:20    0
hydroph_interaction:ARG:20    0
Name: 80, dtype: object

>  <hbond:HIS:21>  (82) 
hbond:HIS:21    0
hbond:HIS:21    0
Name: 80, dtype: object

>  <hydroph_interaction:HIS:21>  (82) 
hydroph_interaction:HIS:21    0
hydroph_interaction:HIS:21    0
Name: 80, dtype: object

>  <saltbridge:HIS:21>  (82) 
saltbridge:HIS:21    0
saltbridge:HIS:21    0
Name: 80, dtype: object

>  <pistack:HIS:21>  (82) 
pistack:HIS:21    0
pistack:HIS:21    0
Name: 80, dtype: object

>  <pication:HIS:21>  (82) 
pication:HIS:21    0
pication:HIS:21    0
Name: 80, dtype: object

>  <hydroph_interaction:LEU:22>  (82) 
hydroph_interaction:LEU:22    0
hydroph_interaction:LEU:22    0
Name: 80, dtype: object

>  <hbond:SER:36>  (82) 
hbond:SER:36    0
hbond:SER:36    0
Name: 80, dtype: object

>  <hbond:ASP:39>  (82) 
hbond:ASP:39    0
hbond:ASP:39    0
Name: 80, dtype: object

>  <saltbridge:ASP:39>  (82) 
saltbridge:ASP:39    0
saltbridge:ASP:39    0
Name: 80, dtype: object

>  <hydroph_interaction:ASP:39>  (82) 
hydroph_interaction:ASP:39    0
hydroph_interaction:ASP:39    0
Name: 80, dtype: object

>  <halogenbond:ASP:39>  (82) 
halogenbond:ASP:39    0
halogenbond:ASP:39    0
Name: 80, dtype: object

>  <hydroph_interaction:ILE:82>  (82) 
hydroph_interaction:ILE:82    0
hydroph_interaction:ILE:82    0
Name: 80, dtype: object

>  <hydroph_interaction:PHE:83>  (82) 
hydroph_interaction:PHE:83    0
hydroph_interaction:PHE:83    0
Name: 80, dtype: object

>  <hbond:PHE:83>  (82) 
hbond:PHE:83    0
hbond:PHE:83    0
Name: 80, dtype: object

>  <halogenbond:PHE:83>  (82) 
halogenbond:PHE:83    0
halogenbond:PHE:83    0
Name: 80, dtype: object

>  <hydroph_interaction:VAL:84>  (82) 
hydroph_interaction:VAL:84    0
hydroph_interaction:VAL:84    0
Name: 80, dtype: object

>  <hydroph_interaction:GLU:85>  (82) 
hydroph_interaction:GLU:85    0
hydroph_interaction:GLU:85    0
Name: 80, dtype: object

>  <hbond:GLU:85>  (82) 
hbond:GLU:85    0
hbond:GLU:85    0
Name: 80, dtype: object

>  <halogenbond:GLU:85>  (82) 
halogenbond:GLU:85    0
halogenbond:GLU:85    0
Name: 80, dtype: object

>  <halogenbond:ALA:86>  (82) 
halogenbond:ALA:86    1
halogenbond:ALA:86    1
Name: 80, dtype: object

>  <hbond:SER:87>  (82) 
hbond:SER:87    0
hbond:SER:87    0
Name: 80, dtype: object

>  <halogenbond:SER:87>  (82) 
halogenbond:SER:87    1
halogenbond:SER:87    1
Name: 80, dtype: object

>  <hbond:GLU:88>  (82) 
hbond:GLU:88    0
hbond:GLU:88    0
Name: 80, dtype: object

>  <halogenbond:GLU:88>  (82) 
halogenbond:GLU:88    0
halogenbond:GLU:88    0
Name: 80, dtype: object

>  <hydroph_interaction:TYR:89>  (82) 
hydroph_interaction:TYR:89    1
hydroph_interaction:TYR:89    1
Name: 80, dtype: object

>  <pistack:TYR:89>  (82) 
pistack:TYR:89    0
pistack:TYR:89    0
Name: 80, dtype: object

>  <hbond:TYR:89>  (82) 
hbond:TYR:89    0
hbond:TYR:89    0
Name: 80, dtype: object

>  <hbond:TYR:90>  (82) 
hbond:TYR:90    0
hbond:TYR:90    0
Name: 80, dtype: object

>  <hydroph_interaction:TYR:90>  (82) 
hydroph_interaction:TYR:90    1
hydroph_interaction:TYR:90    1
Name: 80, dtype: object

>  <pistack:TYR:90>  (82) 
pistack:TYR:90    0
pistack:TYR:90    0
Name: 80, dtype: object

>  <hbond:ARG:93>  (82) 
hbond:ARG:93    0
hbond:ARG:93    0
Name: 80, dtype: object

>  <saltbridge:ARG:93>  (82) 
saltbridge:ARG:93    0
saltbridge:ARG:93    0
Name: 80, dtype: object

>  <hydroph_interaction:ARG:93>  (82) 
hydroph_interaction:ARG:93    0
hydroph_interaction:ARG:93    0
Name: 80, dtype: object

>  <halogenbond:GLN:95>  (82) 
halogenbond:GLN:95    0
halogenbond:GLN:95    0
Name: 80, dtype: object

>  <hbond:GLN:95>  (82) 
hbond:GLN:95    0
hbond:GLN:95    0
Name: 80, dtype: object

>  <hydroph_interaction:GLN:95>  (82) 
hydroph_interaction:GLN:95    0
hydroph_interaction:GLN:95    0
Name: 80, dtype: object

>  <hydroph_interaction:LEU:98>  (82) 
hydroph_interaction:LEU:98    0
hydroph_interaction:LEU:98    0
Name: 80, dtype: object

>  <hydroph_interaction:LEU:100>  (82) 
hydroph_interaction:LEU:100    0
hydroph_interaction:LEU:100    0
Name: 80, dtype: object

>  <hbond:SER:105>  (82) 
hbond:SER:105    0
hbond:SER:105    0
Name: 80, dtype: object

>  <halogenbond:SER:105>  (82) 
halogenbond:SER:105    0
halogenbond:SER:105    0
Name: 80, dtype: object

>  <hydroph_interaction:PRO:107>  (82) 
hydroph_interaction:PRO:107    0
hydroph_interaction:PRO:107    0
Name: 80, dtype: object

>  <hbond:PRO:107>  (82) 
hbond:PRO:107    0
hbond:PRO:107    0
Name: 80, dtype: object

>  <halogenbond:PRO:107>  (82) 
halogenbond:PRO:107    0
halogenbond:PRO:107    0
Name: 80, dtype: object

>  <hbond:ASP:109>  (82) 
hbond:ASP:109    0
hbond:ASP:109    0
Name: 80, dtype: object

>  <hbond:CYS:110>  (82) 
hbond:CYS:110    0
hbond:CYS:110    0
Name: 80, dtype: object

>  <halogenbond:CYS:110>  (82) 
halogenbond:CYS:110    0
halogenbond:CYS:110    0
Name: 80, dtype: object

>  <hydroph_interaction:VAL:124>  (82) 
hydroph_interaction:VAL:124    0
hydroph_interaction:VAL:124    0
Name: 80, dtype: object

>  <hbond:SER:125>  (82) 
hbond:SER:125    1
hbond:SER:125    1
Name: 80, dtype: object

>  <halogenbond:SER:125>  (82) 
halogenbond:SER:125    0
halogenbond:SER:125    0
Name: 80, dtype: object

>  <hydroph_interaction:THR:126>  (82) 
hydroph_interaction:THR:126    0
hydroph_interaction:THR:126    0
Name: 80, dtype: object

>  <hbond:THR:126>  (82) 
hbond:THR:126    0
hbond:THR:126    0
Name: 80, dtype: object

>  <halogenbond:THR:126>  (82) 
halogenbond:THR:126    0
halogenbond:THR:126    0
Name: 80, dtype: object

>  <hbond:GLY:127>  (82) 
hbond:GLY:127    0
hbond:GLY:127    0
Name: 80, dtype: object

>  <halogenbond:GLY:127>  (82) 
halogenbond:GLY:127    0
halogenbond:GLY:127    0
Name: 80, dtype: object

>  <hbond:GLY:128>  (82) 
hbond:GLY:128    0
hbond:GLY:128    0
Name: 80, dtype: object

>  <hbond:ASN:129>  (82) 
hbond:ASN:129    0
hbond:ASN:129    0
Name: 80, dtype: object

>  <hydroph_interaction:ASN:129>  (82) 
hydroph_interaction:ASN:129    0
hydroph_interaction:ASN:129    0
Name: 80, dtype: object

>  <halogenbond:ASN:129>  (82) 
halogenbond:ASN:129    0
halogenbond:ASN:129    0
Name: 80, dtype: object

>  <hydroph_interaction:LEU:131>  (82) 
hydroph_interaction:LEU:131    0
hydroph_interaction:LEU:131    0
Name: 80, dtype: object

>  <hbond:LEU:131>  (82) 
hbond:LEU:131    0
hbond:LEU:131    0
Name: 80, dtype: object

>  <halogenbond:LEU:131>  (82) 
halogenbond:LEU:131    0
halogenbond:LEU:131    0
Name: 80, dtype: object

>  <hbond:VAL:132>  (82) 
hbond:VAL:132    0
hbond:VAL:132    0
Name: 80, dtype: object

$$$$
Z3804447231
     RDKit          3D

 15 15  0  0  0  0  0  0  0  0999 V2000
   30.4367    8.9451    8.5622 C   0  0  0  0  0  0  0  0  0  0  0  0
   31.3701    9.6047    7.6095 C   0  0  0  0  0  0  0  0  0  0  0  0
   32.2452    8.8790    6.9082 N   0  0  0  0  0  0  0  0  0  0  0  0
   32.9247    9.7823    6.1830 N   0  0  0  0  0  0  0  0  0  0  0  0
   33.9858    9.3482    5.3083 C   0  0  0  0  0  0  0  0  0  0  0  0
   32.5099   11.0602    6.3862 C   0  0  0  0  0  0  0  0  0  0  0  0
   33.1059   12.2316    5.7013 C   0  0  0  0  0  0  0  0  0  0  0  0
   31.4927   10.9911    7.3128 C   0  0  0  0  0  0  0  0  0  0  0  0
   30.7012   12.1410    7.8894 C   0  0  0  0  0  0  0  0  0  0  0  0
   29.7470   12.5073    6.8853 N   0  0  0  0  0  0  0  0  0  0  0  0
   28.3733   12.6768    7.2745 C   0  0  0  0  0  0  0  0  0  0  0  0
   27.7693   13.9976    6.8270 C   0  0  0  0  0  0  0  0  0  0  0  0
   28.5860   15.1192    7.3444 C   0  0  0  0  0  0  0  0  0  0  0  0
   28.8787   15.3507    8.5999 C   0  0  0  0  0  0  0  0  0  0  0  0
   28.3320   14.3436   10.0400 Br  0  0  0  0  0  0  0  0  0  0  0  0
  1  2  1  0
  2  3  2  0
  3  4  1  0
  4  5  1  0
  4  6  1  0
  6  7  1  0
  6  8  2  0
  8  9  1  0
  9 10  1  0
 10 11  1  0
 11 12  1  0
 12 13  1  0
 13 14  2  3
 14 15  1  0
  8  2  1  0
A    1
 C1 
A    2
 C2 
A    3
 N1 
A    4
 N2 
A    5
 C3 
A    6
 C4 
A    7
 C5 
A    8
 C6 
A    9
 C7 
A   10
 N3 
A   11
 C8 
A   12
 C9 
A   13
 C10
A   14
 C11
A   15
BR1 
M  END
>  <ref_pdb>  (83) 
Ax0310a

>  <ref_mols>  (83) 
Ax0310a,Ax0451a,Ax0719a

>  <original SMILES>  (83) 
Cc1nn(C)c(C)c1CNCCC=CBr

>  <rationale>  (83) 
info halogenbond:D39; hydroph_interaction:V124+Y89; 

>  <intxn_cluster_10>  (83) 
9

>  <intxn_cluster_rank_10>  (83) 
18

>  <N_interactions>  (83) 
4

>  <∆∆G>  (83) 
-7.809603

>  <$/mg>  (83) 
163.0

>  <comRMSD>  (83) 
0.967068

>  <N_rotatable_bonds>  (83) 
8

>  <deep_P1_sidechain>  (83) 
True

>  <farthest_distance_to_substrate>  (83) 
2.896525

>  <hbond:SER:7>  (83) 
hbond:SER:7    0
hbond:SER:7    0
Name: 81, dtype: object

>  <hydroph_interaction:ASN:19>  (83) 
hydroph_interaction:ASN:19    0
hydroph_interaction:ASN:19    0
Name: 81, dtype: object

>  <halogenbond:ASN:19>  (83) 
halogenbond:ASN:19    0
halogenbond:ASN:19    0
Name: 81, dtype: object

>  <hbond:ARG:20>  (83) 
hbond:ARG:20    0
hbond:ARG:20    0
Name: 81, dtype: object

>  <hydroph_interaction:ARG:20>  (83) 
hydroph_interaction:ARG:20    0
hydroph_interaction:ARG:20    0
Name: 81, dtype: object

>  <hbond:HIS:21>  (83) 
hbond:HIS:21    0
hbond:HIS:21    0
Name: 81, dtype: object

>  <hydroph_interaction:HIS:21>  (83) 
hydroph_interaction:HIS:21    0
hydroph_interaction:HIS:21    0
Name: 81, dtype: object

>  <saltbridge:HIS:21>  (83) 
saltbridge:HIS:21    0
saltbridge:HIS:21    0
Name: 81, dtype: object

>  <pistack:HIS:21>  (83) 
pistack:HIS:21    0
pistack:HIS:21    0
Name: 81, dtype: object

>  <pication:HIS:21>  (83) 
pication:HIS:21    0
pication:HIS:21    0
Name: 81, dtype: object

>  <hydroph_interaction:LEU:22>  (83) 
hydroph_interaction:LEU:22    0
hydroph_interaction:LEU:22    0
Name: 81, dtype: object

>  <hbond:SER:36>  (83) 
hbond:SER:36    0
hbond:SER:36    0
Name: 81, dtype: object

>  <hbond:ASP:39>  (83) 
hbond:ASP:39    0
hbond:ASP:39    0
Name: 81, dtype: object

>  <saltbridge:ASP:39>  (83) 
saltbridge:ASP:39    0
saltbridge:ASP:39    0
Name: 81, dtype: object

>  <hydroph_interaction:ASP:39>  (83) 
hydroph_interaction:ASP:39    0
hydroph_interaction:ASP:39    0
Name: 81, dtype: object

>  <halogenbond:ASP:39>  (83) 
halogenbond:ASP:39    1
halogenbond:ASP:39    1
Name: 81, dtype: object

>  <hydroph_interaction:ILE:82>  (83) 
hydroph_interaction:ILE:82    0
hydroph_interaction:ILE:82    0
Name: 81, dtype: object

>  <hydroph_interaction:PHE:83>  (83) 
hydroph_interaction:PHE:83    0
hydroph_interaction:PHE:83    0
Name: 81, dtype: object

>  <hbond:PHE:83>  (83) 
hbond:PHE:83    0
hbond:PHE:83    0
Name: 81, dtype: object

>  <halogenbond:PHE:83>  (83) 
halogenbond:PHE:83    0
halogenbond:PHE:83    0
Name: 81, dtype: object

>  <hydroph_interaction:VAL:84>  (83) 
hydroph_interaction:VAL:84    0
hydroph_interaction:VAL:84    0
Name: 81, dtype: object

>  <hydroph_interaction:GLU:85>  (83) 
hydroph_interaction:GLU:85    0
hydroph_interaction:GLU:85    0
Name: 81, dtype: object

>  <hbond:GLU:85>  (83) 
hbond:GLU:85    0
hbond:GLU:85    0
Name: 81, dtype: object

>  <halogenbond:GLU:85>  (83) 
halogenbond:GLU:85    0
halogenbond:GLU:85    0
Name: 81, dtype: object

>  <halogenbond:ALA:86>  (83) 
halogenbond:ALA:86    0
halogenbond:ALA:86    0
Name: 81, dtype: object

>  <hbond:SER:87>  (83) 
hbond:SER:87    0
hbond:SER:87    0
Name: 81, dtype: object

>  <halogenbond:SER:87>  (83) 
halogenbond:SER:87    0
halogenbond:SER:87    0
Name: 81, dtype: object

>  <hbond:GLU:88>  (83) 
hbond:GLU:88    0
hbond:GLU:88    0
Name: 81, dtype: object

>  <halogenbond:GLU:88>  (83) 
halogenbond:GLU:88    0
halogenbond:GLU:88    0
Name: 81, dtype: object

>  <hydroph_interaction:TYR:89>  (83) 
hydroph_interaction:TYR:89    2
hydroph_interaction:TYR:89    2
Name: 81, dtype: object

>  <pistack:TYR:89>  (83) 
pistack:TYR:89    0
pistack:TYR:89    0
Name: 81, dtype: object

>  <hbond:TYR:89>  (83) 
hbond:TYR:89    0
hbond:TYR:89    0
Name: 81, dtype: object

>  <hbond:TYR:90>  (83) 
hbond:TYR:90    0
hbond:TYR:90    0
Name: 81, dtype: object

>  <hydroph_interaction:TYR:90>  (83) 
hydroph_interaction:TYR:90    0
hydroph_interaction:TYR:90    0
Name: 81, dtype: object

>  <pistack:TYR:90>  (83) 
pistack:TYR:90    0
pistack:TYR:90    0
Name: 81, dtype: object

>  <hbond:ARG:93>  (83) 
hbond:ARG:93    0
hbond:ARG:93    0
Name: 81, dtype: object

>  <saltbridge:ARG:93>  (83) 
saltbridge:ARG:93    0
saltbridge:ARG:93    0
Name: 81, dtype: object

>  <hydroph_interaction:ARG:93>  (83) 
hydroph_interaction:ARG:93    0
hydroph_interaction:ARG:93    0
Name: 81, dtype: object

>  <halogenbond:GLN:95>  (83) 
halogenbond:GLN:95    0
halogenbond:GLN:95    0
Name: 81, dtype: object

>  <hbond:GLN:95>  (83) 
hbond:GLN:95    0
hbond:GLN:95    0
Name: 81, dtype: object

>  <hydroph_interaction:GLN:95>  (83) 
hydroph_interaction:GLN:95    0
hydroph_interaction:GLN:95    0
Name: 81, dtype: object

>  <hydroph_interaction:LEU:98>  (83) 
hydroph_interaction:LEU:98    0
hydroph_interaction:LEU:98    0
Name: 81, dtype: object

>  <hydroph_interaction:LEU:100>  (83) 
hydroph_interaction:LEU:100    0
hydroph_interaction:LEU:100    0
Name: 81, dtype: object

>  <hbond:SER:105>  (83) 
hbond:SER:105    0
hbond:SER:105    0
Name: 81, dtype: object

>  <halogenbond:SER:105>  (83) 
halogenbond:SER:105    0
halogenbond:SER:105    0
Name: 81, dtype: object

>  <hydroph_interaction:PRO:107>  (83) 
hydroph_interaction:PRO:107    0
hydroph_interaction:PRO:107    0
Name: 81, dtype: object

>  <hbond:PRO:107>  (83) 
hbond:PRO:107    0
hbond:PRO:107    0
Name: 81, dtype: object

>  <halogenbond:PRO:107>  (83) 
halogenbond:PRO:107    0
halogenbond:PRO:107    0
Name: 81, dtype: object

>  <hbond:ASP:109>  (83) 
hbond:ASP:109    0
hbond:ASP:109    0
Name: 81, dtype: object

>  <hbond:CYS:110>  (83) 
hbond:CYS:110    0
hbond:CYS:110    0
Name: 81, dtype: object

>  <halogenbond:CYS:110>  (83) 
halogenbond:CYS:110    0
halogenbond:CYS:110    0
Name: 81, dtype: object

>  <hydroph_interaction:VAL:124>  (83) 
hydroph_interaction:VAL:124    1
hydroph_interaction:VAL:124    1
Name: 81, dtype: object

>  <hbond:SER:125>  (83) 
hbond:SER:125    0
hbond:SER:125    0
Name: 81, dtype: object

>  <halogenbond:SER:125>  (83) 
halogenbond:SER:125    0
halogenbond:SER:125    0
Name: 81, dtype: object

>  <hydroph_interaction:THR:126>  (83) 
hydroph_interaction:THR:126    0
hydroph_interaction:THR:126    0
Name: 81, dtype: object

>  <hbond:THR:126>  (83) 
hbond:THR:126    0
hbond:THR:126    0
Name: 81, dtype: object

>  <halogenbond:THR:126>  (83) 
halogenbond:THR:126    0
halogenbond:THR:126    0
Name: 81, dtype: object

>  <hbond:GLY:127>  (83) 
hbond:GLY:127    0
hbond:GLY:127    0
Name: 81, dtype: object

>  <halogenbond:GLY:127>  (83) 
halogenbond:GLY:127    0
halogenbond:GLY:127    0
Name: 81, dtype: object

>  <hbond:GLY:128>  (83) 
hbond:GLY:128    0
hbond:GLY:128    0
Name: 81, dtype: object

>  <hbond:ASN:129>  (83) 
hbond:ASN:129    0
hbond:ASN:129    0
Name: 81, dtype: object

>  <hydroph_interaction:ASN:129>  (83) 
hydroph_interaction:ASN:129    0
hydroph_interaction:ASN:129    0
Name: 81, dtype: object

>  <halogenbond:ASN:129>  (83) 
halogenbond:ASN:129    0
halogenbond:ASN:129    0
Name: 81, dtype: object

>  <hydroph_interaction:LEU:131>  (83) 
hydroph_interaction:LEU:131    0
hydroph_interaction:LEU:131    0
Name: 81, dtype: object

>  <hbond:LEU:131>  (83) 
hbond:LEU:131    0
hbond:LEU:131    0
Name: 81, dtype: object

>  <halogenbond:LEU:131>  (83) 
halogenbond:LEU:131    0
halogenbond:LEU:131    0
Name: 81, dtype: object

>  <hbond:VAL:132>  (83) 
hbond:VAL:132    0
hbond:VAL:132    0
Name: 81, dtype: object

$$$$
Z3044107966
     RDKit          3D

 18 19  0  0  0  0  0  0  0  0999 V2000
   23.9479   13.2586    6.1123 C   0  0  0  0  0  0  0  0  0  0  0  0
   24.8975   14.4521    6.0768 C   0  0  0  0  0  0  0  0  0  0  0  0
   26.1148   14.2579    6.7298 C   0  0  0  0  0  0  0  0  0  0  0  0
   26.7312   15.2382    7.2953 N   0  0  0  0  0  0  0  0  0  0  0  0
   27.8407   14.8190    7.8106 N   0  0  0  0  0  0  0  0  0  0  0  0
   28.6515   15.7876    8.4672 C   0  0  0  0  0  0  0  0  0  0  0  0
   28.0032   13.5101    7.6209 C   0  0  0  0  0  0  0  0  0  0  0  0
   29.1185   12.8890    8.1066 C   0  0  0  0  0  0  0  0  0  0  0  0
   30.1434   12.4972    7.0831 C   0  0  0  0  0  0  0  0  0  0  0  0
   30.1199   12.9414    5.9421 O   0  0  0  0  0  0  0  0  0  0  0  0
   31.1184   11.6137    7.4897 N   0  0  0  0  0  0  0  0  0  0  0  0
   32.4413   11.6033    6.8524 C   0  0  0  0  0  0  0  0  0  0  0  0
   32.7939   10.3722    6.1502 C   0  0  0  0  0  0  0  0  0  0  0  0
   31.8723    9.2960    6.3154 O   0  0  0  0  0  0  0  0  0  0  0  0
   31.3231    9.1336    7.6321 C   0  0  0  0  0  0  0  0  0  0  0  0
   30.6546   10.3879    8.1295 C   0  0  0  0  0  0  0  0  0  0  0  0
   26.8472   13.1254    6.8991 C   0  0  0  0  0  0  0  0  0  0  0  0
   26.2337   11.7181    6.2627 Cl  0  0  0  0  0  0  0  0  0  0  0  0
  1  2  1  0
  2  3  1  0
  3  4  2  0
  4  5  1  0
  5  6  1  0
  5  7  1  0
  7  8  1  0
  8  9  1  0
  9 10  2  0
  9 11  1  0
 11 12  1  0
 12 13  1  0
 13 14  1  0
 14 15  1  0
 15 16  1  0
  7 17  2  0
 17 18  1  0
 17  3  1  0
 16 11  1  0
A    1
 C1 
A    2
 C2 
A    3
 C3 
A    4
 N1 
A    5
 N2 
A    6
 C4 
A    7
 C5 
A    8
 C6 
A    9
 C7 
A   10
 O1 
A   11
 N3 
A   12
 C8 
A   13
 C9 
A   14
 O2 
A   15
 C10
A   16
 C11
A   17
 C12
A   18
CL1 
M  END
>  <ref_pdb>  (84) 
Ax0310a

>  <ref_mols>  (84) 
Ax0310a,Ax0351a

>  <original SMILES>  (84) 
CCc1nn(C)c(CC(=O)N2CCOCC2)c1Cl

>  <rationale>  (84) 
info halogenbond:P107; hydroph_interaction:Y89+H21+L22; pistack:H21; 

>  <intxn_cluster_10>  (84) 
9

>  <intxn_cluster_rank_10>  (84) 
13

>  <N_interactions>  (84) 
5

>  <∆∆G>  (84) 
-5.216861

>  <$/mg>  (84) 
0.0

>  <comRMSD>  (84) 
0.9786

>  <N_rotatable_bonds>  (84) 
5

>  <deep_P1_sidechain>  (84) 
False

>  <farthest_distance_to_substrate>  (84) 
2.420075

>  <hbond:SER:7>  (84) 
hbond:SER:7    0
hbond:SER:7    0
Name: 82, dtype: object

>  <hydroph_interaction:ASN:19>  (84) 
hydroph_interaction:ASN:19    0
hydroph_interaction:ASN:19    0
Name: 82, dtype: object

>  <halogenbond:ASN:19>  (84) 
halogenbond:ASN:19    0
halogenbond:ASN:19    0
Name: 82, dtype: object

>  <hbond:ARG:20>  (84) 
hbond:ARG:20    0
hbond:ARG:20    0
Name: 82, dtype: object

>  <hydroph_interaction:ARG:20>  (84) 
hydroph_interaction:ARG:20    0
hydroph_interaction:ARG:20    0
Name: 82, dtype: object

>  <hbond:HIS:21>  (84) 
hbond:HIS:21    0
hbond:HIS:21    0
Name: 82, dtype: object

>  <hydroph_interaction:HIS:21>  (84) 
hydroph_interaction:HIS:21    1
hydroph_interaction:HIS:21    1
Name: 82, dtype: object

>  <saltbridge:HIS:21>  (84) 
saltbridge:HIS:21    0
saltbridge:HIS:21    0
Name: 82, dtype: object

>  <pistack:HIS:21>  (84) 
pistack:HIS:21    1
pistack:HIS:21    1
Name: 82, dtype: object

>  <pication:HIS:21>  (84) 
pication:HIS:21    0
pication:HIS:21    0
Name: 82, dtype: object

>  <hydroph_interaction:LEU:22>  (84) 
hydroph_interaction:LEU:22    1
hydroph_interaction:LEU:22    1
Name: 82, dtype: object

>  <hbond:SER:36>  (84) 
hbond:SER:36    0
hbond:SER:36    0
Name: 82, dtype: object

>  <hbond:ASP:39>  (84) 
hbond:ASP:39    0
hbond:ASP:39    0
Name: 82, dtype: object

>  <saltbridge:ASP:39>  (84) 
saltbridge:ASP:39    0
saltbridge:ASP:39    0
Name: 82, dtype: object

>  <hydroph_interaction:ASP:39>  (84) 
hydroph_interaction:ASP:39    0
hydroph_interaction:ASP:39    0
Name: 82, dtype: object

>  <halogenbond:ASP:39>  (84) 
halogenbond:ASP:39    0
halogenbond:ASP:39    0
Name: 82, dtype: object

>  <hydroph_interaction:ILE:82>  (84) 
hydroph_interaction:ILE:82    0
hydroph_interaction:ILE:82    0
Name: 82, dtype: object

>  <hydroph_interaction:PHE:83>  (84) 
hydroph_interaction:PHE:83    0
hydroph_interaction:PHE:83    0
Name: 82, dtype: object

>  <hbond:PHE:83>  (84) 
hbond:PHE:83    0
hbond:PHE:83    0
Name: 82, dtype: object

>  <halogenbond:PHE:83>  (84) 
halogenbond:PHE:83    0
halogenbond:PHE:83    0
Name: 82, dtype: object

>  <hydroph_interaction:VAL:84>  (84) 
hydroph_interaction:VAL:84    0
hydroph_interaction:VAL:84    0
Name: 82, dtype: object

>  <hydroph_interaction:GLU:85>  (84) 
hydroph_interaction:GLU:85    0
hydroph_interaction:GLU:85    0
Name: 82, dtype: object

>  <hbond:GLU:85>  (84) 
hbond:GLU:85    0
hbond:GLU:85    0
Name: 82, dtype: object

>  <halogenbond:GLU:85>  (84) 
halogenbond:GLU:85    0
halogenbond:GLU:85    0
Name: 82, dtype: object

>  <halogenbond:ALA:86>  (84) 
halogenbond:ALA:86    0
halogenbond:ALA:86    0
Name: 82, dtype: object

>  <hbond:SER:87>  (84) 
hbond:SER:87    0
hbond:SER:87    0
Name: 82, dtype: object

>  <halogenbond:SER:87>  (84) 
halogenbond:SER:87    0
halogenbond:SER:87    0
Name: 82, dtype: object

>  <hbond:GLU:88>  (84) 
hbond:GLU:88    0
hbond:GLU:88    0
Name: 82, dtype: object

>  <halogenbond:GLU:88>  (84) 
halogenbond:GLU:88    0
halogenbond:GLU:88    0
Name: 82, dtype: object

>  <hydroph_interaction:TYR:89>  (84) 
hydroph_interaction:TYR:89    1
hydroph_interaction:TYR:89    1
Name: 82, dtype: object

>  <pistack:TYR:89>  (84) 
pistack:TYR:89    0
pistack:TYR:89    0
Name: 82, dtype: object

>  <hbond:TYR:89>  (84) 
hbond:TYR:89    0
hbond:TYR:89    0
Name: 82, dtype: object

>  <hbond:TYR:90>  (84) 
hbond:TYR:90    0
hbond:TYR:90    0
Name: 82, dtype: object

>  <hydroph_interaction:TYR:90>  (84) 
hydroph_interaction:TYR:90    0
hydroph_interaction:TYR:90    0
Name: 82, dtype: object

>  <pistack:TYR:90>  (84) 
pistack:TYR:90    0
pistack:TYR:90    0
Name: 82, dtype: object

>  <hbond:ARG:93>  (84) 
hbond:ARG:93    0
hbond:ARG:93    0
Name: 82, dtype: object

>  <saltbridge:ARG:93>  (84) 
saltbridge:ARG:93    0
saltbridge:ARG:93    0
Name: 82, dtype: object

>  <hydroph_interaction:ARG:93>  (84) 
hydroph_interaction:ARG:93    0
hydroph_interaction:ARG:93    0
Name: 82, dtype: object

>  <halogenbond:GLN:95>  (84) 
halogenbond:GLN:95    0
halogenbond:GLN:95    0
Name: 82, dtype: object

>  <hbond:GLN:95>  (84) 
hbond:GLN:95    0
hbond:GLN:95    0
Name: 82, dtype: object

>  <hydroph_interaction:GLN:95>  (84) 
hydroph_interaction:GLN:95    0
hydroph_interaction:GLN:95    0
Name: 82, dtype: object

>  <hydroph_interaction:LEU:98>  (84) 
hydroph_interaction:LEU:98    0
hydroph_interaction:LEU:98    0
Name: 82, dtype: object

>  <hydroph_interaction:LEU:100>  (84) 
hydroph_interaction:LEU:100    0
hydroph_interaction:LEU:100    0
Name: 82, dtype: object

>  <hbond:SER:105>  (84) 
hbond:SER:105    0
hbond:SER:105    0
Name: 82, dtype: object

>  <halogenbond:SER:105>  (84) 
halogenbond:SER:105    0
halogenbond:SER:105    0
Name: 82, dtype: object

>  <hydroph_interaction:PRO:107>  (84) 
hydroph_interaction:PRO:107    0
hydroph_interaction:PRO:107    0
Name: 82, dtype: object

>  <hbond:PRO:107>  (84) 
hbond:PRO:107    0
hbond:PRO:107    0
Name: 82, dtype: object

>  <halogenbond:PRO:107>  (84) 
halogenbond:PRO:107    1
halogenbond:PRO:107    1
Name: 82, dtype: object

>  <hbond:ASP:109>  (84) 
hbond:ASP:109    0
hbond:ASP:109    0
Name: 82, dtype: object

>  <hbond:CYS:110>  (84) 
hbond:CYS:110    0
hbond:CYS:110    0
Name: 82, dtype: object

>  <halogenbond:CYS:110>  (84) 
halogenbond:CYS:110    0
halogenbond:CYS:110    0
Name: 82, dtype: object

>  <hydroph_interaction:VAL:124>  (84) 
hydroph_interaction:VAL:124    0
hydroph_interaction:VAL:124    0
Name: 82, dtype: object

>  <hbond:SER:125>  (84) 
hbond:SER:125    0
hbond:SER:125    0
Name: 82, dtype: object

>  <halogenbond:SER:125>  (84) 
halogenbond:SER:125    0
halogenbond:SER:125    0
Name: 82, dtype: object

>  <hydroph_interaction:THR:126>  (84) 
hydroph_interaction:THR:126    0
hydroph_interaction:THR:126    0
Name: 82, dtype: object

>  <hbond:THR:126>  (84) 
hbond:THR:126    0
hbond:THR:126    0
Name: 82, dtype: object

>  <halogenbond:THR:126>  (84) 
halogenbond:THR:126    0
halogenbond:THR:126    0
Name: 82, dtype: object

>  <hbond:GLY:127>  (84) 
hbond:GLY:127    0
hbond:GLY:127    0
Name: 82, dtype: object

>  <halogenbond:GLY:127>  (84) 
halogenbond:GLY:127    0
halogenbond:GLY:127    0
Name: 82, dtype: object

>  <hbond:GLY:128>  (84) 
hbond:GLY:128    0
hbond:GLY:128    0
Name: 82, dtype: object

>  <hbond:ASN:129>  (84) 
hbond:ASN:129    0
hbond:ASN:129    0
Name: 82, dtype: object

>  <hydroph_interaction:ASN:129>  (84) 
hydroph_interaction:ASN:129    0
hydroph_interaction:ASN:129    0
Name: 82, dtype: object

>  <halogenbond:ASN:129>  (84) 
halogenbond:ASN:129    0
halogenbond:ASN:129    0
Name: 82, dtype: object

>  <hydroph_interaction:LEU:131>  (84) 
hydroph_interaction:LEU:131    0
hydroph_interaction:LEU:131    0
Name: 82, dtype: object

>  <hbond:LEU:131>  (84) 
hbond:LEU:131    0
hbond:LEU:131    0
Name: 82, dtype: object

>  <halogenbond:LEU:131>  (84) 
halogenbond:LEU:131    0
halogenbond:LEU:131    0
Name: 82, dtype: object

>  <hbond:VAL:132>  (84) 
hbond:VAL:132    0
hbond:VAL:132    0
Name: 82, dtype: object

$$$$
PV_002881139093
     RDKit          3D

 14 15  0  0  0  0  0  0  0  0999 V2000
   28.4593   15.2216    8.3746 C   0  0  0  0  0  0  0  0  0  0  0  0
   28.3230   13.7269    8.1699 C   0  0  0  0  0  0  0  0  0  0  0  0
   29.4464   13.2266    7.4424 O   0  0  0  0  0  0  0  0  0  0  0  0
   30.4676   12.8185    8.2363 C   0  0  0  0  0  0  0  0  0  0  0  0
   30.9375   13.5307    9.1172 O   0  0  0  0  0  0  0  0  0  0  0  0
   30.9584   11.4465    7.8852 C   0  0  0  0  0  0  0  0  0  0  0  0
   30.5340   10.2516    8.4250 C   0  0  0  0  0  0  0  0  0  0  0  0
   31.3273    8.8955    7.7859 S   0  0  0  0  0  0  0  0  0  0  0  0
   32.2733    9.8750    6.7662 C   0  0  0  0  0  0  0  0  0  0  0  0
   33.2443    9.4688    5.8722 C   0  0  0  0  0  0  0  0  0  0  0  0
   33.8889   10.4566    5.1448 C   0  0  0  0  0  0  0  0  0  0  0  0
   33.5365   11.7733    5.3440 C   0  0  0  0  0  0  0  0  0  0  0  0
   32.6020   12.1916    6.2029 N   0  0  0  0  0  0  0  0  0  0  0  0
   31.9722   11.2219    6.9165 C   0  0  0  0  0  0  0  0  0  0  0  0
  1  2  1  0
  2  3  1  0
  3  4  1  0
  4  5  2  0
  4  6  1  0
  6  7  2  0
  7  8  1  0
  8  9  1  0
  9 10  2  0
 10 11  1  0
 11 12  2  0
 12 13  1  0
 13 14  2  0
 14  6  1  0
 14  9  1  0
A    1
 C1 
A    2
 C2 
A    3
 O1 
A    4
 C3 
A    5
 O2 
A    6
 C4 
A    7
 C5 
A    8
 S1 
A    9
 C6 
A   10
 C7 
A   11
 C8 
A   12
 C9 
A   13
 N1 
A   14
 C10
M  END
>  <ref_pdb>  (85) 
Ax0310a

>  <ref_mols>  (85) 
Ax0554a,Ax0310a

>  <original SMILES>  (85) 
CCOC(=O)c1csc2cccnc12

>  <rationale>  (85) 
info hbond:S87; hydroph_interaction:Y89+Y90; saltbridge:H21; 

>  <intxn_cluster_10>  (85) 
0

>  <intxn_cluster_rank_10>  (85) 
17

>  <N_interactions>  (85) 
4

>  <∆∆G>  (85) 
-8.374749

>  <$/mg>  (85) 
163.0

>  <comRMSD>  (85) 
0.908756

>  <N_rotatable_bonds>  (85) 
3

>  <deep_P1_sidechain>  (85) 
False

>  <farthest_distance_to_substrate>  (85) 
2.520814

>  <hbond:SER:7>  (85) 
hbond:SER:7    0
hbond:SER:7    0
Name: 83, dtype: object

>  <hydroph_interaction:ASN:19>  (85) 
hydroph_interaction:ASN:19    0
hydroph_interaction:ASN:19    0
Name: 83, dtype: object

>  <halogenbond:ASN:19>  (85) 
halogenbond:ASN:19    0
halogenbond:ASN:19    0
Name: 83, dtype: object

>  <hbond:ARG:20>  (85) 
hbond:ARG:20    0
hbond:ARG:20    0
Name: 83, dtype: object

>  <hydroph_interaction:ARG:20>  (85) 
hydroph_interaction:ARG:20    0
hydroph_interaction:ARG:20    0
Name: 83, dtype: object

>  <hbond:HIS:21>  (85) 
hbond:HIS:21    0
hbond:HIS:21    0
Name: 83, dtype: object

>  <hydroph_interaction:HIS:21>  (85) 
hydroph_interaction:HIS:21    0
hydroph_interaction:HIS:21    0
Name: 83, dtype: object

>  <saltbridge:HIS:21>  (85) 
saltbridge:HIS:21    1
saltbridge:HIS:21    1
Name: 83, dtype: object

>  <pistack:HIS:21>  (85) 
pistack:HIS:21    0
pistack:HIS:21    0
Name: 83, dtype: object

>  <pication:HIS:21>  (85) 
pication:HIS:21    0
pication:HIS:21    0
Name: 83, dtype: object

>  <hydroph_interaction:LEU:22>  (85) 
hydroph_interaction:LEU:22    0
hydroph_interaction:LEU:22    0
Name: 83, dtype: object

>  <hbond:SER:36>  (85) 
hbond:SER:36    0
hbond:SER:36    0
Name: 83, dtype: object

>  <hbond:ASP:39>  (85) 
hbond:ASP:39    0
hbond:ASP:39    0
Name: 83, dtype: object

>  <saltbridge:ASP:39>  (85) 
saltbridge:ASP:39    0
saltbridge:ASP:39    0
Name: 83, dtype: object

>  <hydroph_interaction:ASP:39>  (85) 
hydroph_interaction:ASP:39    0
hydroph_interaction:ASP:39    0
Name: 83, dtype: object

>  <halogenbond:ASP:39>  (85) 
halogenbond:ASP:39    0
halogenbond:ASP:39    0
Name: 83, dtype: object

>  <hydroph_interaction:ILE:82>  (85) 
hydroph_interaction:ILE:82    0
hydroph_interaction:ILE:82    0
Name: 83, dtype: object

>  <hydroph_interaction:PHE:83>  (85) 
hydroph_interaction:PHE:83    0
hydroph_interaction:PHE:83    0
Name: 83, dtype: object

>  <hbond:PHE:83>  (85) 
hbond:PHE:83    0
hbond:PHE:83    0
Name: 83, dtype: object

>  <halogenbond:PHE:83>  (85) 
halogenbond:PHE:83    0
halogenbond:PHE:83    0
Name: 83, dtype: object

>  <hydroph_interaction:VAL:84>  (85) 
hydroph_interaction:VAL:84    0
hydroph_interaction:VAL:84    0
Name: 83, dtype: object

>  <hydroph_interaction:GLU:85>  (85) 
hydroph_interaction:GLU:85    0
hydroph_interaction:GLU:85    0
Name: 83, dtype: object

>  <hbond:GLU:85>  (85) 
hbond:GLU:85    0
hbond:GLU:85    0
Name: 83, dtype: object

>  <halogenbond:GLU:85>  (85) 
halogenbond:GLU:85    0
halogenbond:GLU:85    0
Name: 83, dtype: object

>  <halogenbond:ALA:86>  (85) 
halogenbond:ALA:86    0
halogenbond:ALA:86    0
Name: 83, dtype: object

>  <hbond:SER:87>  (85) 
hbond:SER:87    1
hbond:SER:87    1
Name: 83, dtype: object

>  <halogenbond:SER:87>  (85) 
halogenbond:SER:87    0
halogenbond:SER:87    0
Name: 83, dtype: object

>  <hbond:GLU:88>  (85) 
hbond:GLU:88    0
hbond:GLU:88    0
Name: 83, dtype: object

>  <halogenbond:GLU:88>  (85) 
halogenbond:GLU:88    0
halogenbond:GLU:88    0
Name: 83, dtype: object

>  <hydroph_interaction:TYR:89>  (85) 
hydroph_interaction:TYR:89    1
hydroph_interaction:TYR:89    1
Name: 83, dtype: object

>  <pistack:TYR:89>  (85) 
pistack:TYR:89    0
pistack:TYR:89    0
Name: 83, dtype: object

>  <hbond:TYR:89>  (85) 
hbond:TYR:89    0
hbond:TYR:89    0
Name: 83, dtype: object

>  <hbond:TYR:90>  (85) 
hbond:TYR:90    0
hbond:TYR:90    0
Name: 83, dtype: object

>  <hydroph_interaction:TYR:90>  (85) 
hydroph_interaction:TYR:90    1
hydroph_interaction:TYR:90    1
Name: 83, dtype: object

>  <pistack:TYR:90>  (85) 
pistack:TYR:90    0
pistack:TYR:90    0
Name: 83, dtype: object

>  <hbond:ARG:93>  (85) 
hbond:ARG:93    0
hbond:ARG:93    0
Name: 83, dtype: object

>  <saltbridge:ARG:93>  (85) 
saltbridge:ARG:93    0
saltbridge:ARG:93    0
Name: 83, dtype: object

>  <hydroph_interaction:ARG:93>  (85) 
hydroph_interaction:ARG:93    0
hydroph_interaction:ARG:93    0
Name: 83, dtype: object

>  <halogenbond:GLN:95>  (85) 
halogenbond:GLN:95    0
halogenbond:GLN:95    0
Name: 83, dtype: object

>  <hbond:GLN:95>  (85) 
hbond:GLN:95    0
hbond:GLN:95    0
Name: 83, dtype: object

>  <hydroph_interaction:GLN:95>  (85) 
hydroph_interaction:GLN:95    0
hydroph_interaction:GLN:95    0
Name: 83, dtype: object

>  <hydroph_interaction:LEU:98>  (85) 
hydroph_interaction:LEU:98    0
hydroph_interaction:LEU:98    0
Name: 83, dtype: object

>  <hydroph_interaction:LEU:100>  (85) 
hydroph_interaction:LEU:100    0
hydroph_interaction:LEU:100    0
Name: 83, dtype: object

>  <hbond:SER:105>  (85) 
hbond:SER:105    0
hbond:SER:105    0
Name: 83, dtype: object

>  <halogenbond:SER:105>  (85) 
halogenbond:SER:105    0
halogenbond:SER:105    0
Name: 83, dtype: object

>  <hydroph_interaction:PRO:107>  (85) 
hydroph_interaction:PRO:107    0
hydroph_interaction:PRO:107    0
Name: 83, dtype: object

>  <hbond:PRO:107>  (85) 
hbond:PRO:107    0
hbond:PRO:107    0
Name: 83, dtype: object

>  <halogenbond:PRO:107>  (85) 
halogenbond:PRO:107    0
halogenbond:PRO:107    0
Name: 83, dtype: object

>  <hbond:ASP:109>  (85) 
hbond:ASP:109    0
hbond:ASP:109    0
Name: 83, dtype: object

>  <hbond:CYS:110>  (85) 
hbond:CYS:110    0
hbond:CYS:110    0
Name: 83, dtype: object

>  <halogenbond:CYS:110>  (85) 
halogenbond:CYS:110    0
halogenbond:CYS:110    0
Name: 83, dtype: object

>  <hydroph_interaction:VAL:124>  (85) 
hydroph_interaction:VAL:124    0
hydroph_interaction:VAL:124    0
Name: 83, dtype: object

>  <hbond:SER:125>  (85) 
hbond:SER:125    0
hbond:SER:125    0
Name: 83, dtype: object

>  <halogenbond:SER:125>  (85) 
halogenbond:SER:125    0
halogenbond:SER:125    0
Name: 83, dtype: object

>  <hydroph_interaction:THR:126>  (85) 
hydroph_interaction:THR:126    0
hydroph_interaction:THR:126    0
Name: 83, dtype: object

>  <hbond:THR:126>  (85) 
hbond:THR:126    0
hbond:THR:126    0
Name: 83, dtype: object

>  <halogenbond:THR:126>  (85) 
halogenbond:THR:126    0
halogenbond:THR:126    0
Name: 83, dtype: object

>  <hbond:GLY:127>  (85) 
hbond:GLY:127    0
hbond:GLY:127    0
Name: 83, dtype: object

>  <halogenbond:GLY:127>  (85) 
halogenbond:GLY:127    0
halogenbond:GLY:127    0
Name: 83, dtype: object

>  <hbond:GLY:128>  (85) 
hbond:GLY:128    0
hbond:GLY:128    0
Name: 83, dtype: object

>  <hbond:ASN:129>  (85) 
hbond:ASN:129    0
hbond:ASN:129    0
Name: 83, dtype: object

>  <hydroph_interaction:ASN:129>  (85) 
hydroph_interaction:ASN:129    0
hydroph_interaction:ASN:129    0
Name: 83, dtype: object

>  <halogenbond:ASN:129>  (85) 
halogenbond:ASN:129    0
halogenbond:ASN:129    0
Name: 83, dtype: object

>  <hydroph_interaction:LEU:131>  (85) 
hydroph_interaction:LEU:131    0
hydroph_interaction:LEU:131    0
Name: 83, dtype: object

>  <hbond:LEU:131>  (85) 
hbond:LEU:131    0
hbond:LEU:131    0
Name: 83, dtype: object

>  <halogenbond:LEU:131>  (85) 
halogenbond:LEU:131    0
halogenbond:LEU:131    0
Name: 83, dtype: object

>  <hbond:VAL:132>  (85) 
hbond:VAL:132    0
hbond:VAL:132    0
Name: 83, dtype: object

$$$$
PV_002404879736
     RDKit          3D

 16 17  0  0  0  0  0  0  0  0999 V2000
   28.4922   15.3345    8.4307 C   0  0  0  0  0  0  0  0  0  0  0  0
   28.2736   13.8589    8.1890 C   0  0  0  0  0  0  0  0  0  0  0  0
   29.3666   13.2393    7.4974 N   0  0  0  0  0  0  0  0  0  0  0  0
   30.4852   12.8587    8.1794 C   0  0  0  0  0  0  0  0  0  0  0  0
   31.0095   13.5532    9.0431 O   0  0  0  0  0  0  0  0  0  0  0  0
   31.0161   11.5715    7.7900 C   0  0  0  0  0  0  0  0  0  0  0  0
   31.9907   11.4839    6.8414 C   0  0  0  0  0  0  0  0  0  0  0  0
   32.4676   12.6325    6.2473 C   0  0  0  0  0  0  0  0  0  0  0  0
   33.4215   12.6640    5.3039 N   0  0  0  0  0  0  0  0  0  0  0  0
   33.9082   11.4291    4.9646 C   0  0  0  0  0  0  0  0  0  0  0  0
   33.5056   10.2275    5.4954 C   0  0  0  0  0  0  0  0  0  0  0  0
   32.5181   10.2368    6.4635 C   0  0  0  0  0  0  0  0  0  0  0  0
   32.0258    9.0783    7.0770 C   0  0  0  0  0  0  0  0  0  0  0  0
   31.0268    9.1820    8.0409 C   0  0  0  0  0  0  0  0  0  0  0  0
   30.4280    8.0451    8.7546 C   0  0  0  0  0  0  0  0  0  0  0  0
   30.5427   10.4063    8.3782 C   0  0  0  0  0  0  0  0  0  0  0  0
  1  2  1  0
  2  3  1  0
  3  4  1  0
  4  5  2  0
  4  6  1  0
  6  7  2  0
  7  8  1  0
  8  9  2  0
  9 10  1  0
 10 11  2  0
 11 12  1  0
 12 13  2  0
 13 14  1  0
 14 15  1  0
 14 16  2  0
 16  6  1  0
 12  7  1  0
A    1
 C1 
A    2
 C2 
A    3
 N1 
A    4
 C3 
A    5
 O1 
A    6
 C4 
A    7
 C5 
A    8
 C6 
A    9
 N2 
A   10
 C7 
A   11
 C8 
A   12
 C9 
A   13
 C10
A   14
 C11
A   15
 C12
A   16
 C13
M  END
>  <ref_pdb>  (86) 
Ax0310a

>  <ref_mols>  (86) 
Ax0554a,Ax0310a

>  <original SMILES>  (86) 
CCNC(=O)c1cc(C)cc2ccncc12

>  <rationale>  (86) 
info hbond:S87; hydroph_interaction:V124+Y89+Y90; 

>  <intxn_cluster_10>  (86) 
0

>  <intxn_cluster_rank_10>  (86) 
18

>  <N_interactions>  (86) 
4

>  <∆∆G>  (86) 
-10.993214

>  <$/mg>  (86) 
163.0

>  <comRMSD>  (86) 
0.874323

>  <N_rotatable_bonds>  (86) 
4

>  <deep_P1_sidechain>  (86) 
True

>  <farthest_distance_to_substrate>  (86) 
2.378627

>  <hbond:SER:7>  (86) 
hbond:SER:7    0
hbond:SER:7    0
Name: 84, dtype: object

>  <hydroph_interaction:ASN:19>  (86) 
hydroph_interaction:ASN:19    0
hydroph_interaction:ASN:19    0
Name: 84, dtype: object

>  <halogenbond:ASN:19>  (86) 
halogenbond:ASN:19    0
halogenbond:ASN:19    0
Name: 84, dtype: object

>  <hbond:ARG:20>  (86) 
hbond:ARG:20    0
hbond:ARG:20    0
Name: 84, dtype: object

>  <hydroph_interaction:ARG:20>  (86) 
hydroph_interaction:ARG:20    0
hydroph_interaction:ARG:20    0
Name: 84, dtype: object

>  <hbond:HIS:21>  (86) 
hbond:HIS:21    0
hbond:HIS:21    0
Name: 84, dtype: object

>  <hydroph_interaction:HIS:21>  (86) 
hydroph_interaction:HIS:21    0
hydroph_interaction:HIS:21    0
Name: 84, dtype: object

>  <saltbridge:HIS:21>  (86) 
saltbridge:HIS:21    0
saltbridge:HIS:21    0
Name: 84, dtype: object

>  <pistack:HIS:21>  (86) 
pistack:HIS:21    0
pistack:HIS:21    0
Name: 84, dtype: object

>  <pication:HIS:21>  (86) 
pication:HIS:21    0
pication:HIS:21    0
Name: 84, dtype: object

>  <hydroph_interaction:LEU:22>  (86) 
hydroph_interaction:LEU:22    0
hydroph_interaction:LEU:22    0
Name: 84, dtype: object

>  <hbond:SER:36>  (86) 
hbond:SER:36    0
hbond:SER:36    0
Name: 84, dtype: object

>  <hbond:ASP:39>  (86) 
hbond:ASP:39    0
hbond:ASP:39    0
Name: 84, dtype: object

>  <saltbridge:ASP:39>  (86) 
saltbridge:ASP:39    0
saltbridge:ASP:39    0
Name: 84, dtype: object

>  <hydroph_interaction:ASP:39>  (86) 
hydroph_interaction:ASP:39    0
hydroph_interaction:ASP:39    0
Name: 84, dtype: object

>  <halogenbond:ASP:39>  (86) 
halogenbond:ASP:39    0
halogenbond:ASP:39    0
Name: 84, dtype: object

>  <hydroph_interaction:ILE:82>  (86) 
hydroph_interaction:ILE:82    0
hydroph_interaction:ILE:82    0
Name: 84, dtype: object

>  <hydroph_interaction:PHE:83>  (86) 
hydroph_interaction:PHE:83    0
hydroph_interaction:PHE:83    0
Name: 84, dtype: object

>  <hbond:PHE:83>  (86) 
hbond:PHE:83    0
hbond:PHE:83    0
Name: 84, dtype: object

>  <halogenbond:PHE:83>  (86) 
halogenbond:PHE:83    0
halogenbond:PHE:83    0
Name: 84, dtype: object

>  <hydroph_interaction:VAL:84>  (86) 
hydroph_interaction:VAL:84    0
hydroph_interaction:VAL:84    0
Name: 84, dtype: object

>  <hydroph_interaction:GLU:85>  (86) 
hydroph_interaction:GLU:85    0
hydroph_interaction:GLU:85    0
Name: 84, dtype: object

>  <hbond:GLU:85>  (86) 
hbond:GLU:85    0
hbond:GLU:85    0
Name: 84, dtype: object

>  <halogenbond:GLU:85>  (86) 
halogenbond:GLU:85    0
halogenbond:GLU:85    0
Name: 84, dtype: object

>  <halogenbond:ALA:86>  (86) 
halogenbond:ALA:86    0
halogenbond:ALA:86    0
Name: 84, dtype: object

>  <hbond:SER:87>  (86) 
hbond:SER:87    1
hbond:SER:87    1
Name: 84, dtype: object

>  <halogenbond:SER:87>  (86) 
halogenbond:SER:87    0
halogenbond:SER:87    0
Name: 84, dtype: object

>  <hbond:GLU:88>  (86) 
hbond:GLU:88    0
hbond:GLU:88    0
Name: 84, dtype: object

>  <halogenbond:GLU:88>  (86) 
halogenbond:GLU:88    0
halogenbond:GLU:88    0
Name: 84, dtype: object

>  <hydroph_interaction:TYR:89>  (86) 
hydroph_interaction:TYR:89    1
hydroph_interaction:TYR:89    1
Name: 84, dtype: object

>  <pistack:TYR:89>  (86) 
pistack:TYR:89    0
pistack:TYR:89    0
Name: 84, dtype: object

>  <hbond:TYR:89>  (86) 
hbond:TYR:89    0
hbond:TYR:89    0
Name: 84, dtype: object

>  <hbond:TYR:90>  (86) 
hbond:TYR:90    0
hbond:TYR:90    0
Name: 84, dtype: object

>  <hydroph_interaction:TYR:90>  (86) 
hydroph_interaction:TYR:90    1
hydroph_interaction:TYR:90    1
Name: 84, dtype: object

>  <pistack:TYR:90>  (86) 
pistack:TYR:90    0
pistack:TYR:90    0
Name: 84, dtype: object

>  <hbond:ARG:93>  (86) 
hbond:ARG:93    0
hbond:ARG:93    0
Name: 84, dtype: object

>  <saltbridge:ARG:93>  (86) 
saltbridge:ARG:93    0
saltbridge:ARG:93    0
Name: 84, dtype: object

>  <hydroph_interaction:ARG:93>  (86) 
hydroph_interaction:ARG:93    0
hydroph_interaction:ARG:93    0
Name: 84, dtype: object

>  <halogenbond:GLN:95>  (86) 
halogenbond:GLN:95    0
halogenbond:GLN:95    0
Name: 84, dtype: object

>  <hbond:GLN:95>  (86) 
hbond:GLN:95    0
hbond:GLN:95    0
Name: 84, dtype: object

>  <hydroph_interaction:GLN:95>  (86) 
hydroph_interaction:GLN:95    0
hydroph_interaction:GLN:95    0
Name: 84, dtype: object

>  <hydroph_interaction:LEU:98>  (86) 
hydroph_interaction:LEU:98    0
hydroph_interaction:LEU:98    0
Name: 84, dtype: object

>  <hydroph_interaction:LEU:100>  (86) 
hydroph_interaction:LEU:100    0
hydroph_interaction:LEU:100    0
Name: 84, dtype: object

>  <hbond:SER:105>  (86) 
hbond:SER:105    0
hbond:SER:105    0
Name: 84, dtype: object

>  <halogenbond:SER:105>  (86) 
halogenbond:SER:105    0
halogenbond:SER:105    0
Name: 84, dtype: object

>  <hydroph_interaction:PRO:107>  (86) 
hydroph_interaction:PRO:107    0
hydroph_interaction:PRO:107    0
Name: 84, dtype: object

>  <hbond:PRO:107>  (86) 
hbond:PRO:107    0
hbond:PRO:107    0
Name: 84, dtype: object

>  <halogenbond:PRO:107>  (86) 
halogenbond:PRO:107    0
halogenbond:PRO:107    0
Name: 84, dtype: object

>  <hbond:ASP:109>  (86) 
hbond:ASP:109    0
hbond:ASP:109    0
Name: 84, dtype: object

>  <hbond:CYS:110>  (86) 
hbond:CYS:110    0
hbond:CYS:110    0
Name: 84, dtype: object

>  <halogenbond:CYS:110>  (86) 
halogenbond:CYS:110    0
halogenbond:CYS:110    0
Name: 84, dtype: object

>  <hydroph_interaction:VAL:124>  (86) 
hydroph_interaction:VAL:124    1
hydroph_interaction:VAL:124    1
Name: 84, dtype: object

>  <hbond:SER:125>  (86) 
hbond:SER:125    0
hbond:SER:125    0
Name: 84, dtype: object

>  <halogenbond:SER:125>  (86) 
halogenbond:SER:125    0
halogenbond:SER:125    0
Name: 84, dtype: object

>  <hydroph_interaction:THR:126>  (86) 
hydroph_interaction:THR:126    0
hydroph_interaction:THR:126    0
Name: 84, dtype: object

>  <hbond:THR:126>  (86) 
hbond:THR:126    0
hbond:THR:126    0
Name: 84, dtype: object

>  <halogenbond:THR:126>  (86) 
halogenbond:THR:126    0
halogenbond:THR:126    0
Name: 84, dtype: object

>  <hbond:GLY:127>  (86) 
hbond:GLY:127    0
hbond:GLY:127    0
Name: 84, dtype: object

>  <halogenbond:GLY:127>  (86) 
halogenbond:GLY:127    0
halogenbond:GLY:127    0
Name: 84, dtype: object

>  <hbond:GLY:128>  (86) 
hbond:GLY:128    0
hbond:GLY:128    0
Name: 84, dtype: object

>  <hbond:ASN:129>  (86) 
hbond:ASN:129    0
hbond:ASN:129    0
Name: 84, dtype: object

>  <hydroph_interaction:ASN:129>  (86) 
hydroph_interaction:ASN:129    0
hydroph_interaction:ASN:129    0
Name: 84, dtype: object

>  <halogenbond:ASN:129>  (86) 
halogenbond:ASN:129    0
halogenbond:ASN:129    0
Name: 84, dtype: object

>  <hydroph_interaction:LEU:131>  (86) 
hydroph_interaction:LEU:131    0
hydroph_interaction:LEU:131    0
Name: 84, dtype: object

>  <hbond:LEU:131>  (86) 
hbond:LEU:131    0
hbond:LEU:131    0
Name: 84, dtype: object

>  <halogenbond:LEU:131>  (86) 
halogenbond:LEU:131    0
halogenbond:LEU:131    0
Name: 84, dtype: object

>  <hbond:VAL:132>  (86) 
hbond:VAL:132    0
hbond:VAL:132    0
Name: 84, dtype: object

$$$$
PV_004194732920
     RDKit          3D

 14 14  0  0  0  0  0  0  0  0999 V2000
   26.8751   16.4189   11.1533 C   0  0  0  0  0  0  0  0  0  0  0  0
   27.1754   15.5166    9.9983 C   0  0  0  0  0  0  0  0  0  0  0  0
   27.7819   14.3170    9.9429 C   0  0  0  0  0  0  0  0  0  0  0  0
   28.0443   13.5500    8.6810 C   0  0  0  0  0  0  0  0  0  0  0  0
   29.3862   13.0228    8.6854 O   0  0  0  0  0  0  0  0  0  0  0  0
   29.8481   12.8494    7.4291 C   0  0  0  0  0  0  0  0  0  0  0  0
   29.5517   13.5641    6.4878 O   0  0  0  0  0  0  0  0  0  0  0  0
   30.7458   11.6734    7.2474 C   0  0  0  0  0  0  0  0  0  0  0  0
   31.7927   11.7870    6.3241 C   0  0  0  0  0  0  0  0  0  0  0  0
   32.6470   10.7087    6.0714 C   0  0  0  0  0  0  0  0  0  0  0  0
   33.7629   10.8181    5.0824 C   0  0  0  0  0  0  0  0  0  0  0  0
   32.4445    9.5143    6.7528 C   0  0  0  0  0  0  0  0  0  0  0  0
   31.4225    9.3948    7.6822 C   0  0  0  0  0  0  0  0  0  0  0  0
   30.5779   10.4670    7.9370 C   0  0  0  0  0  0  0  0  0  0  0  0
  1  2  1  0
  2  3  2  3
  3  4  1  0
  4  5  1  0
  5  6  1  0
  6  7  2  0
  6  8  1  0
  8  9  2  0
  9 10  1  0
 10 11  1  0
 10 12  2  0
 12 13  1  0
 13 14  2  0
 14  8  1  0
A    1
 C1 
A    2
 C2 
A    3
 C3 
A    4
 C4 
A    5
 O1 
A    6
 C5 
A    7
 O2 
A    8
 C6 
A    9
 C7 
A   10
 C8 
A   11
 C9 
A   12
 C10
A   13
 C11
A   14
 C12
M  END
>  <ref_pdb>  (87) 
Ax0310a

>  <ref_mols>  (87) 
Ax0554a,Ax0719a

>  <original SMILES>  (87) 
CC=CCOC(=O)c1cccc(C)c1

>  <rationale>  (87) 
info hbond:S87; hydroph_interaction:P107+Y89+Y90+H21+D39; saltbridge:H21; 

>  <intxn_cluster_10>  (87) 
0

>  <intxn_cluster_rank_10>  (87) 
18

>  <N_interactions>  (87) 
8

>  <∆∆G>  (87) 
-5.484396

>  <$/mg>  (87) 
163.0

>  <comRMSD>  (87) 
0.58777

>  <N_rotatable_bonds>  (87) 
5

>  <deep_P1_sidechain>  (87) 
False

>  <farthest_distance_to_substrate>  (87) 
2.539282

>  <hbond:SER:7>  (87) 
hbond:SER:7    0
hbond:SER:7    0
Name: 85, dtype: object

>  <hydroph_interaction:ASN:19>  (87) 
hydroph_interaction:ASN:19    0
hydroph_interaction:ASN:19    0
Name: 85, dtype: object

>  <halogenbond:ASN:19>  (87) 
halogenbond:ASN:19    0
halogenbond:ASN:19    0
Name: 85, dtype: object

>  <hbond:ARG:20>  (87) 
hbond:ARG:20    0
hbond:ARG:20    0
Name: 85, dtype: object

>  <hydroph_interaction:ARG:20>  (87) 
hydroph_interaction:ARG:20    0
hydroph_interaction:ARG:20    0
Name: 85, dtype: object

>  <hbond:HIS:21>  (87) 
hbond:HIS:21    0
hbond:HIS:21    0
Name: 85, dtype: object

>  <hydroph_interaction:HIS:21>  (87) 
hydroph_interaction:HIS:21    1
hydroph_interaction:HIS:21    1
Name: 85, dtype: object

>  <saltbridge:HIS:21>  (87) 
saltbridge:HIS:21    1
saltbridge:HIS:21    1
Name: 85, dtype: object

>  <pistack:HIS:21>  (87) 
pistack:HIS:21    0
pistack:HIS:21    0
Name: 85, dtype: object

>  <pication:HIS:21>  (87) 
pication:HIS:21    0
pication:HIS:21    0
Name: 85, dtype: object

>  <hydroph_interaction:LEU:22>  (87) 
hydroph_interaction:LEU:22    0
hydroph_interaction:LEU:22    0
Name: 85, dtype: object

>  <hbond:SER:36>  (87) 
hbond:SER:36    0
hbond:SER:36    0
Name: 85, dtype: object

>  <hbond:ASP:39>  (87) 
hbond:ASP:39    0
hbond:ASP:39    0
Name: 85, dtype: object

>  <saltbridge:ASP:39>  (87) 
saltbridge:ASP:39    0
saltbridge:ASP:39    0
Name: 85, dtype: object

>  <hydroph_interaction:ASP:39>  (87) 
hydroph_interaction:ASP:39    1
hydroph_interaction:ASP:39    1
Name: 85, dtype: object

>  <halogenbond:ASP:39>  (87) 
halogenbond:ASP:39    0
halogenbond:ASP:39    0
Name: 85, dtype: object

>  <hydroph_interaction:ILE:82>  (87) 
hydroph_interaction:ILE:82    0
hydroph_interaction:ILE:82    0
Name: 85, dtype: object

>  <hydroph_interaction:PHE:83>  (87) 
hydroph_interaction:PHE:83    0
hydroph_interaction:PHE:83    0
Name: 85, dtype: object

>  <hbond:PHE:83>  (87) 
hbond:PHE:83    0
hbond:PHE:83    0
Name: 85, dtype: object

>  <halogenbond:PHE:83>  (87) 
halogenbond:PHE:83    0
halogenbond:PHE:83    0
Name: 85, dtype: object

>  <hydroph_interaction:VAL:84>  (87) 
hydroph_interaction:VAL:84    0
hydroph_interaction:VAL:84    0
Name: 85, dtype: object

>  <hydroph_interaction:GLU:85>  (87) 
hydroph_interaction:GLU:85    0
hydroph_interaction:GLU:85    0
Name: 85, dtype: object

>  <hbond:GLU:85>  (87) 
hbond:GLU:85    0
hbond:GLU:85    0
Name: 85, dtype: object

>  <halogenbond:GLU:85>  (87) 
halogenbond:GLU:85    0
halogenbond:GLU:85    0
Name: 85, dtype: object

>  <halogenbond:ALA:86>  (87) 
halogenbond:ALA:86    0
halogenbond:ALA:86    0
Name: 85, dtype: object

>  <hbond:SER:87>  (87) 
hbond:SER:87    1
hbond:SER:87    1
Name: 85, dtype: object

>  <halogenbond:SER:87>  (87) 
halogenbond:SER:87    0
halogenbond:SER:87    0
Name: 85, dtype: object

>  <hbond:GLU:88>  (87) 
hbond:GLU:88    0
hbond:GLU:88    0
Name: 85, dtype: object

>  <halogenbond:GLU:88>  (87) 
halogenbond:GLU:88    0
halogenbond:GLU:88    0
Name: 85, dtype: object

>  <hydroph_interaction:TYR:89>  (87) 
hydroph_interaction:TYR:89    1
hydroph_interaction:TYR:89    1
Name: 85, dtype: object

>  <pistack:TYR:89>  (87) 
pistack:TYR:89    0
pistack:TYR:89    0
Name: 85, dtype: object

>  <hbond:TYR:89>  (87) 
hbond:TYR:89    0
hbond:TYR:89    0
Name: 85, dtype: object

>  <hbond:TYR:90>  (87) 
hbond:TYR:90    0
hbond:TYR:90    0
Name: 85, dtype: object

>  <hydroph_interaction:TYR:90>  (87) 
hydroph_interaction:TYR:90    2
hydroph_interaction:TYR:90    2
Name: 85, dtype: object

>  <pistack:TYR:90>  (87) 
pistack:TYR:90    0
pistack:TYR:90    0
Name: 85, dtype: object

>  <hbond:ARG:93>  (87) 
hbond:ARG:93    0
hbond:ARG:93    0
Name: 85, dtype: object

>  <saltbridge:ARG:93>  (87) 
saltbridge:ARG:93    0
saltbridge:ARG:93    0
Name: 85, dtype: object

>  <hydroph_interaction:ARG:93>  (87) 
hydroph_interaction:ARG:93    0
hydroph_interaction:ARG:93    0
Name: 85, dtype: object

>  <halogenbond:GLN:95>  (87) 
halogenbond:GLN:95    0
halogenbond:GLN:95    0
Name: 85, dtype: object

>  <hbond:GLN:95>  (87) 
hbond:GLN:95    0
hbond:GLN:95    0
Name: 85, dtype: object

>  <hydroph_interaction:GLN:95>  (87) 
hydroph_interaction:GLN:95    0
hydroph_interaction:GLN:95    0
Name: 85, dtype: object

>  <hydroph_interaction:LEU:98>  (87) 
hydroph_interaction:LEU:98    0
hydroph_interaction:LEU:98    0
Name: 85, dtype: object

>  <hydroph_interaction:LEU:100>  (87) 
hydroph_interaction:LEU:100    0
hydroph_interaction:LEU:100    0
Name: 85, dtype: object

>  <hbond:SER:105>  (87) 
hbond:SER:105    0
hbond:SER:105    0
Name: 85, dtype: object

>  <halogenbond:SER:105>  (87) 
halogenbond:SER:105    0
halogenbond:SER:105    0
Name: 85, dtype: object

>  <hydroph_interaction:PRO:107>  (87) 
hydroph_interaction:PRO:107    1
hydroph_interaction:PRO:107    1
Name: 85, dtype: object

>  <hbond:PRO:107>  (87) 
hbond:PRO:107    0
hbond:PRO:107    0
Name: 85, dtype: object

>  <halogenbond:PRO:107>  (87) 
halogenbond:PRO:107    0
halogenbond:PRO:107    0
Name: 85, dtype: object

>  <hbond:ASP:109>  (87) 
hbond:ASP:109    0
hbond:ASP:109    0
Name: 85, dtype: object

>  <hbond:CYS:110>  (87) 
hbond:CYS:110    0
hbond:CYS:110    0
Name: 85, dtype: object

>  <halogenbond:CYS:110>  (87) 
halogenbond:CYS:110    0
halogenbond:CYS:110    0
Name: 85, dtype: object

>  <hydroph_interaction:VAL:124>  (87) 
hydroph_interaction:VAL:124    0
hydroph_interaction:VAL:124    0
Name: 85, dtype: object

>  <hbond:SER:125>  (87) 
hbond:SER:125    0
hbond:SER:125    0
Name: 85, dtype: object

>  <halogenbond:SER:125>  (87) 
halogenbond:SER:125    0
halogenbond:SER:125    0
Name: 85, dtype: object

>  <hydroph_interaction:THR:126>  (87) 
hydroph_interaction:THR:126    0
hydroph_interaction:THR:126    0
Name: 85, dtype: object

>  <hbond:THR:126>  (87) 
hbond:THR:126    0
hbond:THR:126    0
Name: 85, dtype: object

>  <halogenbond:THR:126>  (87) 
halogenbond:THR:126    0
halogenbond:THR:126    0
Name: 85, dtype: object

>  <hbond:GLY:127>  (87) 
hbond:GLY:127    0
hbond:GLY:127    0
Name: 85, dtype: object

>  <halogenbond:GLY:127>  (87) 
halogenbond:GLY:127    0
halogenbond:GLY:127    0
Name: 85, dtype: object

>  <hbond:GLY:128>  (87) 
hbond:GLY:128    0
hbond:GLY:128    0
Name: 85, dtype: object

>  <hbond:ASN:129>  (87) 
hbond:ASN:129    0
hbond:ASN:129    0
Name: 85, dtype: object

>  <hydroph_interaction:ASN:129>  (87) 
hydroph_interaction:ASN:129    0
hydroph_interaction:ASN:129    0
Name: 85, dtype: object

>  <halogenbond:ASN:129>  (87) 
halogenbond:ASN:129    0
halogenbond:ASN:129    0
Name: 85, dtype: object

>  <hydroph_interaction:LEU:131>  (87) 
hydroph_interaction:LEU:131    0
hydroph_interaction:LEU:131    0
Name: 85, dtype: object

>  <hbond:LEU:131>  (87) 
hbond:LEU:131    0
hbond:LEU:131    0
Name: 85, dtype: object

>  <halogenbond:LEU:131>  (87) 
halogenbond:LEU:131    0
halogenbond:LEU:131    0
Name: 85, dtype: object

>  <hbond:VAL:132>  (87) 
hbond:VAL:132    0
hbond:VAL:132    0
Name: 85, dtype: object

$$$$
Z359419720
     RDKit          3D

 12 12  0  0  0  0  0  0  0  0999 V2000
   40.5526   15.7938   10.6505 C   0  0  0  0  0  0  0  0  0  0  0  0
   39.9029   14.5408   10.3254 N   0  0  0  0  0  0  0  0  0  0  0  0
   40.3580   13.3342   10.7246 C   0  0  0  0  0  0  0  0  0  0  0  0
   41.5219   12.9458   10.6506 O   0  0  0  0  0  0  0  0  0  0  0  0
   39.2050   12.4975   11.2505 C   0  0  0  0  0  0  0  0  0  0  0  0
   38.4169   12.8657   12.5088 C   0  0  0  0  0  0  0  0  0  0  0  0
   37.2523   12.0139   13.0897 C   0  0  0  0  0  0  0  0  0  0  0  0
   37.2152   10.8935   12.1168 C   0  0  0  0  0  0  0  0  0  0  0  0
   36.1661    9.9940   12.6117 C   0  0  0  0  0  0  0  0  0  0  0  0
   37.9114   10.6245   11.0239 C   0  0  0  0  0  0  0  0  0  0  0  0
   37.6193    9.5551   10.3663 N   0  0  0  0  0  0  0  0  0  0  0  0
   38.8801   11.3786   10.5783 C   0  0  0  0  0  0  0  0  0  0  0  0
  1  2  1  0
  2  3  1  0
  3  4  2  0
  3  5  1  0
  5  6  2  0
  6  7  1  0
  7  8  2  0
  8  9  1  0
  8 10  1  0
 10 11  1  0
 10 12  2  0
 12  5  1  0
A    1
 C1 
A    2
 N1 
A    3
 C2 
A    4
 O1 
A    5
 C3 
A    6
 C4 
A    7
 C5 
A    8
 C6 
A    9
 C7 
A   10
 C8 
A   11
 N2 
A   12
 C9 
M  END
>  <ref_pdb>  (88) 
Ax0310a

>  <ref_mols>  (88) 
Ax0416a,Ax0473a

>  <original SMILES>  (88) 
CNC(=O)c1ccc(C)c(N)c1

>  <rationale>  (88) 
info hbond:E85+N129+G128+L131; hydroph_interaction:L100; 

>  <intxn_cluster_10>  (88) 
4

>  <intxn_cluster_rank_10>  (88) 
9

>  <N_interactions>  (88) 
5

>  <∆∆G>  (88) 
-4.220426

>  <$/mg>  (88) 
0.0

>  <comRMSD>  (88) 
0.867661

>  <N_rotatable_bonds>  (88) 
4

>  <deep_P1_sidechain>  (88) 
False

>  <farthest_distance_to_substrate>  (88) 
3.473599

>  <hbond:SER:7>  (88) 
hbond:SER:7    0
hbond:SER:7    0
Name: 86, dtype: object

>  <hydroph_interaction:ASN:19>  (88) 
hydroph_interaction:ASN:19    0
hydroph_interaction:ASN:19    0
Name: 86, dtype: object

>  <halogenbond:ASN:19>  (88) 
halogenbond:ASN:19    0
halogenbond:ASN:19    0
Name: 86, dtype: object

>  <hbond:ARG:20>  (88) 
hbond:ARG:20    0
hbond:ARG:20    0
Name: 86, dtype: object

>  <hydroph_interaction:ARG:20>  (88) 
hydroph_interaction:ARG:20    0
hydroph_interaction:ARG:20    0
Name: 86, dtype: object

>  <hbond:HIS:21>  (88) 
hbond:HIS:21    0
hbond:HIS:21    0
Name: 86, dtype: object

>  <hydroph_interaction:HIS:21>  (88) 
hydroph_interaction:HIS:21    0
hydroph_interaction:HIS:21    0
Name: 86, dtype: object

>  <saltbridge:HIS:21>  (88) 
saltbridge:HIS:21    0
saltbridge:HIS:21    0
Name: 86, dtype: object

>  <pistack:HIS:21>  (88) 
pistack:HIS:21    0
pistack:HIS:21    0
Name: 86, dtype: object

>  <pication:HIS:21>  (88) 
pication:HIS:21    0
pication:HIS:21    0
Name: 86, dtype: object

>  <hydroph_interaction:LEU:22>  (88) 
hydroph_interaction:LEU:22    0
hydroph_interaction:LEU:22    0
Name: 86, dtype: object

>  <hbond:SER:36>  (88) 
hbond:SER:36    0
hbond:SER:36    0
Name: 86, dtype: object

>  <hbond:ASP:39>  (88) 
hbond:ASP:39    0
hbond:ASP:39    0
Name: 86, dtype: object

>  <saltbridge:ASP:39>  (88) 
saltbridge:ASP:39    0
saltbridge:ASP:39    0
Name: 86, dtype: object

>  <hydroph_interaction:ASP:39>  (88) 
hydroph_interaction:ASP:39    0
hydroph_interaction:ASP:39    0
Name: 86, dtype: object

>  <halogenbond:ASP:39>  (88) 
halogenbond:ASP:39    0
halogenbond:ASP:39    0
Name: 86, dtype: object

>  <hydroph_interaction:ILE:82>  (88) 
hydroph_interaction:ILE:82    0
hydroph_interaction:ILE:82    0
Name: 86, dtype: object

>  <hydroph_interaction:PHE:83>  (88) 
hydroph_interaction:PHE:83    0
hydroph_interaction:PHE:83    0
Name: 86, dtype: object

>  <hbond:PHE:83>  (88) 
hbond:PHE:83    0
hbond:PHE:83    0
Name: 86, dtype: object

>  <halogenbond:PHE:83>  (88) 
halogenbond:PHE:83    0
halogenbond:PHE:83    0
Name: 86, dtype: object

>  <hydroph_interaction:VAL:84>  (88) 
hydroph_interaction:VAL:84    0
hydroph_interaction:VAL:84    0
Name: 86, dtype: object

>  <hydroph_interaction:GLU:85>  (88) 
hydroph_interaction:GLU:85    0
hydroph_interaction:GLU:85    0
Name: 86, dtype: object

>  <hbond:GLU:85>  (88) 
hbond:GLU:85    1
hbond:GLU:85    1
Name: 86, dtype: object

>  <halogenbond:GLU:85>  (88) 
halogenbond:GLU:85    0
halogenbond:GLU:85    0
Name: 86, dtype: object

>  <halogenbond:ALA:86>  (88) 
halogenbond:ALA:86    0
halogenbond:ALA:86    0
Name: 86, dtype: object

>  <hbond:SER:87>  (88) 
hbond:SER:87    0
hbond:SER:87    0
Name: 86, dtype: object

>  <halogenbond:SER:87>  (88) 
halogenbond:SER:87    0
halogenbond:SER:87    0
Name: 86, dtype: object

>  <hbond:GLU:88>  (88) 
hbond:GLU:88    0
hbond:GLU:88    0
Name: 86, dtype: object

>  <halogenbond:GLU:88>  (88) 
halogenbond:GLU:88    0
halogenbond:GLU:88    0
Name: 86, dtype: object

>  <hydroph_interaction:TYR:89>  (88) 
hydroph_interaction:TYR:89    0
hydroph_interaction:TYR:89    0
Name: 86, dtype: object

>  <pistack:TYR:89>  (88) 
pistack:TYR:89    0
pistack:TYR:89    0
Name: 86, dtype: object

>  <hbond:TYR:89>  (88) 
hbond:TYR:89    0
hbond:TYR:89    0
Name: 86, dtype: object

>  <hbond:TYR:90>  (88) 
hbond:TYR:90    0
hbond:TYR:90    0
Name: 86, dtype: object

>  <hydroph_interaction:TYR:90>  (88) 
hydroph_interaction:TYR:90    0
hydroph_interaction:TYR:90    0
Name: 86, dtype: object

>  <pistack:TYR:90>  (88) 
pistack:TYR:90    0
pistack:TYR:90    0
Name: 86, dtype: object

>  <hbond:ARG:93>  (88) 
hbond:ARG:93    0
hbond:ARG:93    0
Name: 86, dtype: object

>  <saltbridge:ARG:93>  (88) 
saltbridge:ARG:93    0
saltbridge:ARG:93    0
Name: 86, dtype: object

>  <hydroph_interaction:ARG:93>  (88) 
hydroph_interaction:ARG:93    0
hydroph_interaction:ARG:93    0
Name: 86, dtype: object

>  <halogenbond:GLN:95>  (88) 
halogenbond:GLN:95    0
halogenbond:GLN:95    0
Name: 86, dtype: object

>  <hbond:GLN:95>  (88) 
hbond:GLN:95    0
hbond:GLN:95    0
Name: 86, dtype: object

>  <hydroph_interaction:GLN:95>  (88) 
hydroph_interaction:GLN:95    0
hydroph_interaction:GLN:95    0
Name: 86, dtype: object

>  <hydroph_interaction:LEU:98>  (88) 
hydroph_interaction:LEU:98    0
hydroph_interaction:LEU:98    0
Name: 86, dtype: object

>  <hydroph_interaction:LEU:100>  (88) 
hydroph_interaction:LEU:100    1
hydroph_interaction:LEU:100    1
Name: 86, dtype: object

>  <hbond:SER:105>  (88) 
hbond:SER:105    0
hbond:SER:105    0
Name: 86, dtype: object

>  <halogenbond:SER:105>  (88) 
halogenbond:SER:105    0
halogenbond:SER:105    0
Name: 86, dtype: object

>  <hydroph_interaction:PRO:107>  (88) 
hydroph_interaction:PRO:107    0
hydroph_interaction:PRO:107    0
Name: 86, dtype: object

>  <hbond:PRO:107>  (88) 
hbond:PRO:107    0
hbond:PRO:107    0
Name: 86, dtype: object

>  <halogenbond:PRO:107>  (88) 
halogenbond:PRO:107    0
halogenbond:PRO:107    0
Name: 86, dtype: object

>  <hbond:ASP:109>  (88) 
hbond:ASP:109    0
hbond:ASP:109    0
Name: 86, dtype: object

>  <hbond:CYS:110>  (88) 
hbond:CYS:110    0
hbond:CYS:110    0
Name: 86, dtype: object

>  <halogenbond:CYS:110>  (88) 
halogenbond:CYS:110    0
halogenbond:CYS:110    0
Name: 86, dtype: object

>  <hydroph_interaction:VAL:124>  (88) 
hydroph_interaction:VAL:124    0
hydroph_interaction:VAL:124    0
Name: 86, dtype: object

>  <hbond:SER:125>  (88) 
hbond:SER:125    0
hbond:SER:125    0
Name: 86, dtype: object

>  <halogenbond:SER:125>  (88) 
halogenbond:SER:125    0
halogenbond:SER:125    0
Name: 86, dtype: object

>  <hydroph_interaction:THR:126>  (88) 
hydroph_interaction:THR:126    0
hydroph_interaction:THR:126    0
Name: 86, dtype: object

>  <hbond:THR:126>  (88) 
hbond:THR:126    0
hbond:THR:126    0
Name: 86, dtype: object

>  <halogenbond:THR:126>  (88) 
halogenbond:THR:126    0
halogenbond:THR:126    0
Name: 86, dtype: object

>  <hbond:GLY:127>  (88) 
hbond:GLY:127    0
hbond:GLY:127    0
Name: 86, dtype: object

>  <halogenbond:GLY:127>  (88) 
halogenbond:GLY:127    0
halogenbond:GLY:127    0
Name: 86, dtype: object

>  <hbond:GLY:128>  (88) 
hbond:GLY:128    1
hbond:GLY:128    1
Name: 86, dtype: object

>  <hbond:ASN:129>  (88) 
hbond:ASN:129    1
hbond:ASN:129    1
Name: 86, dtype: object

>  <hydroph_interaction:ASN:129>  (88) 
hydroph_interaction:ASN:129    0
hydroph_interaction:ASN:129    0
Name: 86, dtype: object

>  <halogenbond:ASN:129>  (88) 
halogenbond:ASN:129    0
halogenbond:ASN:129    0
Name: 86, dtype: object

>  <hydroph_interaction:LEU:131>  (88) 
hydroph_interaction:LEU:131    0
hydroph_interaction:LEU:131    0
Name: 86, dtype: object

>  <hbond:LEU:131>  (88) 
hbond:LEU:131    1
hbond:LEU:131    1
Name: 86, dtype: object

>  <halogenbond:LEU:131>  (88) 
halogenbond:LEU:131    0
halogenbond:LEU:131    0
Name: 86, dtype: object

>  <hbond:VAL:132>  (88) 
hbond:VAL:132    0
hbond:VAL:132    0
Name: 86, dtype: object

$$$$
PV_002926464217
     RDKit          3D

 14 15  0  0  0  0  0  0  0  0999 V2000
   30.6895    8.0967    8.5159 O   0  0  0  0  0  0  0  0  0  0  0  0
   31.1323    9.2148    7.9106 C   0  0  0  0  0  0  0  0  0  0  0  0
   32.1986    9.2237    6.8682 C   0  0  0  0  0  0  0  0  0  0  0  0
   32.5592   10.4524    6.3383 C   0  0  0  0  0  0  0  0  0  0  0  0
   31.9282   11.6064    6.7789 C   0  0  0  0  0  0  0  0  0  0  0  0
   32.4352   12.6961    6.1238 O   0  0  0  0  0  0  0  0  0  0  0  0
   33.6685   12.1757    5.5578 C   0  0  0  0  0  0  0  0  0  0  0  0
   33.5682   10.8159    5.3202 C   0  0  0  0  0  0  0  0  0  0  0  0
   30.9250   11.6222    7.7560 C   0  0  0  0  0  0  0  0  0  0  0  0
   30.2980   12.9148    8.1968 C   0  0  0  0  0  0  0  0  0  0  0  0
   28.9394   13.2723    7.5653 C   0  0  0  0  0  0  0  0  0  0  0  0
   28.3724   12.4471    6.6674 F   0  0  0  0  0  0  0  0  0  0  0  0
   28.3002   14.4122    7.8966 F   0  0  0  0  0  0  0  0  0  0  0  0
   30.5474   10.3953    8.3080 C   0  0  0  0  0  0  0  0  0  0  0  0
  1  2  1  0
  2  3  2  0
  3  4  1  0
  4  5  2  0
  5  6  1  0
  6  7  1  0
  7  8  1  0
  5  9  1  0
  9 10  1  0
 10 11  2  3
 11 12  1  0
 11 13  1  0
  9 14  2  0
 14  2  1  0
  8  4  1  0
A    1
 O1 
A    2
 C1 
A    3
 C2 
A    4
 C3 
A    5
 C4 
A    6
 O2 
A    7
 C5 
A    8
 C6 
A    9
 C7 
A   10
 C8 
A   11
 C9 
A   12
 F1 
A   13
 F2 
A   14
 C10
M  END
>  <ref_pdb>  (89) 
Ax0310a

>  <ref_mols>  (89) 
Ax0554a,Ax0528a

>  <original SMILES>  (89) 
Oc1cc(C=C(F)F)c2c(c1)CCO2

>  <rationale>  (89) 
info halogenbond:P107; hydroph_interaction:P107; 

>  <intxn_cluster_10>  (89) 
9

>  <intxn_cluster_rank_10>  (89) 
14

>  <N_interactions>  (89) 
2

>  <∆∆G>  (89) 
-4.943854

>  <$/mg>  (89) 
0.0

>  <comRMSD>  (89) 
0.70216

>  <N_rotatable_bonds>  (89) 
2

>  <deep_P1_sidechain>  (89) 
False

>  <farthest_distance_to_substrate>  (89) 
2.305458

>  <hbond:SER:7>  (89) 
hbond:SER:7    0
hbond:SER:7    0
Name: 87, dtype: object

>  <hydroph_interaction:ASN:19>  (89) 
hydroph_interaction:ASN:19    0
hydroph_interaction:ASN:19    0
Name: 87, dtype: object

>  <halogenbond:ASN:19>  (89) 
halogenbond:ASN:19    0
halogenbond:ASN:19    0
Name: 87, dtype: object

>  <hbond:ARG:20>  (89) 
hbond:ARG:20    0
hbond:ARG:20    0
Name: 87, dtype: object

>  <hydroph_interaction:ARG:20>  (89) 
hydroph_interaction:ARG:20    0
hydroph_interaction:ARG:20    0
Name: 87, dtype: object

>  <hbond:HIS:21>  (89) 
hbond:HIS:21    0
hbond:HIS:21    0
Name: 87, dtype: object

>  <hydroph_interaction:HIS:21>  (89) 
hydroph_interaction:HIS:21    0
hydroph_interaction:HIS:21    0
Name: 87, dtype: object

>  <saltbridge:HIS:21>  (89) 
saltbridge:HIS:21    0
saltbridge:HIS:21    0
Name: 87, dtype: object

>  <pistack:HIS:21>  (89) 
pistack:HIS:21    0
pistack:HIS:21    0
Name: 87, dtype: object

>  <pication:HIS:21>  (89) 
pication:HIS:21    0
pication:HIS:21    0
Name: 87, dtype: object

>  <hydroph_interaction:LEU:22>  (89) 
hydroph_interaction:LEU:22    0
hydroph_interaction:LEU:22    0
Name: 87, dtype: object

>  <hbond:SER:36>  (89) 
hbond:SER:36    0
hbond:SER:36    0
Name: 87, dtype: object

>  <hbond:ASP:39>  (89) 
hbond:ASP:39    0
hbond:ASP:39    0
Name: 87, dtype: object

>  <saltbridge:ASP:39>  (89) 
saltbridge:ASP:39    0
saltbridge:ASP:39    0
Name: 87, dtype: object

>  <hydroph_interaction:ASP:39>  (89) 
hydroph_interaction:ASP:39    0
hydroph_interaction:ASP:39    0
Name: 87, dtype: object

>  <halogenbond:ASP:39>  (89) 
halogenbond:ASP:39    0
halogenbond:ASP:39    0
Name: 87, dtype: object

>  <hydroph_interaction:ILE:82>  (89) 
hydroph_interaction:ILE:82    0
hydroph_interaction:ILE:82    0
Name: 87, dtype: object

>  <hydroph_interaction:PHE:83>  (89) 
hydroph_interaction:PHE:83    0
hydroph_interaction:PHE:83    0
Name: 87, dtype: object

>  <hbond:PHE:83>  (89) 
hbond:PHE:83    0
hbond:PHE:83    0
Name: 87, dtype: object

>  <halogenbond:PHE:83>  (89) 
halogenbond:PHE:83    0
halogenbond:PHE:83    0
Name: 87, dtype: object

>  <hydroph_interaction:VAL:84>  (89) 
hydroph_interaction:VAL:84    0
hydroph_interaction:VAL:84    0
Name: 87, dtype: object

>  <hydroph_interaction:GLU:85>  (89) 
hydroph_interaction:GLU:85    0
hydroph_interaction:GLU:85    0
Name: 87, dtype: object

>  <hbond:GLU:85>  (89) 
hbond:GLU:85    0
hbond:GLU:85    0
Name: 87, dtype: object

>  <halogenbond:GLU:85>  (89) 
halogenbond:GLU:85    0
halogenbond:GLU:85    0
Name: 87, dtype: object

>  <halogenbond:ALA:86>  (89) 
halogenbond:ALA:86    0
halogenbond:ALA:86    0
Name: 87, dtype: object

>  <hbond:SER:87>  (89) 
hbond:SER:87    0
hbond:SER:87    0
Name: 87, dtype: object

>  <halogenbond:SER:87>  (89) 
halogenbond:SER:87    0
halogenbond:SER:87    0
Name: 87, dtype: object

>  <hbond:GLU:88>  (89) 
hbond:GLU:88    0
hbond:GLU:88    0
Name: 87, dtype: object

>  <halogenbond:GLU:88>  (89) 
halogenbond:GLU:88    0
halogenbond:GLU:88    0
Name: 87, dtype: object

>  <hydroph_interaction:TYR:89>  (89) 
hydroph_interaction:TYR:89    0
hydroph_interaction:TYR:89    0
Name: 87, dtype: object

>  <pistack:TYR:89>  (89) 
pistack:TYR:89    0
pistack:TYR:89    0
Name: 87, dtype: object

>  <hbond:TYR:89>  (89) 
hbond:TYR:89    0
hbond:TYR:89    0
Name: 87, dtype: object

>  <hbond:TYR:90>  (89) 
hbond:TYR:90    0
hbond:TYR:90    0
Name: 87, dtype: object

>  <hydroph_interaction:TYR:90>  (89) 
hydroph_interaction:TYR:90    0
hydroph_interaction:TYR:90    0
Name: 87, dtype: object

>  <pistack:TYR:90>  (89) 
pistack:TYR:90    0
pistack:TYR:90    0
Name: 87, dtype: object

>  <hbond:ARG:93>  (89) 
hbond:ARG:93    0
hbond:ARG:93    0
Name: 87, dtype: object

>  <saltbridge:ARG:93>  (89) 
saltbridge:ARG:93    0
saltbridge:ARG:93    0
Name: 87, dtype: object

>  <hydroph_interaction:ARG:93>  (89) 
hydroph_interaction:ARG:93    0
hydroph_interaction:ARG:93    0
Name: 87, dtype: object

>  <halogenbond:GLN:95>  (89) 
halogenbond:GLN:95    0
halogenbond:GLN:95    0
Name: 87, dtype: object

>  <hbond:GLN:95>  (89) 
hbond:GLN:95    0
hbond:GLN:95    0
Name: 87, dtype: object

>  <hydroph_interaction:GLN:95>  (89) 
hydroph_interaction:GLN:95    0
hydroph_interaction:GLN:95    0
Name: 87, dtype: object

>  <hydroph_interaction:LEU:98>  (89) 
hydroph_interaction:LEU:98    0
hydroph_interaction:LEU:98    0
Name: 87, dtype: object

>  <hydroph_interaction:LEU:100>  (89) 
hydroph_interaction:LEU:100    0
hydroph_interaction:LEU:100    0
Name: 87, dtype: object

>  <hbond:SER:105>  (89) 
hbond:SER:105    0
hbond:SER:105    0
Name: 87, dtype: object

>  <halogenbond:SER:105>  (89) 
halogenbond:SER:105    0
halogenbond:SER:105    0
Name: 87, dtype: object

>  <hydroph_interaction:PRO:107>  (89) 
hydroph_interaction:PRO:107    1
hydroph_interaction:PRO:107    1
Name: 87, dtype: object

>  <hbond:PRO:107>  (89) 
hbond:PRO:107    0
hbond:PRO:107    0
Name: 87, dtype: object

>  <halogenbond:PRO:107>  (89) 
halogenbond:PRO:107    1
halogenbond:PRO:107    1
Name: 87, dtype: object

>  <hbond:ASP:109>  (89) 
hbond:ASP:109    0
hbond:ASP:109    0
Name: 87, dtype: object

>  <hbond:CYS:110>  (89) 
hbond:CYS:110    0
hbond:CYS:110    0
Name: 87, dtype: object

>  <halogenbond:CYS:110>  (89) 
halogenbond:CYS:110    0
halogenbond:CYS:110    0
Name: 87, dtype: object

>  <hydroph_interaction:VAL:124>  (89) 
hydroph_interaction:VAL:124    0
hydroph_interaction:VAL:124    0
Name: 87, dtype: object

>  <hbond:SER:125>  (89) 
hbond:SER:125    0
hbond:SER:125    0
Name: 87, dtype: object

>  <halogenbond:SER:125>  (89) 
halogenbond:SER:125    0
halogenbond:SER:125    0
Name: 87, dtype: object

>  <hydroph_interaction:THR:126>  (89) 
hydroph_interaction:THR:126    0
hydroph_interaction:THR:126    0
Name: 87, dtype: object

>  <hbond:THR:126>  (89) 
hbond:THR:126    0
hbond:THR:126    0
Name: 87, dtype: object

>  <halogenbond:THR:126>  (89) 
halogenbond:THR:126    0
halogenbond:THR:126    0
Name: 87, dtype: object

>  <hbond:GLY:127>  (89) 
hbond:GLY:127    0
hbond:GLY:127    0
Name: 87, dtype: object

>  <halogenbond:GLY:127>  (89) 
halogenbond:GLY:127    0
halogenbond:GLY:127    0
Name: 87, dtype: object

>  <hbond:GLY:128>  (89) 
hbond:GLY:128    0
hbond:GLY:128    0
Name: 87, dtype: object

>  <hbond:ASN:129>  (89) 
hbond:ASN:129    0
hbond:ASN:129    0
Name: 87, dtype: object

>  <hydroph_interaction:ASN:129>  (89) 
hydroph_interaction:ASN:129    0
hydroph_interaction:ASN:129    0
Name: 87, dtype: object

>  <halogenbond:ASN:129>  (89) 
halogenbond:ASN:129    0
halogenbond:ASN:129    0
Name: 87, dtype: object

>  <hydroph_interaction:LEU:131>  (89) 
hydroph_interaction:LEU:131    0
hydroph_interaction:LEU:131    0
Name: 87, dtype: object

>  <hbond:LEU:131>  (89) 
hbond:LEU:131    0
hbond:LEU:131    0
Name: 87, dtype: object

>  <halogenbond:LEU:131>  (89) 
halogenbond:LEU:131    0
halogenbond:LEU:131    0
Name: 87, dtype: object

>  <hbond:VAL:132>  (89) 
hbond:VAL:132    0
hbond:VAL:132    0
Name: 87, dtype: object

$$$$
PV_005555077113
     RDKit          3D

 12 12  0  0  0  0  0  0  0  0999 V2000
   40.6966   14.1201   11.9718 C   0  0  0  0  0  0  0  0  0  0  0  0
   39.6676   13.5268   11.0886 C   0  0  0  0  0  0  0  0  0  0  0  0
   39.6960   14.0129    9.7973 N   0  0  0  0  0  0  0  0  0  0  0  0
   40.7121   14.9627    9.6392 O   0  0  0  0  0  0  0  0  0  0  0  0
   38.7363   12.5826   11.4510 C   0  0  0  0  0  0  0  0  0  0  0  0
   37.9444   12.8097   12.5874 C   0  0  0  0  0  0  0  0  0  0  0  0
   37.0013   11.8719   12.9700 C   0  0  0  0  0  0  0  0  0  0  0  0
   36.8696   10.5761   12.0984 C   0  0  0  0  0  0  0  0  0  0  0  0
   36.0178    9.6133   12.3806 F   0  0  0  0  0  0  0  0  0  0  0  0
   37.6925   10.4640   11.0025 C   0  0  0  0  0  0  0  0  0  0  0  0
   38.6107   11.4331   10.6708 C   0  0  0  0  0  0  0  0  0  0  0  0
   39.3878   11.2715    9.5951 F   0  0  0  0  0  0  0  0  0  0  0  0
  1  2  1  0
  2  3  2  3
  3  4  1  0
  2  5  1  0
  5  6  2  0
  6  7  1  0
  7  8  2  0
  8  9  1  0
  8 10  1  0
 10 11  2  0
 11 12  1  0
 11  5  1  0
A    1
 C1 
A    2
 C2 
A    3
 N1 
A    4
 O1 
A    5
 C3 
A    6
 C4 
A    7
 C5 
A    8
 C6 
A    9
 F1 
A   10
 C7 
A   11
 C8 
A   12
 F2 
M  END
>  <ref_pdb>  (90) 
Ax0310a

>  <ref_mols>  (90) 
Ax0473a,Ax0416a

>  <original SMILES>  (90) 
CC(=NO)c1ccc(F)cc1F

>  <rationale>  (90) 
info halogenbond:N129; hbond:E85; hydroph_interaction:V84+L100+L131; 

>  <intxn_cluster_10>  (90) 
0

>  <intxn_cluster_rank_10>  (90) 
8

>  <N_interactions>  (90) 
5

>  <∆∆G>  (90) 
-4.532379

>  <$/mg>  (90) 
0.0

>  <comRMSD>  (90) 
0.589613

>  <N_rotatable_bonds>  (90) 
3

>  <deep_P1_sidechain>  (90) 
False

>  <farthest_distance_to_substrate>  (90) 
3.60205

>  <hbond:SER:7>  (90) 
hbond:SER:7    0
hbond:SER:7    0
Name: 88, dtype: object

>  <hydroph_interaction:ASN:19>  (90) 
hydroph_interaction:ASN:19    0
hydroph_interaction:ASN:19    0
Name: 88, dtype: object

>  <halogenbond:ASN:19>  (90) 
halogenbond:ASN:19    0
halogenbond:ASN:19    0
Name: 88, dtype: object

>  <hbond:ARG:20>  (90) 
hbond:ARG:20    0
hbond:ARG:20    0
Name: 88, dtype: object

>  <hydroph_interaction:ARG:20>  (90) 
hydroph_interaction:ARG:20    0
hydroph_interaction:ARG:20    0
Name: 88, dtype: object

>  <hbond:HIS:21>  (90) 
hbond:HIS:21    0
hbond:HIS:21    0
Name: 88, dtype: object

>  <hydroph_interaction:HIS:21>  (90) 
hydroph_interaction:HIS:21    0
hydroph_interaction:HIS:21    0
Name: 88, dtype: object

>  <saltbridge:HIS:21>  (90) 
saltbridge:HIS:21    0
saltbridge:HIS:21    0
Name: 88, dtype: object

>  <pistack:HIS:21>  (90) 
pistack:HIS:21    0
pistack:HIS:21    0
Name: 88, dtype: object

>  <pication:HIS:21>  (90) 
pication:HIS:21    0
pication:HIS:21    0
Name: 88, dtype: object

>  <hydroph_interaction:LEU:22>  (90) 
hydroph_interaction:LEU:22    0
hydroph_interaction:LEU:22    0
Name: 88, dtype: object

>  <hbond:SER:36>  (90) 
hbond:SER:36    0
hbond:SER:36    0
Name: 88, dtype: object

>  <hbond:ASP:39>  (90) 
hbond:ASP:39    0
hbond:ASP:39    0
Name: 88, dtype: object

>  <saltbridge:ASP:39>  (90) 
saltbridge:ASP:39    0
saltbridge:ASP:39    0
Name: 88, dtype: object

>  <hydroph_interaction:ASP:39>  (90) 
hydroph_interaction:ASP:39    0
hydroph_interaction:ASP:39    0
Name: 88, dtype: object

>  <halogenbond:ASP:39>  (90) 
halogenbond:ASP:39    0
halogenbond:ASP:39    0
Name: 88, dtype: object

>  <hydroph_interaction:ILE:82>  (90) 
hydroph_interaction:ILE:82    0
hydroph_interaction:ILE:82    0
Name: 88, dtype: object

>  <hydroph_interaction:PHE:83>  (90) 
hydroph_interaction:PHE:83    0
hydroph_interaction:PHE:83    0
Name: 88, dtype: object

>  <hbond:PHE:83>  (90) 
hbond:PHE:83    0
hbond:PHE:83    0
Name: 88, dtype: object

>  <halogenbond:PHE:83>  (90) 
halogenbond:PHE:83    0
halogenbond:PHE:83    0
Name: 88, dtype: object

>  <hydroph_interaction:VAL:84>  (90) 
hydroph_interaction:VAL:84    1
hydroph_interaction:VAL:84    1
Name: 88, dtype: object

>  <hydroph_interaction:GLU:85>  (90) 
hydroph_interaction:GLU:85    0
hydroph_interaction:GLU:85    0
Name: 88, dtype: object

>  <hbond:GLU:85>  (90) 
hbond:GLU:85    1
hbond:GLU:85    1
Name: 88, dtype: object

>  <halogenbond:GLU:85>  (90) 
halogenbond:GLU:85    0
halogenbond:GLU:85    0
Name: 88, dtype: object

>  <halogenbond:ALA:86>  (90) 
halogenbond:ALA:86    0
halogenbond:ALA:86    0
Name: 88, dtype: object

>  <hbond:SER:87>  (90) 
hbond:SER:87    0
hbond:SER:87    0
Name: 88, dtype: object

>  <halogenbond:SER:87>  (90) 
halogenbond:SER:87    0
halogenbond:SER:87    0
Name: 88, dtype: object

>  <hbond:GLU:88>  (90) 
hbond:GLU:88    0
hbond:GLU:88    0
Name: 88, dtype: object

>  <halogenbond:GLU:88>  (90) 
halogenbond:GLU:88    0
halogenbond:GLU:88    0
Name: 88, dtype: object

>  <hydroph_interaction:TYR:89>  (90) 
hydroph_interaction:TYR:89    0
hydroph_interaction:TYR:89    0
Name: 88, dtype: object

>  <pistack:TYR:89>  (90) 
pistack:TYR:89    0
pistack:TYR:89    0
Name: 88, dtype: object

>  <hbond:TYR:89>  (90) 
hbond:TYR:89    0
hbond:TYR:89    0
Name: 88, dtype: object

>  <hbond:TYR:90>  (90) 
hbond:TYR:90    0
hbond:TYR:90    0
Name: 88, dtype: object

>  <hydroph_interaction:TYR:90>  (90) 
hydroph_interaction:TYR:90    0
hydroph_interaction:TYR:90    0
Name: 88, dtype: object

>  <pistack:TYR:90>  (90) 
pistack:TYR:90    0
pistack:TYR:90    0
Name: 88, dtype: object

>  <hbond:ARG:93>  (90) 
hbond:ARG:93    0
hbond:ARG:93    0
Name: 88, dtype: object

>  <saltbridge:ARG:93>  (90) 
saltbridge:ARG:93    0
saltbridge:ARG:93    0
Name: 88, dtype: object

>  <hydroph_interaction:ARG:93>  (90) 
hydroph_interaction:ARG:93    0
hydroph_interaction:ARG:93    0
Name: 88, dtype: object

>  <halogenbond:GLN:95>  (90) 
halogenbond:GLN:95    0
halogenbond:GLN:95    0
Name: 88, dtype: object

>  <hbond:GLN:95>  (90) 
hbond:GLN:95    0
hbond:GLN:95    0
Name: 88, dtype: object

>  <hydroph_interaction:GLN:95>  (90) 
hydroph_interaction:GLN:95    0
hydroph_interaction:GLN:95    0
Name: 88, dtype: object

>  <hydroph_interaction:LEU:98>  (90) 
hydroph_interaction:LEU:98    0
hydroph_interaction:LEU:98    0
Name: 88, dtype: object

>  <hydroph_interaction:LEU:100>  (90) 
hydroph_interaction:LEU:100    1
hydroph_interaction:LEU:100    1
Name: 88, dtype: object

>  <hbond:SER:105>  (90) 
hbond:SER:105    0
hbond:SER:105    0
Name: 88, dtype: object

>  <halogenbond:SER:105>  (90) 
halogenbond:SER:105    0
halogenbond:SER:105    0
Name: 88, dtype: object

>  <hydroph_interaction:PRO:107>  (90) 
hydroph_interaction:PRO:107    0
hydroph_interaction:PRO:107    0
Name: 88, dtype: object

>  <hbond:PRO:107>  (90) 
hbond:PRO:107    0
hbond:PRO:107    0
Name: 88, dtype: object

>  <halogenbond:PRO:107>  (90) 
halogenbond:PRO:107    0
halogenbond:PRO:107    0
Name: 88, dtype: object

>  <hbond:ASP:109>  (90) 
hbond:ASP:109    0
hbond:ASP:109    0
Name: 88, dtype: object

>  <hbond:CYS:110>  (90) 
hbond:CYS:110    0
hbond:CYS:110    0
Name: 88, dtype: object

>  <halogenbond:CYS:110>  (90) 
halogenbond:CYS:110    0
halogenbond:CYS:110    0
Name: 88, dtype: object

>  <hydroph_interaction:VAL:124>  (90) 
hydroph_interaction:VAL:124    0
hydroph_interaction:VAL:124    0
Name: 88, dtype: object

>  <hbond:SER:125>  (90) 
hbond:SER:125    0
hbond:SER:125    0
Name: 88, dtype: object

>  <halogenbond:SER:125>  (90) 
halogenbond:SER:125    0
halogenbond:SER:125    0
Name: 88, dtype: object

>  <hydroph_interaction:THR:126>  (90) 
hydroph_interaction:THR:126    0
hydroph_interaction:THR:126    0
Name: 88, dtype: object

>  <hbond:THR:126>  (90) 
hbond:THR:126    0
hbond:THR:126    0
Name: 88, dtype: object

>  <halogenbond:THR:126>  (90) 
halogenbond:THR:126    0
halogenbond:THR:126    0
Name: 88, dtype: object

>  <hbond:GLY:127>  (90) 
hbond:GLY:127    0
hbond:GLY:127    0
Name: 88, dtype: object

>  <halogenbond:GLY:127>  (90) 
halogenbond:GLY:127    0
halogenbond:GLY:127    0
Name: 88, dtype: object

>  <hbond:GLY:128>  (90) 
hbond:GLY:128    0
hbond:GLY:128    0
Name: 88, dtype: object

>  <hbond:ASN:129>  (90) 
hbond:ASN:129    0
hbond:ASN:129    0
Name: 88, dtype: object

>  <hydroph_interaction:ASN:129>  (90) 
hydroph_interaction:ASN:129    0
hydroph_interaction:ASN:129    0
Name: 88, dtype: object

>  <halogenbond:ASN:129>  (90) 
halogenbond:ASN:129    1
halogenbond:ASN:129    1
Name: 88, dtype: object

>  <hydroph_interaction:LEU:131>  (90) 
hydroph_interaction:LEU:131    1
hydroph_interaction:LEU:131    1
Name: 88, dtype: object

>  <hbond:LEU:131>  (90) 
hbond:LEU:131    0
hbond:LEU:131    0
Name: 88, dtype: object

>  <halogenbond:LEU:131>  (90) 
halogenbond:LEU:131    0
halogenbond:LEU:131    0
Name: 88, dtype: object

>  <hbond:VAL:132>  (90) 
hbond:VAL:132    0
hbond:VAL:132    0
Name: 88, dtype: object

$$$$
Z1098453709
     RDKit          3D

 19 20  0  0  0  0  0  0  0  0999 V2000
   29.7608    8.1832    8.6338 C   0  0  0  0  0  0  0  0  0  0  0  0
   30.3040    9.1618    8.3225 C   0  0  0  0  0  0  0  0  0  0  0  0
   30.8114   10.3263    7.7526 C   0  0  0  0  0  0  0  0  0  0  0  0
   30.0702   11.4832    7.8710 C   0  0  0  0  0  0  0  0  0  0  0  0
   30.4877   12.6508    7.2949 C   0  0  0  0  0  0  0  0  0  0  0  0
   29.6468   13.7911    7.4201 N   0  0  0  0  0  0  0  0  0  0  0  0
   28.5546   13.6682    6.5476 C   0  0  0  0  0  0  0  0  0  0  0  0
   28.5479   14.1912    5.4317 O   0  0  0  0  0  0  0  0  0  0  0  0
   27.3717   12.8013    6.9919 C   0  0  0  0  0  0  0  0  0  0  0  0
   26.6625   13.3850    8.2248 C   0  0  0  0  0  0  0  0  0  0  0  0
   25.2031   12.9203    8.1276 C   0  0  0  0  0  0  0  0  0  0  0  0
   25.0398   12.2737    6.7716 C   0  0  0  0  0  0  0  0  0  0  0  0
   26.2443   12.6898    5.9736 C   0  0  0  0  0  0  0  0  0  0  0  0
   29.5455   14.4243    8.7524 C   0  0  0  0  0  0  0  0  0  0  0  0
   28.8036   15.7404    8.5970 C   0  0  0  0  0  0  0  0  0  0  0  0
   30.8197   14.5133    9.5951 C   0  0  0  0  0  0  0  0  0  0  0  0
   31.6958   12.6464    6.5999 C   0  0  0  0  0  0  0  0  0  0  0  0
   32.4537   11.4790    6.4875 C   0  0  0  0  0  0  0  0  0  0  0  0
   32.0040   10.3078    7.0656 C   0  0  0  0  0  0  0  0  0  0  0  0
  1  2  3  0
  2  3  1  0
  3  4  2  0
  4  5  1  0
  5  6  1  0
  6  7  1  0
  7  8  2  0
  7  9  1  0
  9 10  1  0
 10 11  1  0
 11 12  1  0
 12 13  1  0
  6 14  1  0
 14 15  1  0
 14 16  1  0
  5 17  2  0
 17 18  1  0
 18 19  2  0
 19  3  1  0
 13  9  1  0
A    1
 C1 
A    2
 C2 
A    3
 C3 
A    4
 C4 
A    5
 C5 
A    6
 N1 
A    7
 C6 
A    8
 O1 
A    9
 C7 
A   10
 C8 
A   11
 C9 
A   12
 C10
A   13
 C11
A   14
 C12
A   15
 C13
A   16
 C14
A   17
 C15
A   18
 C16
A   19
 C17
M  END
>  <ref_pdb>  (91) 
Ax0310a

>  <ref_mols>  (91) 
Ax0554a,Ax0922a

>  <original SMILES>  (91) 
C#Cc1cccc(N(C(=O)C2CCCC2)C(C)C)c1

>  <rationale>  (91) 
info hbond:E88; hydroph_interaction:P107+V124+Y89+H21+L22; 

>  <intxn_cluster_10>  (91) 
0

>  <intxn_cluster_rank_10>  (91) 
20

>  <N_interactions>  (91) 
9

>  <∆∆G>  (91) 
-9.322422

>  <$/mg>  (91) 
163.0

>  <comRMSD>  (91) 
0.917123

>  <N_rotatable_bonds>  (91) 
5

>  <deep_P1_sidechain>  (91) 
True

>  <farthest_distance_to_substrate>  (91) 
2.16157

>  <hbond:SER:7>  (91) 
hbond:SER:7    0
hbond:SER:7    0
Name: 89, dtype: object

>  <hydroph_interaction:ASN:19>  (91) 
hydroph_interaction:ASN:19    0
hydroph_interaction:ASN:19    0
Name: 89, dtype: object

>  <halogenbond:ASN:19>  (91) 
halogenbond:ASN:19    0
halogenbond:ASN:19    0
Name: 89, dtype: object

>  <hbond:ARG:20>  (91) 
hbond:ARG:20    0
hbond:ARG:20    0
Name: 89, dtype: object

>  <hydroph_interaction:ARG:20>  (91) 
hydroph_interaction:ARG:20    0
hydroph_interaction:ARG:20    0
Name: 89, dtype: object

>  <hbond:HIS:21>  (91) 
hbond:HIS:21    0
hbond:HIS:21    0
Name: 89, dtype: object

>  <hydroph_interaction:HIS:21>  (91) 
hydroph_interaction:HIS:21    1
hydroph_interaction:HIS:21    1
Name: 89, dtype: object

>  <saltbridge:HIS:21>  (91) 
saltbridge:HIS:21    0
saltbridge:HIS:21    0
Name: 89, dtype: object

>  <pistack:HIS:21>  (91) 
pistack:HIS:21    0
pistack:HIS:21    0
Name: 89, dtype: object

>  <pication:HIS:21>  (91) 
pication:HIS:21    0
pication:HIS:21    0
Name: 89, dtype: object

>  <hydroph_interaction:LEU:22>  (91) 
hydroph_interaction:LEU:22    2
hydroph_interaction:LEU:22    2
Name: 89, dtype: object

>  <hbond:SER:36>  (91) 
hbond:SER:36    0
hbond:SER:36    0
Name: 89, dtype: object

>  <hbond:ASP:39>  (91) 
hbond:ASP:39    0
hbond:ASP:39    0
Name: 89, dtype: object

>  <saltbridge:ASP:39>  (91) 
saltbridge:ASP:39    0
saltbridge:ASP:39    0
Name: 89, dtype: object

>  <hydroph_interaction:ASP:39>  (91) 
hydroph_interaction:ASP:39    0
hydroph_interaction:ASP:39    0
Name: 89, dtype: object

>  <halogenbond:ASP:39>  (91) 
halogenbond:ASP:39    0
halogenbond:ASP:39    0
Name: 89, dtype: object

>  <hydroph_interaction:ILE:82>  (91) 
hydroph_interaction:ILE:82    0
hydroph_interaction:ILE:82    0
Name: 89, dtype: object

>  <hydroph_interaction:PHE:83>  (91) 
hydroph_interaction:PHE:83    0
hydroph_interaction:PHE:83    0
Name: 89, dtype: object

>  <hbond:PHE:83>  (91) 
hbond:PHE:83    0
hbond:PHE:83    0
Name: 89, dtype: object

>  <halogenbond:PHE:83>  (91) 
halogenbond:PHE:83    0
halogenbond:PHE:83    0
Name: 89, dtype: object

>  <hydroph_interaction:VAL:84>  (91) 
hydroph_interaction:VAL:84    0
hydroph_interaction:VAL:84    0
Name: 89, dtype: object

>  <hydroph_interaction:GLU:85>  (91) 
hydroph_interaction:GLU:85    0
hydroph_interaction:GLU:85    0
Name: 89, dtype: object

>  <hbond:GLU:85>  (91) 
hbond:GLU:85    0
hbond:GLU:85    0
Name: 89, dtype: object

>  <halogenbond:GLU:85>  (91) 
halogenbond:GLU:85    0
halogenbond:GLU:85    0
Name: 89, dtype: object

>  <halogenbond:ALA:86>  (91) 
halogenbond:ALA:86    0
halogenbond:ALA:86    0
Name: 89, dtype: object

>  <hbond:SER:87>  (91) 
hbond:SER:87    0
hbond:SER:87    0
Name: 89, dtype: object

>  <halogenbond:SER:87>  (91) 
halogenbond:SER:87    0
halogenbond:SER:87    0
Name: 89, dtype: object

>  <hbond:GLU:88>  (91) 
hbond:GLU:88    1
hbond:GLU:88    1
Name: 89, dtype: object

>  <halogenbond:GLU:88>  (91) 
halogenbond:GLU:88    0
halogenbond:GLU:88    0
Name: 89, dtype: object

>  <hydroph_interaction:TYR:89>  (91) 
hydroph_interaction:TYR:89    3
hydroph_interaction:TYR:89    3
Name: 89, dtype: object

>  <pistack:TYR:89>  (91) 
pistack:TYR:89    0
pistack:TYR:89    0
Name: 89, dtype: object

>  <hbond:TYR:89>  (91) 
hbond:TYR:89    0
hbond:TYR:89    0
Name: 89, dtype: object

>  <hbond:TYR:90>  (91) 
hbond:TYR:90    0
hbond:TYR:90    0
Name: 89, dtype: object

>  <hydroph_interaction:TYR:90>  (91) 
hydroph_interaction:TYR:90    0
hydroph_interaction:TYR:90    0
Name: 89, dtype: object

>  <pistack:TYR:90>  (91) 
pistack:TYR:90    0
pistack:TYR:90    0
Name: 89, dtype: object

>  <hbond:ARG:93>  (91) 
hbond:ARG:93    0
hbond:ARG:93    0
Name: 89, dtype: object

>  <saltbridge:ARG:93>  (91) 
saltbridge:ARG:93    0
saltbridge:ARG:93    0
Name: 89, dtype: object

>  <hydroph_interaction:ARG:93>  (91) 
hydroph_interaction:ARG:93    0
hydroph_interaction:ARG:93    0
Name: 89, dtype: object

>  <halogenbond:GLN:95>  (91) 
halogenbond:GLN:95    0
halogenbond:GLN:95    0
Name: 89, dtype: object

>  <hbond:GLN:95>  (91) 
hbond:GLN:95    0
hbond:GLN:95    0
Name: 89, dtype: object

>  <hydroph_interaction:GLN:95>  (91) 
hydroph_interaction:GLN:95    0
hydroph_interaction:GLN:95    0
Name: 89, dtype: object

>  <hydroph_interaction:LEU:98>  (91) 
hydroph_interaction:LEU:98    0
hydroph_interaction:LEU:98    0
Name: 89, dtype: object

>  <hydroph_interaction:LEU:100>  (91) 
hydroph_interaction:LEU:100    0
hydroph_interaction:LEU:100    0
Name: 89, dtype: object

>  <hbond:SER:105>  (91) 
hbond:SER:105    0
hbond:SER:105    0
Name: 89, dtype: object

>  <halogenbond:SER:105>  (91) 
halogenbond:SER:105    0
halogenbond:SER:105    0
Name: 89, dtype: object

>  <hydroph_interaction:PRO:107>  (91) 
hydroph_interaction:PRO:107    1
hydroph_interaction:PRO:107    1
Name: 89, dtype: object

>  <hbond:PRO:107>  (91) 
hbond:PRO:107    0
hbond:PRO:107    0
Name: 89, dtype: object

>  <halogenbond:PRO:107>  (91) 
halogenbond:PRO:107    0
halogenbond:PRO:107    0
Name: 89, dtype: object

>  <hbond:ASP:109>  (91) 
hbond:ASP:109    0
hbond:ASP:109    0
Name: 89, dtype: object

>  <hbond:CYS:110>  (91) 
hbond:CYS:110    0
hbond:CYS:110    0
Name: 89, dtype: object

>  <halogenbond:CYS:110>  (91) 
halogenbond:CYS:110    0
halogenbond:CYS:110    0
Name: 89, dtype: object

>  <hydroph_interaction:VAL:124>  (91) 
hydroph_interaction:VAL:124    1
hydroph_interaction:VAL:124    1
Name: 89, dtype: object

>  <hbond:SER:125>  (91) 
hbond:SER:125    0
hbond:SER:125    0
Name: 89, dtype: object

>  <halogenbond:SER:125>  (91) 
halogenbond:SER:125    0
halogenbond:SER:125    0
Name: 89, dtype: object

>  <hydroph_interaction:THR:126>  (91) 
hydroph_interaction:THR:126    0
hydroph_interaction:THR:126    0
Name: 89, dtype: object

>  <hbond:THR:126>  (91) 
hbond:THR:126    0
hbond:THR:126    0
Name: 89, dtype: object

>  <halogenbond:THR:126>  (91) 
halogenbond:THR:126    0
halogenbond:THR:126    0
Name: 89, dtype: object

>  <hbond:GLY:127>  (91) 
hbond:GLY:127    0
hbond:GLY:127    0
Name: 89, dtype: object

>  <halogenbond:GLY:127>  (91) 
halogenbond:GLY:127    0
halogenbond:GLY:127    0
Name: 89, dtype: object

>  <hbond:GLY:128>  (91) 
hbond:GLY:128    0
hbond:GLY:128    0
Name: 89, dtype: object

>  <hbond:ASN:129>  (91) 
hbond:ASN:129    0
hbond:ASN:129    0
Name: 89, dtype: object

>  <hydroph_interaction:ASN:129>  (91) 
hydroph_interaction:ASN:129    0
hydroph_interaction:ASN:129    0
Name: 89, dtype: object

>  <halogenbond:ASN:129>  (91) 
halogenbond:ASN:129    0
halogenbond:ASN:129    0
Name: 89, dtype: object

>  <hydroph_interaction:LEU:131>  (91) 
hydroph_interaction:LEU:131    0
hydroph_interaction:LEU:131    0
Name: 89, dtype: object

>  <hbond:LEU:131>  (91) 
hbond:LEU:131    0
hbond:LEU:131    0
Name: 89, dtype: object

>  <halogenbond:LEU:131>  (91) 
halogenbond:LEU:131    0
halogenbond:LEU:131    0
Name: 89, dtype: object

>  <hbond:VAL:132>  (91) 
hbond:VAL:132    0
hbond:VAL:132    0
Name: 89, dtype: object

$$$$
Z1566692106
     RDKit          3D

 14 14  0  0  0  0  0  0  0  0999 V2000
   31.6086    8.5439    7.8752 C   0  0  0  0  0  0  0  0  0  0  0  0
   30.5126    9.4744    8.2029 C   0  0  1  0  0  0  0  0  0  0  0  0
   30.3458    9.3746    9.5972 O   0  0  0  0  0  0  0  0  0  0  0  0
   30.7932   10.9089    7.7869 C   0  0  0  0  0  0  0  0  0  0  0  0
   29.8116   11.8333    8.3222 N   0  0  0  0  0  0  0  0  0  0  0  0
   29.0820   12.7013    7.5506 C   0  0  0  0  0  0  0  0  0  0  0  0
   28.7917   12.5134    6.3873 O   0  0  0  0  0  0  0  0  0  0  0  0
   28.7160   13.9215    8.2520 C   0  0  0  0  0  0  0  0  0  0  0  0
   28.1884   13.9670    9.5614 C   0  0  0  0  0  0  0  0  0  0  0  0
   27.8706   15.1127   10.3231 C   0  0  0  0  0  0  0  0  0  0  0  0
   28.5664   15.3038   11.4847 C   0  0  0  0  0  0  0  0  0  0  0  0
   28.0927   16.4951   12.0089 N   0  0  0  0  0  0  0  0  0  0  0  0
   27.1167   17.0198   11.1990 C   0  0  0  0  0  0  0  0  0  0  0  0
   26.9738   16.1507   10.1201 C   0  0  0  0  0  0  0  0  0  0  0  0
  2  1  1  1
  2  3  1  0
  2  4  1  0
  4  5  1  0
  5  6  1  0
  6  7  2  0
  6  8  1  0
  8  9  2  3
  9 10  1  0
 10 11  2  0
 11 12  1  0
 12 13  1  0
 13 14  2  0
 14 10  1  0
A    1
 C1 
A    2
 C2 
A    3
 O1 
A    4
 C3 
A    5
 N1 
A    6
 C4 
A    7
 O2 
A    8
 C5 
A    9
 C6 
A   10
 C7 
A   11
 C8 
A   12
 N2 
A   13
 C9 
A   14
 C10
M  END
>  <ref_pdb>  (92) 
Ax0310a

>  <ref_mols>  (92) 
Ax0554a,Ax0922a

>  <original SMILES>  (92) 
C[C@@H](O)CNC(=O)C=Cc1cc[nH]c1

>  <rationale>  (92) 
info hbond:S125+S105+S87+R93; hydroph_interaction:Y89+Y90+H21; 

>  <intxn_cluster_10>  (92) 
4

>  <intxn_cluster_rank_10>  (92) 
17

>  <N_interactions>  (92) 
9

>  <∆∆G>  (92) 
-2.19986

>  <$/mg>  (92) 
0.0

>  <comRMSD>  (92) 
0.978379

>  <N_rotatable_bonds>  (92) 
6

>  <deep_P1_sidechain>  (92) 
True

>  <farthest_distance_to_substrate>  (92) 
2.679077

>  <hbond:SER:7>  (92) 
hbond:SER:7    0
hbond:SER:7    0
Name: 90, dtype: object

>  <hydroph_interaction:ASN:19>  (92) 
hydroph_interaction:ASN:19    0
hydroph_interaction:ASN:19    0
Name: 90, dtype: object

>  <halogenbond:ASN:19>  (92) 
halogenbond:ASN:19    0
halogenbond:ASN:19    0
Name: 90, dtype: object

>  <hbond:ARG:20>  (92) 
hbond:ARG:20    0
hbond:ARG:20    0
Name: 90, dtype: object

>  <hydroph_interaction:ARG:20>  (92) 
hydroph_interaction:ARG:20    0
hydroph_interaction:ARG:20    0
Name: 90, dtype: object

>  <hbond:HIS:21>  (92) 
hbond:HIS:21    0
hbond:HIS:21    0
Name: 90, dtype: object

>  <hydroph_interaction:HIS:21>  (92) 
hydroph_interaction:HIS:21    1
hydroph_interaction:HIS:21    1
Name: 90, dtype: object

>  <saltbridge:HIS:21>  (92) 
saltbridge:HIS:21    0
saltbridge:HIS:21    0
Name: 90, dtype: object

>  <pistack:HIS:21>  (92) 
pistack:HIS:21    0
pistack:HIS:21    0
Name: 90, dtype: object

>  <pication:HIS:21>  (92) 
pication:HIS:21    0
pication:HIS:21    0
Name: 90, dtype: object

>  <hydroph_interaction:LEU:22>  (92) 
hydroph_interaction:LEU:22    0
hydroph_interaction:LEU:22    0
Name: 90, dtype: object

>  <hbond:SER:36>  (92) 
hbond:SER:36    0
hbond:SER:36    0
Name: 90, dtype: object

>  <hbond:ASP:39>  (92) 
hbond:ASP:39    0
hbond:ASP:39    0
Name: 90, dtype: object

>  <saltbridge:ASP:39>  (92) 
saltbridge:ASP:39    0
saltbridge:ASP:39    0
Name: 90, dtype: object

>  <hydroph_interaction:ASP:39>  (92) 
hydroph_interaction:ASP:39    0
hydroph_interaction:ASP:39    0
Name: 90, dtype: object

>  <halogenbond:ASP:39>  (92) 
halogenbond:ASP:39    0
halogenbond:ASP:39    0
Name: 90, dtype: object

>  <hydroph_interaction:ILE:82>  (92) 
hydroph_interaction:ILE:82    0
hydroph_interaction:ILE:82    0
Name: 90, dtype: object

>  <hydroph_interaction:PHE:83>  (92) 
hydroph_interaction:PHE:83    0
hydroph_interaction:PHE:83    0
Name: 90, dtype: object

>  <hbond:PHE:83>  (92) 
hbond:PHE:83    0
hbond:PHE:83    0
Name: 90, dtype: object

>  <halogenbond:PHE:83>  (92) 
halogenbond:PHE:83    0
halogenbond:PHE:83    0
Name: 90, dtype: object

>  <hydroph_interaction:VAL:84>  (92) 
hydroph_interaction:VAL:84    0
hydroph_interaction:VAL:84    0
Name: 90, dtype: object

>  <hydroph_interaction:GLU:85>  (92) 
hydroph_interaction:GLU:85    0
hydroph_interaction:GLU:85    0
Name: 90, dtype: object

>  <hbond:GLU:85>  (92) 
hbond:GLU:85    0
hbond:GLU:85    0
Name: 90, dtype: object

>  <halogenbond:GLU:85>  (92) 
halogenbond:GLU:85    0
halogenbond:GLU:85    0
Name: 90, dtype: object

>  <halogenbond:ALA:86>  (92) 
halogenbond:ALA:86    0
halogenbond:ALA:86    0
Name: 90, dtype: object

>  <hbond:SER:87>  (92) 
hbond:SER:87    1
hbond:SER:87    1
Name: 90, dtype: object

>  <halogenbond:SER:87>  (92) 
halogenbond:SER:87    0
halogenbond:SER:87    0
Name: 90, dtype: object

>  <hbond:GLU:88>  (92) 
hbond:GLU:88    0
hbond:GLU:88    0
Name: 90, dtype: object

>  <halogenbond:GLU:88>  (92) 
halogenbond:GLU:88    0
halogenbond:GLU:88    0
Name: 90, dtype: object

>  <hydroph_interaction:TYR:89>  (92) 
hydroph_interaction:TYR:89    1
hydroph_interaction:TYR:89    1
Name: 90, dtype: object

>  <pistack:TYR:89>  (92) 
pistack:TYR:89    0
pistack:TYR:89    0
Name: 90, dtype: object

>  <hbond:TYR:89>  (92) 
hbond:TYR:89    0
hbond:TYR:89    0
Name: 90, dtype: object

>  <hbond:TYR:90>  (92) 
hbond:TYR:90    0
hbond:TYR:90    0
Name: 90, dtype: object

>  <hydroph_interaction:TYR:90>  (92) 
hydroph_interaction:TYR:90    2
hydroph_interaction:TYR:90    2
Name: 90, dtype: object

>  <pistack:TYR:90>  (92) 
pistack:TYR:90    0
pistack:TYR:90    0
Name: 90, dtype: object

>  <hbond:ARG:93>  (92) 
hbond:ARG:93    1
hbond:ARG:93    1
Name: 90, dtype: object

>  <saltbridge:ARG:93>  (92) 
saltbridge:ARG:93    0
saltbridge:ARG:93    0
Name: 90, dtype: object

>  <hydroph_interaction:ARG:93>  (92) 
hydroph_interaction:ARG:93    0
hydroph_interaction:ARG:93    0
Name: 90, dtype: object

>  <halogenbond:GLN:95>  (92) 
halogenbond:GLN:95    0
halogenbond:GLN:95    0
Name: 90, dtype: object

>  <hbond:GLN:95>  (92) 
hbond:GLN:95    0
hbond:GLN:95    0
Name: 90, dtype: object

>  <hydroph_interaction:GLN:95>  (92) 
hydroph_interaction:GLN:95    0
hydroph_interaction:GLN:95    0
Name: 90, dtype: object

>  <hydroph_interaction:LEU:98>  (92) 
hydroph_interaction:LEU:98    0
hydroph_interaction:LEU:98    0
Name: 90, dtype: object

>  <hydroph_interaction:LEU:100>  (92) 
hydroph_interaction:LEU:100    0
hydroph_interaction:LEU:100    0
Name: 90, dtype: object

>  <hbond:SER:105>  (92) 
hbond:SER:105    1
hbond:SER:105    1
Name: 90, dtype: object

>  <halogenbond:SER:105>  (92) 
halogenbond:SER:105    0
halogenbond:SER:105    0
Name: 90, dtype: object

>  <hydroph_interaction:PRO:107>  (92) 
hydroph_interaction:PRO:107    0
hydroph_interaction:PRO:107    0
Name: 90, dtype: object

>  <hbond:PRO:107>  (92) 
hbond:PRO:107    0
hbond:PRO:107    0
Name: 90, dtype: object

>  <halogenbond:PRO:107>  (92) 
halogenbond:PRO:107    0
halogenbond:PRO:107    0
Name: 90, dtype: object

>  <hbond:ASP:109>  (92) 
hbond:ASP:109    0
hbond:ASP:109    0
Name: 90, dtype: object

>  <hbond:CYS:110>  (92) 
hbond:CYS:110    0
hbond:CYS:110    0
Name: 90, dtype: object

>  <halogenbond:CYS:110>  (92) 
halogenbond:CYS:110    0
halogenbond:CYS:110    0
Name: 90, dtype: object

>  <hydroph_interaction:VAL:124>  (92) 
hydroph_interaction:VAL:124    0
hydroph_interaction:VAL:124    0
Name: 90, dtype: object

>  <hbond:SER:125>  (92) 
hbond:SER:125    2
hbond:SER:125    2
Name: 90, dtype: object

>  <halogenbond:SER:125>  (92) 
halogenbond:SER:125    0
halogenbond:SER:125    0
Name: 90, dtype: object

>  <hydroph_interaction:THR:126>  (92) 
hydroph_interaction:THR:126    0
hydroph_interaction:THR:126    0
Name: 90, dtype: object

>  <hbond:THR:126>  (92) 
hbond:THR:126    0
hbond:THR:126    0
Name: 90, dtype: object

>  <halogenbond:THR:126>  (92) 
halogenbond:THR:126    0
halogenbond:THR:126    0
Name: 90, dtype: object

>  <hbond:GLY:127>  (92) 
hbond:GLY:127    0
hbond:GLY:127    0
Name: 90, dtype: object

>  <halogenbond:GLY:127>  (92) 
halogenbond:GLY:127    0
halogenbond:GLY:127    0
Name: 90, dtype: object

>  <hbond:GLY:128>  (92) 
hbond:GLY:128    0
hbond:GLY:128    0
Name: 90, dtype: object

>  <hbond:ASN:129>  (92) 
hbond:ASN:129    0
hbond:ASN:129    0
Name: 90, dtype: object

>  <hydroph_interaction:ASN:129>  (92) 
hydroph_interaction:ASN:129    0
hydroph_interaction:ASN:129    0
Name: 90, dtype: object

>  <halogenbond:ASN:129>  (92) 
halogenbond:ASN:129    0
halogenbond:ASN:129    0
Name: 90, dtype: object

>  <hydroph_interaction:LEU:131>  (92) 
hydroph_interaction:LEU:131    0
hydroph_interaction:LEU:131    0
Name: 90, dtype: object

>  <hbond:LEU:131>  (92) 
hbond:LEU:131    0
hbond:LEU:131    0
Name: 90, dtype: object

>  <halogenbond:LEU:131>  (92) 
halogenbond:LEU:131    0
halogenbond:LEU:131    0
Name: 90, dtype: object

>  <hbond:VAL:132>  (92) 
hbond:VAL:132    0
hbond:VAL:132    0
Name: 90, dtype: object

$$$$
Z2208563175
     RDKit          3D

 20 20  0  0  0  0  0  0  0  0999 V2000
   32.7473   12.2722    6.0436 C   0  0  0  0  0  0  0  0  0  0  0  0
   31.6379   11.7171    6.8472 C   0  0  0  0  0  0  0  0  0  0  0  0
   31.8129   10.5219    7.3668 N   0  0  0  0  0  0  0  0  0  0  0  0
   30.6652   10.2839    8.0175 N   0  0  0  0  0  0  0  0  0  0  0  0
   30.5925    9.0510    8.6415 C   0  0  0  0  0  0  0  0  0  0  0  0
   31.7014    8.3762    7.9729 C   0  0  0  0  0  0  0  0  0  0  0  0
   29.2265    8.4332    8.5668 C   0  0  0  0  0  0  0  0  0  0  0  0
   29.7666   11.2548    7.9500 C   0  0  0  0  0  0  0  0  0  0  0  0
   28.4220   11.2451    8.5537 C   0  0  0  0  0  0  0  0  0  0  0  0
   30.3477   12.2029    7.2063 C   0  0  0  0  0  0  0  0  0  0  0  0
   29.6427   13.4776    6.8835 C   0  0  0  0  0  0  0  0  0  0  0  0
   29.4788   14.1776    8.2071 C   0  0  0  0  0  0  0  0  0  0  0  0
   28.3875   14.4417    8.7047 O   0  0  0  0  0  0  0  0  0  0  0  0
   30.6706   14.4934    8.7986 O   0  0  0  0  0  0  0  0  0  0  0  0
   30.5080   15.0067   10.1222 C   0  0  0  0  0  0  0  0  0  0  0  0
   31.5082   16.1022   10.4940 C   0  0  0  0  0  0  0  0  0  0  0  0
   32.3234   16.6335    9.7588 O   0  0  0  0  0  0  0  0  0  0  0  0
   31.3727   16.4057   11.9535 C   0  0  0  0  0  0  0  0  0  0  0  0
   31.8188   17.7837   12.2857 C   0  0  0  0  0  0  0  0  0  0  0  0
   29.9483   16.1153   12.4324 C   0  0  0  0  0  0  0  0  0  0  0  0
  1  2  1  0
  2  3  2  0
  3  4  1  0
  4  5  1  0
  5  6  1  0
  5  7  1  0
  4  8  1  0
  8  9  1  0
  8 10  2  0
 10 11  1  0
 11 12  1  0
 12 13  2  0
 12 14  1  0
 14 15  1  0
 15 16  1  0
 16 17  2  0
 16 18  1  0
 18 19  1  0
 18 20  1  0
 10  2  1  0
A    1
 C1 
A    2
 C2 
A    3
 N1 
A    4
 N2 
A    5
 C3 
A    6
 C4 
A    7
 C5 
A    8
 C6 
A    9
 C7 
A   10
 C8 
A   11
 C9 
A   12
 C10
A   13
 O1 
A   14
 O2 
A   15
 C11
A   16
 C12
A   17
 O3 
A   18
 C13
A   19
 C14
A   20
 C15
M  END
>  <ref_pdb>  (93) 
Ax0310a

>  <ref_mols>  (93) 
Ax0451a,Ax0416a

>  <original SMILES>  (93) 
Cc1nn(C(C)C)c(C)c1CC(=O)OCC(=O)C(C)C

>  <rationale>  (93) 
info hydroph_interaction:V124+Y90+T126+V84+R93; saltbridge:H21; 

>  <intxn_cluster_10>  (93) 
4

>  <intxn_cluster_rank_10>  (93) 
18

>  <N_interactions>  (93) 
8

>  <∆∆G>  (93) 
-10.16145

>  <$/mg>  (93) 
163.0

>  <comRMSD>  (93) 
0.896317

>  <N_rotatable_bonds>  (93) 
12

>  <deep_P1_sidechain>  (93) 
True

>  <farthest_distance_to_substrate>  (93) 
2.382572

>  <hbond:SER:7>  (93) 
hbond:SER:7    0
hbond:SER:7    0
Name: 91, dtype: object

>  <hydroph_interaction:ASN:19>  (93) 
hydroph_interaction:ASN:19    0
hydroph_interaction:ASN:19    0
Name: 91, dtype: object

>  <halogenbond:ASN:19>  (93) 
halogenbond:ASN:19    0
halogenbond:ASN:19    0
Name: 91, dtype: object

>  <hbond:ARG:20>  (93) 
hbond:ARG:20    0
hbond:ARG:20    0
Name: 91, dtype: object

>  <hydroph_interaction:ARG:20>  (93) 
hydroph_interaction:ARG:20    0
hydroph_interaction:ARG:20    0
Name: 91, dtype: object

>  <hbond:HIS:21>  (93) 
hbond:HIS:21    0
hbond:HIS:21    0
Name: 91, dtype: object

>  <hydroph_interaction:HIS:21>  (93) 
hydroph_interaction:HIS:21    0
hydroph_interaction:HIS:21    0
Name: 91, dtype: object

>  <saltbridge:HIS:21>  (93) 
saltbridge:HIS:21    1
saltbridge:HIS:21    1
Name: 91, dtype: object

>  <pistack:HIS:21>  (93) 
pistack:HIS:21    0
pistack:HIS:21    0
Name: 91, dtype: object

>  <pication:HIS:21>  (93) 
pication:HIS:21    0
pication:HIS:21    0
Name: 91, dtype: object

>  <hydroph_interaction:LEU:22>  (93) 
hydroph_interaction:LEU:22    0
hydroph_interaction:LEU:22    0
Name: 91, dtype: object

>  <hbond:SER:36>  (93) 
hbond:SER:36    0
hbond:SER:36    0
Name: 91, dtype: object

>  <hbond:ASP:39>  (93) 
hbond:ASP:39    0
hbond:ASP:39    0
Name: 91, dtype: object

>  <saltbridge:ASP:39>  (93) 
saltbridge:ASP:39    0
saltbridge:ASP:39    0
Name: 91, dtype: object

>  <hydroph_interaction:ASP:39>  (93) 
hydroph_interaction:ASP:39    0
hydroph_interaction:ASP:39    0
Name: 91, dtype: object

>  <halogenbond:ASP:39>  (93) 
halogenbond:ASP:39    0
halogenbond:ASP:39    0
Name: 91, dtype: object

>  <hydroph_interaction:ILE:82>  (93) 
hydroph_interaction:ILE:82    0
hydroph_interaction:ILE:82    0
Name: 91, dtype: object

>  <hydroph_interaction:PHE:83>  (93) 
hydroph_interaction:PHE:83    0
hydroph_interaction:PHE:83    0
Name: 91, dtype: object

>  <hbond:PHE:83>  (93) 
hbond:PHE:83    0
hbond:PHE:83    0
Name: 91, dtype: object

>  <halogenbond:PHE:83>  (93) 
halogenbond:PHE:83    0
halogenbond:PHE:83    0
Name: 91, dtype: object

>  <hydroph_interaction:VAL:84>  (93) 
hydroph_interaction:VAL:84    2
hydroph_interaction:VAL:84    2
Name: 91, dtype: object

>  <hydroph_interaction:GLU:85>  (93) 
hydroph_interaction:GLU:85    0
hydroph_interaction:GLU:85    0
Name: 91, dtype: object

>  <hbond:GLU:85>  (93) 
hbond:GLU:85    0
hbond:GLU:85    0
Name: 91, dtype: object

>  <halogenbond:GLU:85>  (93) 
halogenbond:GLU:85    0
halogenbond:GLU:85    0
Name: 91, dtype: object

>  <halogenbond:ALA:86>  (93) 
halogenbond:ALA:86    0
halogenbond:ALA:86    0
Name: 91, dtype: object

>  <hbond:SER:87>  (93) 
hbond:SER:87    0
hbond:SER:87    0
Name: 91, dtype: object

>  <halogenbond:SER:87>  (93) 
halogenbond:SER:87    0
halogenbond:SER:87    0
Name: 91, dtype: object

>  <hbond:GLU:88>  (93) 
hbond:GLU:88    0
hbond:GLU:88    0
Name: 91, dtype: object

>  <halogenbond:GLU:88>  (93) 
halogenbond:GLU:88    0
halogenbond:GLU:88    0
Name: 91, dtype: object

>  <hydroph_interaction:TYR:89>  (93) 
hydroph_interaction:TYR:89    0
hydroph_interaction:TYR:89    0
Name: 91, dtype: object

>  <pistack:TYR:89>  (93) 
pistack:TYR:89    0
pistack:TYR:89    0
Name: 91, dtype: object

>  <hbond:TYR:89>  (93) 
hbond:TYR:89    0
hbond:TYR:89    0
Name: 91, dtype: object

>  <hbond:TYR:90>  (93) 
hbond:TYR:90    0
hbond:TYR:90    0
Name: 91, dtype: object

>  <hydroph_interaction:TYR:90>  (93) 
hydroph_interaction:TYR:90    2
hydroph_interaction:TYR:90    2
Name: 91, dtype: object

>  <pistack:TYR:90>  (93) 
pistack:TYR:90    0
pistack:TYR:90    0
Name: 91, dtype: object

>  <hbond:ARG:93>  (93) 
hbond:ARG:93    0
hbond:ARG:93    0
Name: 91, dtype: object

>  <saltbridge:ARG:93>  (93) 
saltbridge:ARG:93    0
saltbridge:ARG:93    0
Name: 91, dtype: object

>  <hydroph_interaction:ARG:93>  (93) 
hydroph_interaction:ARG:93    1
hydroph_interaction:ARG:93    1
Name: 91, dtype: object

>  <halogenbond:GLN:95>  (93) 
halogenbond:GLN:95    0
halogenbond:GLN:95    0
Name: 91, dtype: object

>  <hbond:GLN:95>  (93) 
hbond:GLN:95    0
hbond:GLN:95    0
Name: 91, dtype: object

>  <hydroph_interaction:GLN:95>  (93) 
hydroph_interaction:GLN:95    0
hydroph_interaction:GLN:95    0
Name: 91, dtype: object

>  <hydroph_interaction:LEU:98>  (93) 
hydroph_interaction:LEU:98    0
hydroph_interaction:LEU:98    0
Name: 91, dtype: object

>  <hydroph_interaction:LEU:100>  (93) 
hydroph_interaction:LEU:100    0
hydroph_interaction:LEU:100    0
Name: 91, dtype: object

>  <hbond:SER:105>  (93) 
hbond:SER:105    0
hbond:SER:105    0
Name: 91, dtype: object

>  <halogenbond:SER:105>  (93) 
halogenbond:SER:105    0
halogenbond:SER:105    0
Name: 91, dtype: object

>  <hydroph_interaction:PRO:107>  (93) 
hydroph_interaction:PRO:107    0
hydroph_interaction:PRO:107    0
Name: 91, dtype: object

>  <hbond:PRO:107>  (93) 
hbond:PRO:107    0
hbond:PRO:107    0
Name: 91, dtype: object

>  <halogenbond:PRO:107>  (93) 
halogenbond:PRO:107    0
halogenbond:PRO:107    0
Name: 91, dtype: object

>  <hbond:ASP:109>  (93) 
hbond:ASP:109    0
hbond:ASP:109    0
Name: 91, dtype: object

>  <hbond:CYS:110>  (93) 
hbond:CYS:110    0
hbond:CYS:110    0
Name: 91, dtype: object

>  <halogenbond:CYS:110>  (93) 
halogenbond:CYS:110    0
halogenbond:CYS:110    0
Name: 91, dtype: object

>  <hydroph_interaction:VAL:124>  (93) 
hydroph_interaction:VAL:124    1
hydroph_interaction:VAL:124    1
Name: 91, dtype: object

>  <hbond:SER:125>  (93) 
hbond:SER:125    0
hbond:SER:125    0
Name: 91, dtype: object

>  <halogenbond:SER:125>  (93) 
halogenbond:SER:125    0
halogenbond:SER:125    0
Name: 91, dtype: object

>  <hydroph_interaction:THR:126>  (93) 
hydroph_interaction:THR:126    1
hydroph_interaction:THR:126    1
Name: 91, dtype: object

>  <hbond:THR:126>  (93) 
hbond:THR:126    0
hbond:THR:126    0
Name: 91, dtype: object

>  <halogenbond:THR:126>  (93) 
halogenbond:THR:126    0
halogenbond:THR:126    0
Name: 91, dtype: object

>  <hbond:GLY:127>  (93) 
hbond:GLY:127    0
hbond:GLY:127    0
Name: 91, dtype: object

>  <halogenbond:GLY:127>  (93) 
halogenbond:GLY:127    0
halogenbond:GLY:127    0
Name: 91, dtype: object

>  <hbond:GLY:128>  (93) 
hbond:GLY:128    0
hbond:GLY:128    0
Name: 91, dtype: object

>  <hbond:ASN:129>  (93) 
hbond:ASN:129    0
hbond:ASN:129    0
Name: 91, dtype: object

>  <hydroph_interaction:ASN:129>  (93) 
hydroph_interaction:ASN:129    0
hydroph_interaction:ASN:129    0
Name: 91, dtype: object

>  <halogenbond:ASN:129>  (93) 
halogenbond:ASN:129    0
halogenbond:ASN:129    0
Name: 91, dtype: object

>  <hydroph_interaction:LEU:131>  (93) 
hydroph_interaction:LEU:131    0
hydroph_interaction:LEU:131    0
Name: 91, dtype: object

>  <hbond:LEU:131>  (93) 
hbond:LEU:131    0
hbond:LEU:131    0
Name: 91, dtype: object

>  <halogenbond:LEU:131>  (93) 
halogenbond:LEU:131    0
halogenbond:LEU:131    0
Name: 91, dtype: object

>  <hbond:VAL:132>  (93) 
hbond:VAL:132    0
hbond:VAL:132    0
Name: 91, dtype: object

$$$$
PV_006477742642
     RDKit          3D

 17 18  0  0  0  0  0  0  0  0999 V2000
   31.0507    8.3243    8.6202 C   0  0  0  0  0  0  0  0  0  0  0  0
   31.1242    9.6080    8.0106 N   0  0  0  0  0  0  0  0  0  0  0  0
   31.8775   10.0971    6.9976 C   0  0  0  0  0  0  0  0  0  0  0  0
   31.6198   11.3758    6.7524 N   0  0  0  0  0  0  0  0  0  0  0  0
   30.6226   11.7503    7.6721 C   0  0  0  0  0  0  0  0  0  0  0  0
   30.0641   13.0600    7.7413 C   0  0  0  0  0  0  0  0  0  0  0  0
   29.0426   13.2990    8.8182 N   0  0  0  0  0  0  0  0  0  0  0  0
   28.0346   14.3169    8.7982 C   0  0  0  0  0  0  0  0  0  0  0  0
   27.3736   14.5439    7.3115 S   0  0  0  0  0  0  0  0  0  0  0  0
   27.7673   15.0050   10.0573 N   0  0  0  0  0  0  0  0  0  0  0  0
   26.9369   16.0208   10.6453 C   0  0  0  0  0  0  0  0  0  0  0  0
   26.7791   17.5489   10.4779 C   0  0  0  0  0  0  0  0  0  0  0  0
   25.9239   18.3830   11.1843 C   0  0  0  0  0  0  0  0  0  0  0  0
   25.1084   17.8283   12.1321 C   0  0  0  0  0  0  0  0  0  0  0  0
   25.1764   16.4484   12.3308 C   0  0  0  0  0  0  0  0  0  0  0  0
   26.0705   15.5827   11.6060 C   0  0  0  0  0  0  0  0  0  0  0  0
   30.3565   10.6307    8.4216 C   0  0  0  0  0  0  0  0  0  0  0  0
  1  2  1  0
  2  3  1  0
  3  4  2  0
  4  5  1  0
  5  6  1  0
  6  7  1  0
  7  8  1  0
  8  9  2  0
  8 10  1  0
 10 11  1  0
 11 12  2  0
 12 13  1  0
 13 14  2  0
 14 15  1  0
 15 16  2  0
  5 17  2  0
 17  2  1  0
 16 11  1  0
A    1
 C1 
A    2
 N1 
A    3
 C2 
A    4
 N2 
A    5
 C3 
A    6
 C4 
A    7
 N3 
A    8
 C5 
A    9
 S1 
A   10
 N4 
A   11
 C6 
A   12
 C7 
A   13
 C8 
A   14
 C9 
A   15
 C10
A   16
 C11
A   17
 C12
M  END
>  <ref_pdb>  (94) 
Ax0310a

>  <ref_mols>  (94) 
Ax0451a,Ax0416a

>  <original SMILES>  (94) 
Cn1cnc(CNC(=S)Nc2ccccc2)c1

>  <rationale>  (94) 
info hbond:S125+G127+S87; hydroph_interaction:Y89+Y90+H21+D39+R20; 

>  <intxn_cluster_10>  (94) 
0

>  <intxn_cluster_rank_10>  (94) 
16

>  <N_interactions>  (94) 
9

>  <∆∆G>  (94) 
-1.404292

>  <$/mg>  (94) 
0.0

>  <comRMSD>  (94) 
0.658781

>  <N_rotatable_bonds>  (94) 
4

>  <deep_P1_sidechain>  (94) 
False

>  <farthest_distance_to_substrate>  (94) 
3.421124

>  <hbond:SER:7>  (94) 
hbond:SER:7    0
hbond:SER:7    0
Name: 92, dtype: object

>  <hydroph_interaction:ASN:19>  (94) 
hydroph_interaction:ASN:19    0
hydroph_interaction:ASN:19    0
Name: 92, dtype: object

>  <halogenbond:ASN:19>  (94) 
halogenbond:ASN:19    0
halogenbond:ASN:19    0
Name: 92, dtype: object

>  <hbond:ARG:20>  (94) 
hbond:ARG:20    0
hbond:ARG:20    0
Name: 92, dtype: object

>  <hydroph_interaction:ARG:20>  (94) 
hydroph_interaction:ARG:20    1
hydroph_interaction:ARG:20    1
Name: 92, dtype: object

>  <hbond:HIS:21>  (94) 
hbond:HIS:21    0
hbond:HIS:21    0
Name: 92, dtype: object

>  <hydroph_interaction:HIS:21>  (94) 
hydroph_interaction:HIS:21    1
hydroph_interaction:HIS:21    1
Name: 92, dtype: object

>  <saltbridge:HIS:21>  (94) 
saltbridge:HIS:21    0
saltbridge:HIS:21    0
Name: 92, dtype: object

>  <pistack:HIS:21>  (94) 
pistack:HIS:21    0
pistack:HIS:21    0
Name: 92, dtype: object

>  <pication:HIS:21>  (94) 
pication:HIS:21    0
pication:HIS:21    0
Name: 92, dtype: object

>  <hydroph_interaction:LEU:22>  (94) 
hydroph_interaction:LEU:22    0
hydroph_interaction:LEU:22    0
Name: 92, dtype: object

>  <hbond:SER:36>  (94) 
hbond:SER:36    0
hbond:SER:36    0
Name: 92, dtype: object

>  <hbond:ASP:39>  (94) 
hbond:ASP:39    0
hbond:ASP:39    0
Name: 92, dtype: object

>  <saltbridge:ASP:39>  (94) 
saltbridge:ASP:39    0
saltbridge:ASP:39    0
Name: 92, dtype: object

>  <hydroph_interaction:ASP:39>  (94) 
hydroph_interaction:ASP:39    1
hydroph_interaction:ASP:39    1
Name: 92, dtype: object

>  <halogenbond:ASP:39>  (94) 
halogenbond:ASP:39    0
halogenbond:ASP:39    0
Name: 92, dtype: object

>  <hydroph_interaction:ILE:82>  (94) 
hydroph_interaction:ILE:82    0
hydroph_interaction:ILE:82    0
Name: 92, dtype: object

>  <hydroph_interaction:PHE:83>  (94) 
hydroph_interaction:PHE:83    0
hydroph_interaction:PHE:83    0
Name: 92, dtype: object

>  <hbond:PHE:83>  (94) 
hbond:PHE:83    0
hbond:PHE:83    0
Name: 92, dtype: object

>  <halogenbond:PHE:83>  (94) 
halogenbond:PHE:83    0
halogenbond:PHE:83    0
Name: 92, dtype: object

>  <hydroph_interaction:VAL:84>  (94) 
hydroph_interaction:VAL:84    0
hydroph_interaction:VAL:84    0
Name: 92, dtype: object

>  <hydroph_interaction:GLU:85>  (94) 
hydroph_interaction:GLU:85    0
hydroph_interaction:GLU:85    0
Name: 92, dtype: object

>  <hbond:GLU:85>  (94) 
hbond:GLU:85    0
hbond:GLU:85    0
Name: 92, dtype: object

>  <halogenbond:GLU:85>  (94) 
halogenbond:GLU:85    0
halogenbond:GLU:85    0
Name: 92, dtype: object

>  <halogenbond:ALA:86>  (94) 
halogenbond:ALA:86    0
halogenbond:ALA:86    0
Name: 92, dtype: object

>  <hbond:SER:87>  (94) 
hbond:SER:87    1
hbond:SER:87    1
Name: 92, dtype: object

>  <halogenbond:SER:87>  (94) 
halogenbond:SER:87    0
halogenbond:SER:87    0
Name: 92, dtype: object

>  <hbond:GLU:88>  (94) 
hbond:GLU:88    0
hbond:GLU:88    0
Name: 92, dtype: object

>  <halogenbond:GLU:88>  (94) 
halogenbond:GLU:88    0
halogenbond:GLU:88    0
Name: 92, dtype: object

>  <hydroph_interaction:TYR:89>  (94) 
hydroph_interaction:TYR:89    1
hydroph_interaction:TYR:89    1
Name: 92, dtype: object

>  <pistack:TYR:89>  (94) 
pistack:TYR:89    0
pistack:TYR:89    0
Name: 92, dtype: object

>  <hbond:TYR:89>  (94) 
hbond:TYR:89    0
hbond:TYR:89    0
Name: 92, dtype: object

>  <hbond:TYR:90>  (94) 
hbond:TYR:90    0
hbond:TYR:90    0
Name: 92, dtype: object

>  <hydroph_interaction:TYR:90>  (94) 
hydroph_interaction:TYR:90    1
hydroph_interaction:TYR:90    1
Name: 92, dtype: object

>  <pistack:TYR:90>  (94) 
pistack:TYR:90    0
pistack:TYR:90    0
Name: 92, dtype: object

>  <hbond:ARG:93>  (94) 
hbond:ARG:93    0
hbond:ARG:93    0
Name: 92, dtype: object

>  <saltbridge:ARG:93>  (94) 
saltbridge:ARG:93    0
saltbridge:ARG:93    0
Name: 92, dtype: object

>  <hydroph_interaction:ARG:93>  (94) 
hydroph_interaction:ARG:93    0
hydroph_interaction:ARG:93    0
Name: 92, dtype: object

>  <halogenbond:GLN:95>  (94) 
halogenbond:GLN:95    0
halogenbond:GLN:95    0
Name: 92, dtype: object

>  <hbond:GLN:95>  (94) 
hbond:GLN:95    0
hbond:GLN:95    0
Name: 92, dtype: object

>  <hydroph_interaction:GLN:95>  (94) 
hydroph_interaction:GLN:95    0
hydroph_interaction:GLN:95    0
Name: 92, dtype: object

>  <hydroph_interaction:LEU:98>  (94) 
hydroph_interaction:LEU:98    0
hydroph_interaction:LEU:98    0
Name: 92, dtype: object

>  <hydroph_interaction:LEU:100>  (94) 
hydroph_interaction:LEU:100    0
hydroph_interaction:LEU:100    0
Name: 92, dtype: object

>  <hbond:SER:105>  (94) 
hbond:SER:105    0
hbond:SER:105    0
Name: 92, dtype: object

>  <halogenbond:SER:105>  (94) 
halogenbond:SER:105    0
halogenbond:SER:105    0
Name: 92, dtype: object

>  <hydroph_interaction:PRO:107>  (94) 
hydroph_interaction:PRO:107    0
hydroph_interaction:PRO:107    0
Name: 92, dtype: object

>  <hbond:PRO:107>  (94) 
hbond:PRO:107    0
hbond:PRO:107    0
Name: 92, dtype: object

>  <halogenbond:PRO:107>  (94) 
halogenbond:PRO:107    0
halogenbond:PRO:107    0
Name: 92, dtype: object

>  <hbond:ASP:109>  (94) 
hbond:ASP:109    0
hbond:ASP:109    0
Name: 92, dtype: object

>  <hbond:CYS:110>  (94) 
hbond:CYS:110    0
hbond:CYS:110    0
Name: 92, dtype: object

>  <halogenbond:CYS:110>  (94) 
halogenbond:CYS:110    0
halogenbond:CYS:110    0
Name: 92, dtype: object

>  <hydroph_interaction:VAL:124>  (94) 
hydroph_interaction:VAL:124    0
hydroph_interaction:VAL:124    0
Name: 92, dtype: object

>  <hbond:SER:125>  (94) 
hbond:SER:125    2
hbond:SER:125    2
Name: 92, dtype: object

>  <halogenbond:SER:125>  (94) 
halogenbond:SER:125    0
halogenbond:SER:125    0
Name: 92, dtype: object

>  <hydroph_interaction:THR:126>  (94) 
hydroph_interaction:THR:126    0
hydroph_interaction:THR:126    0
Name: 92, dtype: object

>  <hbond:THR:126>  (94) 
hbond:THR:126    0
hbond:THR:126    0
Name: 92, dtype: object

>  <halogenbond:THR:126>  (94) 
halogenbond:THR:126    0
halogenbond:THR:126    0
Name: 92, dtype: object

>  <hbond:GLY:127>  (94) 
hbond:GLY:127    1
hbond:GLY:127    1
Name: 92, dtype: object

>  <halogenbond:GLY:127>  (94) 
halogenbond:GLY:127    0
halogenbond:GLY:127    0
Name: 92, dtype: object

>  <hbond:GLY:128>  (94) 
hbond:GLY:128    0
hbond:GLY:128    0
Name: 92, dtype: object

>  <hbond:ASN:129>  (94) 
hbond:ASN:129    0
hbond:ASN:129    0
Name: 92, dtype: object

>  <hydroph_interaction:ASN:129>  (94) 
hydroph_interaction:ASN:129    0
hydroph_interaction:ASN:129    0
Name: 92, dtype: object

>  <halogenbond:ASN:129>  (94) 
halogenbond:ASN:129    0
halogenbond:ASN:129    0
Name: 92, dtype: object

>  <hydroph_interaction:LEU:131>  (94) 
hydroph_interaction:LEU:131    0
hydroph_interaction:LEU:131    0
Name: 92, dtype: object

>  <hbond:LEU:131>  (94) 
hbond:LEU:131    0
hbond:LEU:131    0
Name: 92, dtype: object

>  <halogenbond:LEU:131>  (94) 
halogenbond:LEU:131    0
halogenbond:LEU:131    0
Name: 92, dtype: object

>  <hbond:VAL:132>  (94) 
hbond:VAL:132    0
hbond:VAL:132    0
Name: 92, dtype: object

$$$$
PV_006704349135
     RDKit          3D

 12 12  0  0  0  0  0  0  0  0999 V2000
   40.7740   13.5050   11.8040 C   0  0  0  0  0  0  0  0  0  0  0  0
   39.8473   13.1420   10.9025 C   0  0  0  0  0  0  0  0  0  0  0  0
   39.7170   13.6896    9.5214 C   0  0  0  0  0  0  0  0  0  0  0  0
   38.3871   14.1813    9.4056 O   0  0  0  0  0  0  0  0  0  0  0  0
   38.8406   12.1320   11.2640 C   0  0  0  0  0  0  0  0  0  0  0  0
   38.1233   12.1516   12.4275 C   0  0  0  0  0  0  0  0  0  0  0  0
   38.3786   13.3678   13.5446 Cl  0  0  0  0  0  0  0  0  0  0  0  0
   37.1862   11.2129   12.7543 C   0  0  0  0  0  0  0  0  0  0  0  0
   36.5056   11.2815   13.9304 N   0  0  0  0  0  0  0  0  0  0  0  0
   36.9138   10.1814   11.9200 C   0  0  0  0  0  0  0  0  0  0  0  0
   37.6200   10.1295   10.7507 C   0  0  0  0  0  0  0  0  0  0  0  0
   38.5757   11.0837   10.4075 C   0  0  0  0  0  0  0  0  0  0  0  0
  1  2  2  0
  2  3  1  0
  3  4  1  0
  2  5  1  0
  5  6  2  0
  6  7  1  0
  6  8  1  0
  8  9  1  0
  8 10  2  0
 10 11  1  0
 11 12  2  0
 12  5  1  0
A    1
 C1 
A    2
 C2 
A    3
 C3 
A    4
 O1 
A    5
 C4 
A    6
 C5 
A    7
CL1 
A    8
 C6 
A    9
 N1 
A   10
 C7 
A   11
 C8 
A   12
 C9 
M  END
>  <ref_pdb>  (95) 
Ax0310a

>  <ref_mols>  (95) 
Ax0473a,Ax0812a

>  <original SMILES>  (95) 
C=C(CO)c1cccc(N)c1Cl

>  <rationale>  (95) 
info halogenbond:F83; hbond:T126+E85; hydroph_interaction:L131; 

>  <intxn_cluster_10>  (95) 
8

>  <intxn_cluster_rank_10>  (95) 
10

>  <N_interactions>  (95) 
5

>  <∆∆G>  (95) 
-4.710505

>  <$/mg>  (95) 
0.0

>  <comRMSD>  (95) 
0.67564

>  <N_rotatable_bonds>  (95) 
4

>  <deep_P1_sidechain>  (95) 
False

>  <farthest_distance_to_substrate>  (95) 
4.099189

>  <hbond:SER:7>  (95) 
hbond:SER:7    0
hbond:SER:7    0
Name: 93, dtype: object

>  <hydroph_interaction:ASN:19>  (95) 
hydroph_interaction:ASN:19    0
hydroph_interaction:ASN:19    0
Name: 93, dtype: object

>  <halogenbond:ASN:19>  (95) 
halogenbond:ASN:19    0
halogenbond:ASN:19    0
Name: 93, dtype: object

>  <hbond:ARG:20>  (95) 
hbond:ARG:20    0
hbond:ARG:20    0
Name: 93, dtype: object

>  <hydroph_interaction:ARG:20>  (95) 
hydroph_interaction:ARG:20    0
hydroph_interaction:ARG:20    0
Name: 93, dtype: object

>  <hbond:HIS:21>  (95) 
hbond:HIS:21    0
hbond:HIS:21    0
Name: 93, dtype: object

>  <hydroph_interaction:HIS:21>  (95) 
hydroph_interaction:HIS:21    0
hydroph_interaction:HIS:21    0
Name: 93, dtype: object

>  <saltbridge:HIS:21>  (95) 
saltbridge:HIS:21    0
saltbridge:HIS:21    0
Name: 93, dtype: object

>  <pistack:HIS:21>  (95) 
pistack:HIS:21    0
pistack:HIS:21    0
Name: 93, dtype: object

>  <pication:HIS:21>  (95) 
pication:HIS:21    0
pication:HIS:21    0
Name: 93, dtype: object

>  <hydroph_interaction:LEU:22>  (95) 
hydroph_interaction:LEU:22    0
hydroph_interaction:LEU:22    0
Name: 93, dtype: object

>  <hbond:SER:36>  (95) 
hbond:SER:36    0
hbond:SER:36    0
Name: 93, dtype: object

>  <hbond:ASP:39>  (95) 
hbond:ASP:39    0
hbond:ASP:39    0
Name: 93, dtype: object

>  <saltbridge:ASP:39>  (95) 
saltbridge:ASP:39    0
saltbridge:ASP:39    0
Name: 93, dtype: object

>  <hydroph_interaction:ASP:39>  (95) 
hydroph_interaction:ASP:39    0
hydroph_interaction:ASP:39    0
Name: 93, dtype: object

>  <halogenbond:ASP:39>  (95) 
halogenbond:ASP:39    0
halogenbond:ASP:39    0
Name: 93, dtype: object

>  <hydroph_interaction:ILE:82>  (95) 
hydroph_interaction:ILE:82    0
hydroph_interaction:ILE:82    0
Name: 93, dtype: object

>  <hydroph_interaction:PHE:83>  (95) 
hydroph_interaction:PHE:83    0
hydroph_interaction:PHE:83    0
Name: 93, dtype: object

>  <hbond:PHE:83>  (95) 
hbond:PHE:83    0
hbond:PHE:83    0
Name: 93, dtype: object

>  <halogenbond:PHE:83>  (95) 
halogenbond:PHE:83    1
halogenbond:PHE:83    1
Name: 93, dtype: object

>  <hydroph_interaction:VAL:84>  (95) 
hydroph_interaction:VAL:84    0
hydroph_interaction:VAL:84    0
Name: 93, dtype: object

>  <hydroph_interaction:GLU:85>  (95) 
hydroph_interaction:GLU:85    0
hydroph_interaction:GLU:85    0
Name: 93, dtype: object

>  <hbond:GLU:85>  (95) 
hbond:GLU:85    1
hbond:GLU:85    1
Name: 93, dtype: object

>  <halogenbond:GLU:85>  (95) 
halogenbond:GLU:85    0
halogenbond:GLU:85    0
Name: 93, dtype: object

>  <halogenbond:ALA:86>  (95) 
halogenbond:ALA:86    0
halogenbond:ALA:86    0
Name: 93, dtype: object

>  <hbond:SER:87>  (95) 
hbond:SER:87    0
hbond:SER:87    0
Name: 93, dtype: object

>  <halogenbond:SER:87>  (95) 
halogenbond:SER:87    0
halogenbond:SER:87    0
Name: 93, dtype: object

>  <hbond:GLU:88>  (95) 
hbond:GLU:88    0
hbond:GLU:88    0
Name: 93, dtype: object

>  <halogenbond:GLU:88>  (95) 
halogenbond:GLU:88    0
halogenbond:GLU:88    0
Name: 93, dtype: object

>  <hydroph_interaction:TYR:89>  (95) 
hydroph_interaction:TYR:89    0
hydroph_interaction:TYR:89    0
Name: 93, dtype: object

>  <pistack:TYR:89>  (95) 
pistack:TYR:89    0
pistack:TYR:89    0
Name: 93, dtype: object

>  <hbond:TYR:89>  (95) 
hbond:TYR:89    0
hbond:TYR:89    0
Name: 93, dtype: object

>  <hbond:TYR:90>  (95) 
hbond:TYR:90    0
hbond:TYR:90    0
Name: 93, dtype: object

>  <hydroph_interaction:TYR:90>  (95) 
hydroph_interaction:TYR:90    0
hydroph_interaction:TYR:90    0
Name: 93, dtype: object

>  <pistack:TYR:90>  (95) 
pistack:TYR:90    0
pistack:TYR:90    0
Name: 93, dtype: object

>  <hbond:ARG:93>  (95) 
hbond:ARG:93    0
hbond:ARG:93    0
Name: 93, dtype: object

>  <saltbridge:ARG:93>  (95) 
saltbridge:ARG:93    0
saltbridge:ARG:93    0
Name: 93, dtype: object

>  <hydroph_interaction:ARG:93>  (95) 
hydroph_interaction:ARG:93    0
hydroph_interaction:ARG:93    0
Name: 93, dtype: object

>  <halogenbond:GLN:95>  (95) 
halogenbond:GLN:95    0
halogenbond:GLN:95    0
Name: 93, dtype: object

>  <hbond:GLN:95>  (95) 
hbond:GLN:95    0
hbond:GLN:95    0
Name: 93, dtype: object

>  <hydroph_interaction:GLN:95>  (95) 
hydroph_interaction:GLN:95    0
hydroph_interaction:GLN:95    0
Name: 93, dtype: object

>  <hydroph_interaction:LEU:98>  (95) 
hydroph_interaction:LEU:98    0
hydroph_interaction:LEU:98    0
Name: 93, dtype: object

>  <hydroph_interaction:LEU:100>  (95) 
hydroph_interaction:LEU:100    0
hydroph_interaction:LEU:100    0
Name: 93, dtype: object

>  <hbond:SER:105>  (95) 
hbond:SER:105    0
hbond:SER:105    0
Name: 93, dtype: object

>  <halogenbond:SER:105>  (95) 
halogenbond:SER:105    0
halogenbond:SER:105    0
Name: 93, dtype: object

>  <hydroph_interaction:PRO:107>  (95) 
hydroph_interaction:PRO:107    0
hydroph_interaction:PRO:107    0
Name: 93, dtype: object

>  <hbond:PRO:107>  (95) 
hbond:PRO:107    0
hbond:PRO:107    0
Name: 93, dtype: object

>  <halogenbond:PRO:107>  (95) 
halogenbond:PRO:107    0
halogenbond:PRO:107    0
Name: 93, dtype: object

>  <hbond:ASP:109>  (95) 
hbond:ASP:109    0
hbond:ASP:109    0
Name: 93, dtype: object

>  <hbond:CYS:110>  (95) 
hbond:CYS:110    0
hbond:CYS:110    0
Name: 93, dtype: object

>  <halogenbond:CYS:110>  (95) 
halogenbond:CYS:110    0
halogenbond:CYS:110    0
Name: 93, dtype: object

>  <hydroph_interaction:VAL:124>  (95) 
hydroph_interaction:VAL:124    0
hydroph_interaction:VAL:124    0
Name: 93, dtype: object

>  <hbond:SER:125>  (95) 
hbond:SER:125    0
hbond:SER:125    0
Name: 93, dtype: object

>  <halogenbond:SER:125>  (95) 
halogenbond:SER:125    0
halogenbond:SER:125    0
Name: 93, dtype: object

>  <hydroph_interaction:THR:126>  (95) 
hydroph_interaction:THR:126    0
hydroph_interaction:THR:126    0
Name: 93, dtype: object

>  <hbond:THR:126>  (95) 
hbond:THR:126    2
hbond:THR:126    2
Name: 93, dtype: object

>  <halogenbond:THR:126>  (95) 
halogenbond:THR:126    0
halogenbond:THR:126    0
Name: 93, dtype: object

>  <hbond:GLY:127>  (95) 
hbond:GLY:127    0
hbond:GLY:127    0
Name: 93, dtype: object

>  <halogenbond:GLY:127>  (95) 
halogenbond:GLY:127    0
halogenbond:GLY:127    0
Name: 93, dtype: object

>  <hbond:GLY:128>  (95) 
hbond:GLY:128    0
hbond:GLY:128    0
Name: 93, dtype: object

>  <hbond:ASN:129>  (95) 
hbond:ASN:129    0
hbond:ASN:129    0
Name: 93, dtype: object

>  <hydroph_interaction:ASN:129>  (95) 
hydroph_interaction:ASN:129    0
hydroph_interaction:ASN:129    0
Name: 93, dtype: object

>  <halogenbond:ASN:129>  (95) 
halogenbond:ASN:129    0
halogenbond:ASN:129    0
Name: 93, dtype: object

>  <hydroph_interaction:LEU:131>  (95) 
hydroph_interaction:LEU:131    1
hydroph_interaction:LEU:131    1
Name: 93, dtype: object

>  <hbond:LEU:131>  (95) 
hbond:LEU:131    0
hbond:LEU:131    0
Name: 93, dtype: object

>  <halogenbond:LEU:131>  (95) 
halogenbond:LEU:131    0
halogenbond:LEU:131    0
Name: 93, dtype: object

>  <hbond:VAL:132>  (95) 
hbond:VAL:132    0
hbond:VAL:132    0
Name: 93, dtype: object

$$$$
Z5248476605
     RDKit          3D

 19 21  0  0  0  0  0  0  0  0999 V2000
   36.5873   13.8803   14.2311 C   0  0  0  0  0  0  0  0  0  0  0  0
   37.3224   12.7660   14.3897 O   0  0  0  0  0  0  0  0  0  0  0  0
   37.6893   12.3743   13.1726 C   0  0  0  0  0  0  0  0  0  0  0  0
   38.6311   13.0589   12.4779 C   0  0  0  0  0  0  0  0  0  0  0  0
   39.0234   12.6223   11.2135 C   0  0  0  0  0  0  0  0  0  0  0  0
   40.0273   13.4483   10.5234 C   0  0  0  0  0  0  0  0  0  0  0  0
   39.7219   14.5993   10.3249 O   0  0  0  0  0  0  0  0  0  0  0  0
   41.2833   12.8157   10.1270 N   0  0  0  0  0  0  0  0  0  0  0  0
   41.8477   11.9344   11.1477 C   0  0  0  0  0  0  0  0  0  0  0  0
   43.2308   11.3837   10.7346 C   0  0  0  0  0  0  0  0  0  0  0  0
   42.7703    9.6789   11.1385 S   0  0  0  0  0  0  0  0  0  0  0  0
   41.1855   10.5639   10.9690 C   0  0  0  0  0  0  0  0  0  0  0  0
   38.4831   11.4731   10.6432 C   0  0  0  0  0  0  0  0  0  0  0  0
   37.5418   10.8326   11.3965 C   0  0  0  0  0  0  0  0  0  0  0  0
   37.1487   11.3031   12.6205 C   0  0  0  0  0  0  0  0  0  0  0  0
   36.2001   10.4974   13.0874 N   0  0  0  0  0  0  0  0  0  0  0  0
   36.6788    9.3905   12.5629 C   0  0  0  0  0  0  0  0  0  0  0  0
   36.9747    8.4138   13.1419 O   0  0  0  0  0  0  0  0  0  0  0  0
   36.8216    9.7176   11.2463 N   0  0  0  0  0  0  0  0  0  0  0  0
  1  2  1  0
  2  3  1  0
  3  4  2  0
  4  5  1  0
  5  6  1  0
  6  7  2  0
  6  8  1  0
  8  9  1  0
  9 10  1  0
 10 11  1  0
 11 12  1  0
  5 13  2  0
 13 14  1  0
 14 15  2  0
 15 16  1  0
 16 17  1  0
 17 18  2  0
 17 19  1  0
 15  3  1  0
 12  9  1  0
 19 14  1  0
A    1
 C1 
A    2
 O1 
A    3
 C2 
A    4
 C3 
A    5
 C4 
A    6
 C5 
A    7
 O2 
A    8
 N1 
A    9
 C6 
A   10
 C7 
A   11
 S1 
A   12
 C8 
A   13
 C9 
A   14
 C10
A   15
 C11
A   16
 N2 
A   17
 C12
A   18
 O3 
A   19
 N3 
M  END
>  <ref_pdb>  (96) 
Ax0310a

>  <ref_mols>  (96) 
Ax0451a,Ax0473a

>  <original SMILES>  (96) 
COc1cc(C(=O)NC2CSC2)cc2[nH]c(=O)[nH]c12

>  <rationale>  (96) 
info hbond:T126+E85+N129+L131; 

>  <intxn_cluster_10>  (96) 
4

>  <intxn_cluster_rank_10>  (96) 
11

>  <N_interactions>  (96) 
6

>  <∆∆G>  (96) 
-3.246538

>  <$/mg>  (96) 
0.0

>  <comRMSD>  (96) 
0.928139

>  <N_rotatable_bonds>  (96) 
4

>  <deep_P1_sidechain>  (96) 
False

>  <farthest_distance_to_substrate>  (96) 
4.604901

>  <hbond:SER:7>  (96) 
hbond:SER:7    0
hbond:SER:7    0
Name: 94, dtype: object

>  <hydroph_interaction:ASN:19>  (96) 
hydroph_interaction:ASN:19    0
hydroph_interaction:ASN:19    0
Name: 94, dtype: object

>  <halogenbond:ASN:19>  (96) 
halogenbond:ASN:19    0
halogenbond:ASN:19    0
Name: 94, dtype: object

>  <hbond:ARG:20>  (96) 
hbond:ARG:20    0
hbond:ARG:20    0
Name: 94, dtype: object

>  <hydroph_interaction:ARG:20>  (96) 
hydroph_interaction:ARG:20    0
hydroph_interaction:ARG:20    0
Name: 94, dtype: object

>  <hbond:HIS:21>  (96) 
hbond:HIS:21    0
hbond:HIS:21    0
Name: 94, dtype: object

>  <hydroph_interaction:HIS:21>  (96) 
hydroph_interaction:HIS:21    0
hydroph_interaction:HIS:21    0
Name: 94, dtype: object

>  <saltbridge:HIS:21>  (96) 
saltbridge:HIS:21    0
saltbridge:HIS:21    0
Name: 94, dtype: object

>  <pistack:HIS:21>  (96) 
pistack:HIS:21    0
pistack:HIS:21    0
Name: 94, dtype: object

>  <pication:HIS:21>  (96) 
pication:HIS:21    0
pication:HIS:21    0
Name: 94, dtype: object

>  <hydroph_interaction:LEU:22>  (96) 
hydroph_interaction:LEU:22    0
hydroph_interaction:LEU:22    0
Name: 94, dtype: object

>  <hbond:SER:36>  (96) 
hbond:SER:36    0
hbond:SER:36    0
Name: 94, dtype: object

>  <hbond:ASP:39>  (96) 
hbond:ASP:39    0
hbond:ASP:39    0
Name: 94, dtype: object

>  <saltbridge:ASP:39>  (96) 
saltbridge:ASP:39    0
saltbridge:ASP:39    0
Name: 94, dtype: object

>  <hydroph_interaction:ASP:39>  (96) 
hydroph_interaction:ASP:39    0
hydroph_interaction:ASP:39    0
Name: 94, dtype: object

>  <halogenbond:ASP:39>  (96) 
halogenbond:ASP:39    0
halogenbond:ASP:39    0
Name: 94, dtype: object

>  <hydroph_interaction:ILE:82>  (96) 
hydroph_interaction:ILE:82    0
hydroph_interaction:ILE:82    0
Name: 94, dtype: object

>  <hydroph_interaction:PHE:83>  (96) 
hydroph_interaction:PHE:83    0
hydroph_interaction:PHE:83    0
Name: 94, dtype: object

>  <hbond:PHE:83>  (96) 
hbond:PHE:83    0
hbond:PHE:83    0
Name: 94, dtype: object

>  <halogenbond:PHE:83>  (96) 
halogenbond:PHE:83    0
halogenbond:PHE:83    0
Name: 94, dtype: object

>  <hydroph_interaction:VAL:84>  (96) 
hydroph_interaction:VAL:84    0
hydroph_interaction:VAL:84    0
Name: 94, dtype: object

>  <hydroph_interaction:GLU:85>  (96) 
hydroph_interaction:GLU:85    0
hydroph_interaction:GLU:85    0
Name: 94, dtype: object

>  <hbond:GLU:85>  (96) 
hbond:GLU:85    2
hbond:GLU:85    2
Name: 94, dtype: object

>  <halogenbond:GLU:85>  (96) 
halogenbond:GLU:85    0
halogenbond:GLU:85    0
Name: 94, dtype: object

>  <halogenbond:ALA:86>  (96) 
halogenbond:ALA:86    0
halogenbond:ALA:86    0
Name: 94, dtype: object

>  <hbond:SER:87>  (96) 
hbond:SER:87    0
hbond:SER:87    0
Name: 94, dtype: object

>  <halogenbond:SER:87>  (96) 
halogenbond:SER:87    0
halogenbond:SER:87    0
Name: 94, dtype: object

>  <hbond:GLU:88>  (96) 
hbond:GLU:88    0
hbond:GLU:88    0
Name: 94, dtype: object

>  <halogenbond:GLU:88>  (96) 
halogenbond:GLU:88    0
halogenbond:GLU:88    0
Name: 94, dtype: object

>  <hydroph_interaction:TYR:89>  (96) 
hydroph_interaction:TYR:89    0
hydroph_interaction:TYR:89    0
Name: 94, dtype: object

>  <pistack:TYR:89>  (96) 
pistack:TYR:89    0
pistack:TYR:89    0
Name: 94, dtype: object

>  <hbond:TYR:89>  (96) 
hbond:TYR:89    0
hbond:TYR:89    0
Name: 94, dtype: object

>  <hbond:TYR:90>  (96) 
hbond:TYR:90    0
hbond:TYR:90    0
Name: 94, dtype: object

>  <hydroph_interaction:TYR:90>  (96) 
hydroph_interaction:TYR:90    0
hydroph_interaction:TYR:90    0
Name: 94, dtype: object

>  <pistack:TYR:90>  (96) 
pistack:TYR:90    0
pistack:TYR:90    0
Name: 94, dtype: object

>  <hbond:ARG:93>  (96) 
hbond:ARG:93    0
hbond:ARG:93    0
Name: 94, dtype: object

>  <saltbridge:ARG:93>  (96) 
saltbridge:ARG:93    0
saltbridge:ARG:93    0
Name: 94, dtype: object

>  <hydroph_interaction:ARG:93>  (96) 
hydroph_interaction:ARG:93    0
hydroph_interaction:ARG:93    0
Name: 94, dtype: object

>  <halogenbond:GLN:95>  (96) 
halogenbond:GLN:95    0
halogenbond:GLN:95    0
Name: 94, dtype: object

>  <hbond:GLN:95>  (96) 
hbond:GLN:95    0
hbond:GLN:95    0
Name: 94, dtype: object

>  <hydroph_interaction:GLN:95>  (96) 
hydroph_interaction:GLN:95    0
hydroph_interaction:GLN:95    0
Name: 94, dtype: object

>  <hydroph_interaction:LEU:98>  (96) 
hydroph_interaction:LEU:98    0
hydroph_interaction:LEU:98    0
Name: 94, dtype: object

>  <hydroph_interaction:LEU:100>  (96) 
hydroph_interaction:LEU:100    0
hydroph_interaction:LEU:100    0
Name: 94, dtype: object

>  <hbond:SER:105>  (96) 
hbond:SER:105    0
hbond:SER:105    0
Name: 94, dtype: object

>  <halogenbond:SER:105>  (96) 
halogenbond:SER:105    0
halogenbond:SER:105    0
Name: 94, dtype: object

>  <hydroph_interaction:PRO:107>  (96) 
hydroph_interaction:PRO:107    0
hydroph_interaction:PRO:107    0
Name: 94, dtype: object

>  <hbond:PRO:107>  (96) 
hbond:PRO:107    0
hbond:PRO:107    0
Name: 94, dtype: object

>  <halogenbond:PRO:107>  (96) 
halogenbond:PRO:107    0
halogenbond:PRO:107    0
Name: 94, dtype: object

>  <hbond:ASP:109>  (96) 
hbond:ASP:109    0
hbond:ASP:109    0
Name: 94, dtype: object

>  <hbond:CYS:110>  (96) 
hbond:CYS:110    0
hbond:CYS:110    0
Name: 94, dtype: object

>  <halogenbond:CYS:110>  (96) 
halogenbond:CYS:110    0
halogenbond:CYS:110    0
Name: 94, dtype: object

>  <hydroph_interaction:VAL:124>  (96) 
hydroph_interaction:VAL:124    0
hydroph_interaction:VAL:124    0
Name: 94, dtype: object

>  <hbond:SER:125>  (96) 
hbond:SER:125    0
hbond:SER:125    0
Name: 94, dtype: object

>  <halogenbond:SER:125>  (96) 
halogenbond:SER:125    0
halogenbond:SER:125    0
Name: 94, dtype: object

>  <hydroph_interaction:THR:126>  (96) 
hydroph_interaction:THR:126    0
hydroph_interaction:THR:126    0
Name: 94, dtype: object

>  <hbond:THR:126>  (96) 
hbond:THR:126    2
hbond:THR:126    2
Name: 94, dtype: object

>  <halogenbond:THR:126>  (96) 
halogenbond:THR:126    0
halogenbond:THR:126    0
Name: 94, dtype: object

>  <hbond:GLY:127>  (96) 
hbond:GLY:127    0
hbond:GLY:127    0
Name: 94, dtype: object

>  <halogenbond:GLY:127>  (96) 
halogenbond:GLY:127    0
halogenbond:GLY:127    0
Name: 94, dtype: object

>  <hbond:GLY:128>  (96) 
hbond:GLY:128    0
hbond:GLY:128    0
Name: 94, dtype: object

>  <hbond:ASN:129>  (96) 
hbond:ASN:129    1
hbond:ASN:129    1
Name: 94, dtype: object

>  <hydroph_interaction:ASN:129>  (96) 
hydroph_interaction:ASN:129    0
hydroph_interaction:ASN:129    0
Name: 94, dtype: object

>  <halogenbond:ASN:129>  (96) 
halogenbond:ASN:129    0
halogenbond:ASN:129    0
Name: 94, dtype: object

>  <hydroph_interaction:LEU:131>  (96) 
hydroph_interaction:LEU:131    0
hydroph_interaction:LEU:131    0
Name: 94, dtype: object

>  <hbond:LEU:131>  (96) 
hbond:LEU:131    1
hbond:LEU:131    1
Name: 94, dtype: object

>  <halogenbond:LEU:131>  (96) 
halogenbond:LEU:131    0
halogenbond:LEU:131    0
Name: 94, dtype: object

>  <hbond:VAL:132>  (96) 
hbond:VAL:132    0
hbond:VAL:132    0
Name: 94, dtype: object

$$$$
Z5536677009
     RDKit          3D

 19 20  0  0  0  0  0  0  0  0999 V2000
   30.9624    8.5105    8.6013 C   0  0  0  0  0  0  0  0  0  0  0  0
   31.0995    9.5981    7.7069 N   0  0  0  0  0  0  0  0  0  0  0  0
   30.4000   10.7856    8.0097 C   0  0  0  0  0  0  0  0  0  0  0  0
   30.9539   11.7983    7.0710 C   0  0  1  0  0  0  0  0  0  0  0  0
   31.1021   13.0756    7.8412 C   0  0  0  0  0  0  0  0  0  0  0  0
   32.0849   13.7397    7.7078 O   0  0  0  0  0  0  0  0  0  0  0  0
   30.0127   13.3295    8.6394 N   0  0  0  0  0  0  0  0  0  0  0  0
   28.8167   13.5904    8.0343 C   0  0  0  0  0  0  0  0  0  0  0  0
   28.3194   12.8570    6.9733 C   0  0  0  0  0  0  0  0  0  0  0  0
   27.0882   13.4379    6.6346 C   0  0  0  0  0  0  0  0  0  0  0  0
   26.1189   13.0443    5.5498 C   0  0  0  0  0  0  0  0  0  0  0  0
   26.5829   13.3785    4.3128 F   0  0  0  0  0  0  0  0  0  0  0  0
   25.8957   11.7043    5.5138 F   0  0  0  0  0  0  0  0  0  0  0  0
   26.8551   14.4646    7.4499 N   0  0  0  0  0  0  0  0  0  0  0  0
   27.8929   14.5458    8.2820 N   0  0  0  0  0  0  0  0  0  0  0  0
   27.8758   15.5813    9.2647 C   0  0  0  0  0  0  0  0  0  0  0  0
   32.1918   11.2167    6.6249 N   0  0  0  0  0  0  0  0  0  0  0  0
   32.1865    9.8595    6.8685 C   0  0  0  0  0  0  0  0  0  0  0  0
   32.9981    9.0821    6.4111 O   0  0  0  0  0  0  0  0  0  0  0  0
  1  2  1  0
  2  3  1  0
  3  4  1  0
  4  5  1  1
  5  6  2  0
  5  7  1  0
  7  8  1  0
  8  9  2  0
  9 10  1  0
 10 11  1  0
 11 12  1  0
 11 13  1  0
 10 14  2  0
 14 15  1  0
 15 16  1  0
  4 17  1  0
 17 18  1  0
 18 19  2  0
 18  2  1  0
 15  8  1  0
A    1
 C1 
A    2
 N1 
A    3
 C2 
A    4
 C3 
A    5
 C4 
A    6
 O1 
A    7
 N2 
A    8
 C5 
A    9
 C6 
A   10
 C7 
A   11
 C8 
A   12
 F1 
A   13
 F2 
A   14
 N3 
A   15
 N4 
A   16
 C9 
A   17
 N5 
A   18
 C10
A   19
 O2 
M  END
>  <ref_pdb>  (97) 
Ax0310a

>  <ref_mols>  (97) 
Ax0451a,Ax0416a

>  <original SMILES>  (97) 
CN1CC(C(=O)Nc2cc(C(F)F)nn2C)NC1=O

>  <rationale>  (97) 
info halogenbond:P107; hbond:S125+G127+S87; hydroph_interaction:P107; 

>  <intxn_cluster_10>  (97) 
9

>  <intxn_cluster_rank_10>  (97) 
17

>  <N_interactions>  (97) 
6

>  <∆∆G>  (97) 
-7.37571

>  <$/mg>  (97) 
0.0

>  <comRMSD>  (97) 
0.901166

>  <N_rotatable_bonds>  (97) 
5

>  <deep_P1_sidechain>  (97) 
False

>  <farthest_distance_to_substrate>  (97) 
2.851902

>  <hbond:SER:7>  (97) 
hbond:SER:7    0
hbond:SER:7    0
Name: 95, dtype: object

>  <hydroph_interaction:ASN:19>  (97) 
hydroph_interaction:ASN:19    0
hydroph_interaction:ASN:19    0
Name: 95, dtype: object

>  <halogenbond:ASN:19>  (97) 
halogenbond:ASN:19    0
halogenbond:ASN:19    0
Name: 95, dtype: object

>  <hbond:ARG:20>  (97) 
hbond:ARG:20    0
hbond:ARG:20    0
Name: 95, dtype: object

>  <hydroph_interaction:ARG:20>  (97) 
hydroph_interaction:ARG:20    0
hydroph_interaction:ARG:20    0
Name: 95, dtype: object

>  <hbond:HIS:21>  (97) 
hbond:HIS:21    0
hbond:HIS:21    0
Name: 95, dtype: object

>  <hydroph_interaction:HIS:21>  (97) 
hydroph_interaction:HIS:21    0
hydroph_interaction:HIS:21    0
Name: 95, dtype: object

>  <saltbridge:HIS:21>  (97) 
saltbridge:HIS:21    0
saltbridge:HIS:21    0
Name: 95, dtype: object

>  <pistack:HIS:21>  (97) 
pistack:HIS:21    0
pistack:HIS:21    0
Name: 95, dtype: object

>  <pication:HIS:21>  (97) 
pication:HIS:21    0
pication:HIS:21    0
Name: 95, dtype: object

>  <hydroph_interaction:LEU:22>  (97) 
hydroph_interaction:LEU:22    0
hydroph_interaction:LEU:22    0
Name: 95, dtype: object

>  <hbond:SER:36>  (97) 
hbond:SER:36    0
hbond:SER:36    0
Name: 95, dtype: object

>  <hbond:ASP:39>  (97) 
hbond:ASP:39    0
hbond:ASP:39    0
Name: 95, dtype: object

>  <saltbridge:ASP:39>  (97) 
saltbridge:ASP:39    0
saltbridge:ASP:39    0
Name: 95, dtype: object

>  <hydroph_interaction:ASP:39>  (97) 
hydroph_interaction:ASP:39    0
hydroph_interaction:ASP:39    0
Name: 95, dtype: object

>  <halogenbond:ASP:39>  (97) 
halogenbond:ASP:39    0
halogenbond:ASP:39    0
Name: 95, dtype: object

>  <hydroph_interaction:ILE:82>  (97) 
hydroph_interaction:ILE:82    0
hydroph_interaction:ILE:82    0
Name: 95, dtype: object

>  <hydroph_interaction:PHE:83>  (97) 
hydroph_interaction:PHE:83    0
hydroph_interaction:PHE:83    0
Name: 95, dtype: object

>  <hbond:PHE:83>  (97) 
hbond:PHE:83    0
hbond:PHE:83    0
Name: 95, dtype: object

>  <halogenbond:PHE:83>  (97) 
halogenbond:PHE:83    0
halogenbond:PHE:83    0
Name: 95, dtype: object

>  <hydroph_interaction:VAL:84>  (97) 
hydroph_interaction:VAL:84    0
hydroph_interaction:VAL:84    0
Name: 95, dtype: object

>  <hydroph_interaction:GLU:85>  (97) 
hydroph_interaction:GLU:85    0
hydroph_interaction:GLU:85    0
Name: 95, dtype: object

>  <hbond:GLU:85>  (97) 
hbond:GLU:85    0
hbond:GLU:85    0
Name: 95, dtype: object

>  <halogenbond:GLU:85>  (97) 
halogenbond:GLU:85    0
halogenbond:GLU:85    0
Name: 95, dtype: object

>  <halogenbond:ALA:86>  (97) 
halogenbond:ALA:86    0
halogenbond:ALA:86    0
Name: 95, dtype: object

>  <hbond:SER:87>  (97) 
hbond:SER:87    1
hbond:SER:87    1
Name: 95, dtype: object

>  <halogenbond:SER:87>  (97) 
halogenbond:SER:87    0
halogenbond:SER:87    0
Name: 95, dtype: object

>  <hbond:GLU:88>  (97) 
hbond:GLU:88    0
hbond:GLU:88    0
Name: 95, dtype: object

>  <halogenbond:GLU:88>  (97) 
halogenbond:GLU:88    0
halogenbond:GLU:88    0
Name: 95, dtype: object

>  <hydroph_interaction:TYR:89>  (97) 
hydroph_interaction:TYR:89    0
hydroph_interaction:TYR:89    0
Name: 95, dtype: object

>  <pistack:TYR:89>  (97) 
pistack:TYR:89    0
pistack:TYR:89    0
Name: 95, dtype: object

>  <hbond:TYR:89>  (97) 
hbond:TYR:89    0
hbond:TYR:89    0
Name: 95, dtype: object

>  <hbond:TYR:90>  (97) 
hbond:TYR:90    0
hbond:TYR:90    0
Name: 95, dtype: object

>  <hydroph_interaction:TYR:90>  (97) 
hydroph_interaction:TYR:90    0
hydroph_interaction:TYR:90    0
Name: 95, dtype: object

>  <pistack:TYR:90>  (97) 
pistack:TYR:90    0
pistack:TYR:90    0
Name: 95, dtype: object

>  <hbond:ARG:93>  (97) 
hbond:ARG:93    0
hbond:ARG:93    0
Name: 95, dtype: object

>  <saltbridge:ARG:93>  (97) 
saltbridge:ARG:93    0
saltbridge:ARG:93    0
Name: 95, dtype: object

>  <hydroph_interaction:ARG:93>  (97) 
hydroph_interaction:ARG:93    0
hydroph_interaction:ARG:93    0
Name: 95, dtype: object

>  <halogenbond:GLN:95>  (97) 
halogenbond:GLN:95    0
halogenbond:GLN:95    0
Name: 95, dtype: object

>  <hbond:GLN:95>  (97) 
hbond:GLN:95    0
hbond:GLN:95    0
Name: 95, dtype: object

>  <hydroph_interaction:GLN:95>  (97) 
hydroph_interaction:GLN:95    0
hydroph_interaction:GLN:95    0
Name: 95, dtype: object

>  <hydroph_interaction:LEU:98>  (97) 
hydroph_interaction:LEU:98    0
hydroph_interaction:LEU:98    0
Name: 95, dtype: object

>  <hydroph_interaction:LEU:100>  (97) 
hydroph_interaction:LEU:100    0
hydroph_interaction:LEU:100    0
Name: 95, dtype: object

>  <hbond:SER:105>  (97) 
hbond:SER:105    0
hbond:SER:105    0
Name: 95, dtype: object

>  <halogenbond:SER:105>  (97) 
halogenbond:SER:105    0
halogenbond:SER:105    0
Name: 95, dtype: object

>  <hydroph_interaction:PRO:107>  (97) 
hydroph_interaction:PRO:107    1
hydroph_interaction:PRO:107    1
Name: 95, dtype: object

>  <hbond:PRO:107>  (97) 
hbond:PRO:107    0
hbond:PRO:107    0
Name: 95, dtype: object

>  <halogenbond:PRO:107>  (97) 
halogenbond:PRO:107    1
halogenbond:PRO:107    1
Name: 95, dtype: object

>  <hbond:ASP:109>  (97) 
hbond:ASP:109    0
hbond:ASP:109    0
Name: 95, dtype: object

>  <hbond:CYS:110>  (97) 
hbond:CYS:110    0
hbond:CYS:110    0
Name: 95, dtype: object

>  <halogenbond:CYS:110>  (97) 
halogenbond:CYS:110    0
halogenbond:CYS:110    0
Name: 95, dtype: object

>  <hydroph_interaction:VAL:124>  (97) 
hydroph_interaction:VAL:124    0
hydroph_interaction:VAL:124    0
Name: 95, dtype: object

>  <hbond:SER:125>  (97) 
hbond:SER:125    1
hbond:SER:125    1
Name: 95, dtype: object

>  <halogenbond:SER:125>  (97) 
halogenbond:SER:125    0
halogenbond:SER:125    0
Name: 95, dtype: object

>  <hydroph_interaction:THR:126>  (97) 
hydroph_interaction:THR:126    0
hydroph_interaction:THR:126    0
Name: 95, dtype: object

>  <hbond:THR:126>  (97) 
hbond:THR:126    0
hbond:THR:126    0
Name: 95, dtype: object

>  <halogenbond:THR:126>  (97) 
halogenbond:THR:126    0
halogenbond:THR:126    0
Name: 95, dtype: object

>  <hbond:GLY:127>  (97) 
hbond:GLY:127    2
hbond:GLY:127    2
Name: 95, dtype: object

>  <halogenbond:GLY:127>  (97) 
halogenbond:GLY:127    0
halogenbond:GLY:127    0
Name: 95, dtype: object

>  <hbond:GLY:128>  (97) 
hbond:GLY:128    0
hbond:GLY:128    0
Name: 95, dtype: object

>  <hbond:ASN:129>  (97) 
hbond:ASN:129    0
hbond:ASN:129    0
Name: 95, dtype: object

>  <hydroph_interaction:ASN:129>  (97) 
hydroph_interaction:ASN:129    0
hydroph_interaction:ASN:129    0
Name: 95, dtype: object

>  <halogenbond:ASN:129>  (97) 
halogenbond:ASN:129    0
halogenbond:ASN:129    0
Name: 95, dtype: object

>  <hydroph_interaction:LEU:131>  (97) 
hydroph_interaction:LEU:131    0
hydroph_interaction:LEU:131    0
Name: 95, dtype: object

>  <hbond:LEU:131>  (97) 
hbond:LEU:131    0
hbond:LEU:131    0
Name: 95, dtype: object

>  <halogenbond:LEU:131>  (97) 
halogenbond:LEU:131    0
halogenbond:LEU:131    0
Name: 95, dtype: object

>  <hbond:VAL:132>  (97) 
hbond:VAL:132    0
hbond:VAL:132    0
Name: 95, dtype: object

$$$$
PV_002744383157
     RDKit          3D

 17 18  0  0  0  0  0  0  0  0999 V2000
   41.6504   15.5474    8.8612 C   0  0  0  0  0  0  0  0  0  0  0  0
   41.1058   14.7701    9.9462 N   0  0  0  0  0  0  0  0  0  0  0  0
   41.4750   14.8235   11.2487 C   0  0  0  0  0  0  0  0  0  0  0  0
   40.6477   13.8668   11.8985 C   0  0  0  0  0  0  0  0  0  0  0  0
   39.8119   13.2745   10.9734 C   0  0  0  0  0  0  0  0  0  0  0  0
   38.8696   12.2991   11.2840 C   0  0  0  0  0  0  0  0  0  0  0  0
   38.1674   12.5261   12.5972 C   0  0  0  0  0  0  0  0  0  0  0  0
   38.4288   13.5585   13.3825 F   0  0  0  0  0  0  0  0  0  0  0  0
   37.1390   11.5317   13.0180 C   0  0  0  0  0  0  0  0  0  0  0  0
   36.5092   11.8538   14.3407 C   0  0  0  0  0  0  0  0  0  0  0  0
   35.7742   13.1141   14.2451 C   0  0  0  0  0  0  0  0  0  0  0  0
   35.4435   13.5362   13.1995 O   0  0  0  0  0  0  0  0  0  0  0  0
   35.5145   13.7525   15.3886 O   0  0  0  0  0  0  0  0  0  0  0  0
   36.8524   10.4392   12.2079 C   0  0  0  0  0  0  0  0  0  0  0  0
   37.5389   10.2811   11.0035 C   0  0  0  0  0  0  0  0  0  0  0  0
   38.5319   11.1805   10.5283 C   0  0  0  0  0  0  0  0  0  0  0  0
   40.0870   13.8350    9.7427 N   0  0  0  0  0  0  0  0  0  0  0  0
  1  2  1  0
  2  3  1  0
  3  4  2  0
  4  5  1  0
  5  6  1  0
  6  7  2  0
  7  8  1  0
  7  9  1  0
  9 10  1  0
 10 11  1  0
 11 12  2  0
 11 13  1  0
  9 14  2  0
 14 15  1  0
 15 16  2  0
  5 17  2  0
 17  2  1  0
 16  6  1  0
A    1
 C1 
A    2
 N1 
A    3
 C2 
A    4
 C3 
A    5
 C4 
A    6
 C5 
A    7
 C6 
A    8
 F1 
A    9
 C7 
A   10
 C8 
A   11
 C9 
A   12
 O1 
A   13
 O2 
A   14
 C10
A   15
 C11
A   16
 C12
A   17
 N2 
M  END
>  <ref_pdb>  (98) 
Ax0310a

>  <ref_mols>  (98) 
Ax0473a,Ax0884a

>  <original SMILES>  (98) 
Cn1ccc(-c2cccc(CC(=O)O)c2F)n1

>  <rationale>  (98) 
info halogenbond:F83; hbond:T126+E85+N129; hydroph_interaction:L100+L131+L98; 

>  <intxn_cluster_10>  (98) 
8

>  <intxn_cluster_rank_10>  (98) 
12

>  <N_interactions>  (98) 
8

>  <∆∆G>  (98) 
-3.088266

>  <$/mg>  (98) 
0.0

>  <comRMSD>  (98) 
0.584219

>  <N_rotatable_bonds>  (98) 
4

>  <deep_P1_sidechain>  (98) 
False

>  <farthest_distance_to_substrate>  (98) 
4.919156

>  <hbond:SER:7>  (98) 
hbond:SER:7    0
hbond:SER:7    0
Name: 96, dtype: object

>  <hydroph_interaction:ASN:19>  (98) 
hydroph_interaction:ASN:19    0
hydroph_interaction:ASN:19    0
Name: 96, dtype: object

>  <halogenbond:ASN:19>  (98) 
halogenbond:ASN:19    0
halogenbond:ASN:19    0
Name: 96, dtype: object

>  <hbond:ARG:20>  (98) 
hbond:ARG:20    0
hbond:ARG:20    0
Name: 96, dtype: object

>  <hydroph_interaction:ARG:20>  (98) 
hydroph_interaction:ARG:20    0
hydroph_interaction:ARG:20    0
Name: 96, dtype: object

>  <hbond:HIS:21>  (98) 
hbond:HIS:21    0
hbond:HIS:21    0
Name: 96, dtype: object

>  <hydroph_interaction:HIS:21>  (98) 
hydroph_interaction:HIS:21    0
hydroph_interaction:HIS:21    0
Name: 96, dtype: object

>  <saltbridge:HIS:21>  (98) 
saltbridge:HIS:21    0
saltbridge:HIS:21    0
Name: 96, dtype: object

>  <pistack:HIS:21>  (98) 
pistack:HIS:21    0
pistack:HIS:21    0
Name: 96, dtype: object

>  <pication:HIS:21>  (98) 
pication:HIS:21    0
pication:HIS:21    0
Name: 96, dtype: object

>  <hydroph_interaction:LEU:22>  (98) 
hydroph_interaction:LEU:22    0
hydroph_interaction:LEU:22    0
Name: 96, dtype: object

>  <hbond:SER:36>  (98) 
hbond:SER:36    0
hbond:SER:36    0
Name: 96, dtype: object

>  <hbond:ASP:39>  (98) 
hbond:ASP:39    0
hbond:ASP:39    0
Name: 96, dtype: object

>  <saltbridge:ASP:39>  (98) 
saltbridge:ASP:39    0
saltbridge:ASP:39    0
Name: 96, dtype: object

>  <hydroph_interaction:ASP:39>  (98) 
hydroph_interaction:ASP:39    0
hydroph_interaction:ASP:39    0
Name: 96, dtype: object

>  <halogenbond:ASP:39>  (98) 
halogenbond:ASP:39    0
halogenbond:ASP:39    0
Name: 96, dtype: object

>  <hydroph_interaction:ILE:82>  (98) 
hydroph_interaction:ILE:82    0
hydroph_interaction:ILE:82    0
Name: 96, dtype: object

>  <hydroph_interaction:PHE:83>  (98) 
hydroph_interaction:PHE:83    0
hydroph_interaction:PHE:83    0
Name: 96, dtype: object

>  <hbond:PHE:83>  (98) 
hbond:PHE:83    0
hbond:PHE:83    0
Name: 96, dtype: object

>  <halogenbond:PHE:83>  (98) 
halogenbond:PHE:83    1
halogenbond:PHE:83    1
Name: 96, dtype: object

>  <hydroph_interaction:VAL:84>  (98) 
hydroph_interaction:VAL:84    0
hydroph_interaction:VAL:84    0
Name: 96, dtype: object

>  <hydroph_interaction:GLU:85>  (98) 
hydroph_interaction:GLU:85    0
hydroph_interaction:GLU:85    0
Name: 96, dtype: object

>  <hbond:GLU:85>  (98) 
hbond:GLU:85    1
hbond:GLU:85    1
Name: 96, dtype: object

>  <halogenbond:GLU:85>  (98) 
halogenbond:GLU:85    0
halogenbond:GLU:85    0
Name: 96, dtype: object

>  <halogenbond:ALA:86>  (98) 
halogenbond:ALA:86    0
halogenbond:ALA:86    0
Name: 96, dtype: object

>  <hbond:SER:87>  (98) 
hbond:SER:87    0
hbond:SER:87    0
Name: 96, dtype: object

>  <halogenbond:SER:87>  (98) 
halogenbond:SER:87    0
halogenbond:SER:87    0
Name: 96, dtype: object

>  <hbond:GLU:88>  (98) 
hbond:GLU:88    0
hbond:GLU:88    0
Name: 96, dtype: object

>  <halogenbond:GLU:88>  (98) 
halogenbond:GLU:88    0
halogenbond:GLU:88    0
Name: 96, dtype: object

>  <hydroph_interaction:TYR:89>  (98) 
hydroph_interaction:TYR:89    0
hydroph_interaction:TYR:89    0
Name: 96, dtype: object

>  <pistack:TYR:89>  (98) 
pistack:TYR:89    0
pistack:TYR:89    0
Name: 96, dtype: object

>  <hbond:TYR:89>  (98) 
hbond:TYR:89    0
hbond:TYR:89    0
Name: 96, dtype: object

>  <hbond:TYR:90>  (98) 
hbond:TYR:90    0
hbond:TYR:90    0
Name: 96, dtype: object

>  <hydroph_interaction:TYR:90>  (98) 
hydroph_interaction:TYR:90    0
hydroph_interaction:TYR:90    0
Name: 96, dtype: object

>  <pistack:TYR:90>  (98) 
pistack:TYR:90    0
pistack:TYR:90    0
Name: 96, dtype: object

>  <hbond:ARG:93>  (98) 
hbond:ARG:93    0
hbond:ARG:93    0
Name: 96, dtype: object

>  <saltbridge:ARG:93>  (98) 
saltbridge:ARG:93    0
saltbridge:ARG:93    0
Name: 96, dtype: object

>  <hydroph_interaction:ARG:93>  (98) 
hydroph_interaction:ARG:93    0
hydroph_interaction:ARG:93    0
Name: 96, dtype: object

>  <halogenbond:GLN:95>  (98) 
halogenbond:GLN:95    0
halogenbond:GLN:95    0
Name: 96, dtype: object

>  <hbond:GLN:95>  (98) 
hbond:GLN:95    0
hbond:GLN:95    0
Name: 96, dtype: object

>  <hydroph_interaction:GLN:95>  (98) 
hydroph_interaction:GLN:95    0
hydroph_interaction:GLN:95    0
Name: 96, dtype: object

>  <hydroph_interaction:LEU:98>  (98) 
hydroph_interaction:LEU:98    1
hydroph_interaction:LEU:98    1
Name: 96, dtype: object

>  <hydroph_interaction:LEU:100>  (98) 
hydroph_interaction:LEU:100    2
hydroph_interaction:LEU:100    2
Name: 96, dtype: object

>  <hbond:SER:105>  (98) 
hbond:SER:105    0
hbond:SER:105    0
Name: 96, dtype: object

>  <halogenbond:SER:105>  (98) 
halogenbond:SER:105    0
halogenbond:SER:105    0
Name: 96, dtype: object

>  <hydroph_interaction:PRO:107>  (98) 
hydroph_interaction:PRO:107    0
hydroph_interaction:PRO:107    0
Name: 96, dtype: object

>  <hbond:PRO:107>  (98) 
hbond:PRO:107    0
hbond:PRO:107    0
Name: 96, dtype: object

>  <halogenbond:PRO:107>  (98) 
halogenbond:PRO:107    0
halogenbond:PRO:107    0
Name: 96, dtype: object

>  <hbond:ASP:109>  (98) 
hbond:ASP:109    0
hbond:ASP:109    0
Name: 96, dtype: object

>  <hbond:CYS:110>  (98) 
hbond:CYS:110    0
hbond:CYS:110    0
Name: 96, dtype: object

>  <halogenbond:CYS:110>  (98) 
halogenbond:CYS:110    0
halogenbond:CYS:110    0
Name: 96, dtype: object

>  <hydroph_interaction:VAL:124>  (98) 
hydroph_interaction:VAL:124    0
hydroph_interaction:VAL:124    0
Name: 96, dtype: object

>  <hbond:SER:125>  (98) 
hbond:SER:125    0
hbond:SER:125    0
Name: 96, dtype: object

>  <halogenbond:SER:125>  (98) 
halogenbond:SER:125    0
halogenbond:SER:125    0
Name: 96, dtype: object

>  <hydroph_interaction:THR:126>  (98) 
hydroph_interaction:THR:126    0
hydroph_interaction:THR:126    0
Name: 96, dtype: object

>  <hbond:THR:126>  (98) 
hbond:THR:126    1
hbond:THR:126    1
Name: 96, dtype: object

>  <halogenbond:THR:126>  (98) 
halogenbond:THR:126    0
halogenbond:THR:126    0
Name: 96, dtype: object

>  <hbond:GLY:127>  (98) 
hbond:GLY:127    0
hbond:GLY:127    0
Name: 96, dtype: object

>  <halogenbond:GLY:127>  (98) 
halogenbond:GLY:127    0
halogenbond:GLY:127    0
Name: 96, dtype: object

>  <hbond:GLY:128>  (98) 
hbond:GLY:128    0
hbond:GLY:128    0
Name: 96, dtype: object

>  <hbond:ASN:129>  (98) 
hbond:ASN:129    1
hbond:ASN:129    1
Name: 96, dtype: object

>  <hydroph_interaction:ASN:129>  (98) 
hydroph_interaction:ASN:129    0
hydroph_interaction:ASN:129    0
Name: 96, dtype: object

>  <halogenbond:ASN:129>  (98) 
halogenbond:ASN:129    0
halogenbond:ASN:129    0
Name: 96, dtype: object

>  <hydroph_interaction:LEU:131>  (98) 
hydroph_interaction:LEU:131    1
hydroph_interaction:LEU:131    1
Name: 96, dtype: object

>  <hbond:LEU:131>  (98) 
hbond:LEU:131    0
hbond:LEU:131    0
Name: 96, dtype: object

>  <halogenbond:LEU:131>  (98) 
halogenbond:LEU:131    0
halogenbond:LEU:131    0
Name: 96, dtype: object

>  <hbond:VAL:132>  (98) 
hbond:VAL:132    0
hbond:VAL:132    0
Name: 96, dtype: object

$$$$
PV_002709605377
     RDKit          3D

 14 15  0  0  0  0  0  0  0  0999 V2000
   40.7229   12.5810    7.7024 F   0  0  0  0  0  0  0  0  0  0  0  0
   41.7385   12.7755    8.5928 C   0  0  0  0  0  0  0  0  0  0  0  0
   41.3916   12.0873    9.9284 C   0  0  1  0  0  0  0  0  0  0  0  0
   42.6360   11.5041   10.6048 C   0  0  0  0  0  0  0  0  0  0  0  0
   42.5967   11.9488   12.0636 C   0  0  0  0  0  0  0  0  0  0  0  0
   41.1728   12.4077   12.2768 C   0  0  0  0  0  0  0  0  0  0  0  0
   40.8936   12.9966   10.9739 N   0  0  0  0  0  0  0  0  0  0  0  0
   39.5273   13.4174   10.7816 C   0  0  0  0  0  0  0  0  0  0  0  0
   38.5490   12.4311   11.3564 C   0  0  0  0  0  0  0  0  0  0  0  0
   37.8612   12.7463   12.5248 C   0  0  0  0  0  0  0  0  0  0  0  0
   36.9593   11.8508   13.0569 C   0  0  0  0  0  0  0  0  0  0  0  0
   36.7344   10.6227   12.4343 C   0  0  0  0  0  0  0  0  0  0  0  0
   37.4129   10.3017   11.2814 C   0  0  0  0  0  0  0  0  0  0  0  0
   38.3178   11.1963   10.7351 C   0  0  0  0  0  0  0  0  0  0  0  0
  1  2  1  0
  3  2  1  6
  3  4  1  0
  4  5  1  0
  5  6  1  0
  6  7  1  0
  7  8  1  0
  8  9  1  0
  9 10  2  0
 10 11  1  0
 11 12  2  0
 12 13  1  0
 13 14  2  0
  7  3  1  0
 14  9  1  0
A    1
 F1 
A    2
 C1 
A    3
 C2 
A    4
 C3 
A    5
 C4 
A    6
 C5 
A    7
 N1 
A    8
 C6 
A    9
 C7 
A   10
 C8 
A   11
 C9 
A   12
 C10
A   13
 C11
A   14
 C12
M  END
>  <ref_pdb>  (99) 
Ax0310a

>  <ref_mols>  (99) 
Ax0473a,Ax0526a

>  <original SMILES>  (99) 
FC[C@@H]1CCCN1Cc1ccccc1

>  <rationale>  (99) 
info hydroph_interaction:V84+L100+L131+L98+N129; 

>  <intxn_cluster_10>  (99) 
4

>  <intxn_cluster_rank_10>  (99) 
23

>  <N_interactions>  (99) 
6

>  <∆∆G>  (99) 
-6.124825

>  <$/mg>  (99) 
163.0

>  <comRMSD>  (99) 
0.776841

>  <N_rotatable_bonds>  (99) 
3

>  <deep_P1_sidechain>  (99) 
False

>  <farthest_distance_to_substrate>  (99) 
3.612379

>  <hbond:SER:7>  (99) 
hbond:SER:7    0
hbond:SER:7    0
Name: 97, dtype: object

>  <hydroph_interaction:ASN:19>  (99) 
hydroph_interaction:ASN:19    0
hydroph_interaction:ASN:19    0
Name: 97, dtype: object

>  <halogenbond:ASN:19>  (99) 
halogenbond:ASN:19    0
halogenbond:ASN:19    0
Name: 97, dtype: object

>  <hbond:ARG:20>  (99) 
hbond:ARG:20    0
hbond:ARG:20    0
Name: 97, dtype: object

>  <hydroph_interaction:ARG:20>  (99) 
hydroph_interaction:ARG:20    0
hydroph_interaction:ARG:20    0
Name: 97, dtype: object

>  <hbond:HIS:21>  (99) 
hbond:HIS:21    0
hbond:HIS:21    0
Name: 97, dtype: object

>  <hydroph_interaction:HIS:21>  (99) 
hydroph_interaction:HIS:21    0
hydroph_interaction:HIS:21    0
Name: 97, dtype: object

>  <saltbridge:HIS:21>  (99) 
saltbridge:HIS:21    0
saltbridge:HIS:21    0
Name: 97, dtype: object

>  <pistack:HIS:21>  (99) 
pistack:HIS:21    0
pistack:HIS:21    0
Name: 97, dtype: object

>  <pication:HIS:21>  (99) 
pication:HIS:21    0
pication:HIS:21    0
Name: 97, dtype: object

>  <hydroph_interaction:LEU:22>  (99) 
hydroph_interaction:LEU:22    0
hydroph_interaction:LEU:22    0
Name: 97, dtype: object

>  <hbond:SER:36>  (99) 
hbond:SER:36    0
hbond:SER:36    0
Name: 97, dtype: object

>  <hbond:ASP:39>  (99) 
hbond:ASP:39    0
hbond:ASP:39    0
Name: 97, dtype: object

>  <saltbridge:ASP:39>  (99) 
saltbridge:ASP:39    0
saltbridge:ASP:39    0
Name: 97, dtype: object

>  <hydroph_interaction:ASP:39>  (99) 
hydroph_interaction:ASP:39    0
hydroph_interaction:ASP:39    0
Name: 97, dtype: object

>  <halogenbond:ASP:39>  (99) 
halogenbond:ASP:39    0
halogenbond:ASP:39    0
Name: 97, dtype: object

>  <hydroph_interaction:ILE:82>  (99) 
hydroph_interaction:ILE:82    0
hydroph_interaction:ILE:82    0
Name: 97, dtype: object

>  <hydroph_interaction:PHE:83>  (99) 
hydroph_interaction:PHE:83    0
hydroph_interaction:PHE:83    0
Name: 97, dtype: object

>  <hbond:PHE:83>  (99) 
hbond:PHE:83    0
hbond:PHE:83    0
Name: 97, dtype: object

>  <halogenbond:PHE:83>  (99) 
halogenbond:PHE:83    0
halogenbond:PHE:83    0
Name: 97, dtype: object

>  <hydroph_interaction:VAL:84>  (99) 
hydroph_interaction:VAL:84    1
hydroph_interaction:VAL:84    1
Name: 97, dtype: object

>  <hydroph_interaction:GLU:85>  (99) 
hydroph_interaction:GLU:85    0
hydroph_interaction:GLU:85    0
Name: 97, dtype: object

>  <hbond:GLU:85>  (99) 
hbond:GLU:85    0
hbond:GLU:85    0
Name: 97, dtype: object

>  <halogenbond:GLU:85>  (99) 
halogenbond:GLU:85    0
halogenbond:GLU:85    0
Name: 97, dtype: object

>  <halogenbond:ALA:86>  (99) 
halogenbond:ALA:86    0
halogenbond:ALA:86    0
Name: 97, dtype: object

>  <hbond:SER:87>  (99) 
hbond:SER:87    0
hbond:SER:87    0
Name: 97, dtype: object

>  <halogenbond:SER:87>  (99) 
halogenbond:SER:87    0
halogenbond:SER:87    0
Name: 97, dtype: object

>  <hbond:GLU:88>  (99) 
hbond:GLU:88    0
hbond:GLU:88    0
Name: 97, dtype: object

>  <halogenbond:GLU:88>  (99) 
halogenbond:GLU:88    0
halogenbond:GLU:88    0
Name: 97, dtype: object

>  <hydroph_interaction:TYR:89>  (99) 
hydroph_interaction:TYR:89    0
hydroph_interaction:TYR:89    0
Name: 97, dtype: object

>  <pistack:TYR:89>  (99) 
pistack:TYR:89    0
pistack:TYR:89    0
Name: 97, dtype: object

>  <hbond:TYR:89>  (99) 
hbond:TYR:89    0
hbond:TYR:89    0
Name: 97, dtype: object

>  <hbond:TYR:90>  (99) 
hbond:TYR:90    0
hbond:TYR:90    0
Name: 97, dtype: object

>  <hydroph_interaction:TYR:90>  (99) 
hydroph_interaction:TYR:90    0
hydroph_interaction:TYR:90    0
Name: 97, dtype: object

>  <pistack:TYR:90>  (99) 
pistack:TYR:90    0
pistack:TYR:90    0
Name: 97, dtype: object

>  <hbond:ARG:93>  (99) 
hbond:ARG:93    0
hbond:ARG:93    0
Name: 97, dtype: object

>  <saltbridge:ARG:93>  (99) 
saltbridge:ARG:93    0
saltbridge:ARG:93    0
Name: 97, dtype: object

>  <hydroph_interaction:ARG:93>  (99) 
hydroph_interaction:ARG:93    0
hydroph_interaction:ARG:93    0
Name: 97, dtype: object

>  <halogenbond:GLN:95>  (99) 
halogenbond:GLN:95    0
halogenbond:GLN:95    0
Name: 97, dtype: object

>  <hbond:GLN:95>  (99) 
hbond:GLN:95    0
hbond:GLN:95    0
Name: 97, dtype: object

>  <hydroph_interaction:GLN:95>  (99) 
hydroph_interaction:GLN:95    0
hydroph_interaction:GLN:95    0
Name: 97, dtype: object

>  <hydroph_interaction:LEU:98>  (99) 
hydroph_interaction:LEU:98    1
hydroph_interaction:LEU:98    1
Name: 97, dtype: object

>  <hydroph_interaction:LEU:100>  (99) 
hydroph_interaction:LEU:100    1
hydroph_interaction:LEU:100    1
Name: 97, dtype: object

>  <hbond:SER:105>  (99) 
hbond:SER:105    0
hbond:SER:105    0
Name: 97, dtype: object

>  <halogenbond:SER:105>  (99) 
halogenbond:SER:105    0
halogenbond:SER:105    0
Name: 97, dtype: object

>  <hydroph_interaction:PRO:107>  (99) 
hydroph_interaction:PRO:107    0
hydroph_interaction:PRO:107    0
Name: 97, dtype: object

>  <hbond:PRO:107>  (99) 
hbond:PRO:107    0
hbond:PRO:107    0
Name: 97, dtype: object

>  <halogenbond:PRO:107>  (99) 
halogenbond:PRO:107    0
halogenbond:PRO:107    0
Name: 97, dtype: object

>  <hbond:ASP:109>  (99) 
hbond:ASP:109    0
hbond:ASP:109    0
Name: 97, dtype: object

>  <hbond:CYS:110>  (99) 
hbond:CYS:110    0
hbond:CYS:110    0
Name: 97, dtype: object

>  <halogenbond:CYS:110>  (99) 
halogenbond:CYS:110    0
halogenbond:CYS:110    0
Name: 97, dtype: object

>  <hydroph_interaction:VAL:124>  (99) 
hydroph_interaction:VAL:124    0
hydroph_interaction:VAL:124    0
Name: 97, dtype: object

>  <hbond:SER:125>  (99) 
hbond:SER:125    0
hbond:SER:125    0
Name: 97, dtype: object

>  <halogenbond:SER:125>  (99) 
halogenbond:SER:125    0
halogenbond:SER:125    0
Name: 97, dtype: object

>  <hydroph_interaction:THR:126>  (99) 
hydroph_interaction:THR:126    0
hydroph_interaction:THR:126    0
Name: 97, dtype: object

>  <hbond:THR:126>  (99) 
hbond:THR:126    0
hbond:THR:126    0
Name: 97, dtype: object

>  <halogenbond:THR:126>  (99) 
halogenbond:THR:126    0
halogenbond:THR:126    0
Name: 97, dtype: object

>  <hbond:GLY:127>  (99) 
hbond:GLY:127    0
hbond:GLY:127    0
Name: 97, dtype: object

>  <halogenbond:GLY:127>  (99) 
halogenbond:GLY:127    0
halogenbond:GLY:127    0
Name: 97, dtype: object

>  <hbond:GLY:128>  (99) 
hbond:GLY:128    0
hbond:GLY:128    0
Name: 97, dtype: object

>  <hbond:ASN:129>  (99) 
hbond:ASN:129    0
hbond:ASN:129    0
Name: 97, dtype: object

>  <hydroph_interaction:ASN:129>  (99) 
hydroph_interaction:ASN:129    1
hydroph_interaction:ASN:129    1
Name: 97, dtype: object

>  <halogenbond:ASN:129>  (99) 
halogenbond:ASN:129    0
halogenbond:ASN:129    0
Name: 97, dtype: object

>  <hydroph_interaction:LEU:131>  (99) 
hydroph_interaction:LEU:131    2
hydroph_interaction:LEU:131    2
Name: 97, dtype: object

>  <hbond:LEU:131>  (99) 
hbond:LEU:131    0
hbond:LEU:131    0
Name: 97, dtype: object

>  <halogenbond:LEU:131>  (99) 
halogenbond:LEU:131    0
halogenbond:LEU:131    0
Name: 97, dtype: object

>  <hbond:VAL:132>  (99) 
hbond:VAL:132    0
hbond:VAL:132    0
Name: 97, dtype: object

$$$$
PV_006956424022
     RDKit          3D

 15 16  0  0  0  0  0  0  0  0999 V2000
   28.2952   15.4669    8.2690 C   0  0  0  0  0  0  0  0  0  0  0  0
   28.4309   14.0272    8.5862 C   0  0  0  0  0  0  0  0  0  0  0  0
   27.8904   13.5365    9.7076 F   0  0  0  0  0  0  0  0  0  0  0  0
   29.1902   13.1836    7.6223 C   0  0  0  0  0  0  0  0  0  0  0  0
   30.4401   12.9202    8.2765 N   0  0  0  0  0  0  0  0  0  0  0  0
   31.3449   12.2620    7.4783 C   0  0  0  0  0  0  0  0  0  0  0  0
   32.2787   12.9074    6.5416 N   0  0  0  0  0  0  0  0  0  0  0  0
   33.1684   12.0275    5.7799 C   0  0  0  0  0  0  0  0  0  0  0  0
   34.0693   12.6491    4.8818 C   0  0  0  0  0  0  0  0  0  0  0  0
   33.1566   10.6507    5.9122 C   0  0  0  0  0  0  0  0  0  0  0  0
   32.2286   10.1662    6.8284 C   0  0  0  0  0  0  0  0  0  0  0  0
   31.3771   10.9371    7.5614 C   0  0  0  0  0  0  0  0  0  0  0  0
   30.6204    9.9215    8.3651 C   0  0  0  0  0  0  0  0  0  0  0  0
   30.8824    8.6026    8.2361 C   0  0  0  0  0  0  0  0  0  0  0  0
   32.1131    8.5011    7.0933 S   0  0  0  0  0  0  0  0  0  0  0  0
  1  2  2  0
  2  3  1  0
  2  4  1  0
  4  5  1  0
  5  6  1  0
  6  7  2  0
  7  8  1  0
  8  9  1  0
  8 10  2  0
 10 11  1  0
 11 12  2  0
 12 13  1  0
 13 14  2  0
 14 15  1  0
 12  6  1  0
 15 11  1  0
A    1
 C1 
A    2
 C2 
A    3
 F1 
A    4
 C3 
A    5
 N1 
A    6
 C4 
A    7
 N2 
A    8
 C5 
A    9
 C6 
A   10
 C7 
A   11
 C8 
A   12
 C9 
A   13
 C10
A   14
 C11
A   15
 S1 
M  END
>  <ref_pdb>  (100) 
Ax0310a

>  <ref_mols>  (100) 
Ax0554a,Ax0739a

>  <original SMILES>  (100) 
C=C(F)CNc1nc(C)cc2sccc12

>  <rationale>  (100) 
info halogenbond:D39; hbond:S125; hydroph_interaction:Y89+Y90; 

>  <intxn_cluster_10>  (100) 
9

>  <intxn_cluster_rank_10>  (100) 
13

>  <N_interactions>  (100) 
4

>  <∆∆G>  (100) 
-6.383276

>  <$/mg>  (100) 
0.0

>  <comRMSD>  (100) 
0.795771

>  <N_rotatable_bonds>  (100) 
4

>  <deep_P1_sidechain>  (100) 
False

>  <farthest_distance_to_substrate>  (100) 
2.426109

>  <hbond:SER:7>  (100) 
hbond:SER:7    0
hbond:SER:7    0
Name: 98, dtype: object

>  <hydroph_interaction:ASN:19>  (100) 
hydroph_interaction:ASN:19    0
hydroph_interaction:ASN:19    0
Name: 98, dtype: object

>  <halogenbond:ASN:19>  (100) 
halogenbond:ASN:19    0
halogenbond:ASN:19    0
Name: 98, dtype: object

>  <hbond:ARG:20>  (100) 
hbond:ARG:20    0
hbond:ARG:20    0
Name: 98, dtype: object

>  <hydroph_interaction:ARG:20>  (100) 
hydroph_interaction:ARG:20    0
hydroph_interaction:ARG:20    0
Name: 98, dtype: object

>  <hbond:HIS:21>  (100) 
hbond:HIS:21    0
hbond:HIS:21    0
Name: 98, dtype: object

>  <hydroph_interaction:HIS:21>  (100) 
hydroph_interaction:HIS:21    0
hydroph_interaction:HIS:21    0
Name: 98, dtype: object

>  <saltbridge:HIS:21>  (100) 
saltbridge:HIS:21    0
saltbridge:HIS:21    0
Name: 98, dtype: object

>  <pistack:HIS:21>  (100) 
pistack:HIS:21    0
pistack:HIS:21    0
Name: 98, dtype: object

>  <pication:HIS:21>  (100) 
pication:HIS:21    0
pication:HIS:21    0
Name: 98, dtype: object

>  <hydroph_interaction:LEU:22>  (100) 
hydroph_interaction:LEU:22    0
hydroph_interaction:LEU:22    0
Name: 98, dtype: object

>  <hbond:SER:36>  (100) 
hbond:SER:36    0
hbond:SER:36    0
Name: 98, dtype: object

>  <hbond:ASP:39>  (100) 
hbond:ASP:39    0
hbond:ASP:39    0
Name: 98, dtype: object

>  <saltbridge:ASP:39>  (100) 
saltbridge:ASP:39    0
saltbridge:ASP:39    0
Name: 98, dtype: object

>  <hydroph_interaction:ASP:39>  (100) 
hydroph_interaction:ASP:39    0
hydroph_interaction:ASP:39    0
Name: 98, dtype: object

>  <halogenbond:ASP:39>  (100) 
halogenbond:ASP:39    1
halogenbond:ASP:39    1
Name: 98, dtype: object

>  <hydroph_interaction:ILE:82>  (100) 
hydroph_interaction:ILE:82    0
hydroph_interaction:ILE:82    0
Name: 98, dtype: object

>  <hydroph_interaction:PHE:83>  (100) 
hydroph_interaction:PHE:83    0
hydroph_interaction:PHE:83    0
Name: 98, dtype: object

>  <hbond:PHE:83>  (100) 
hbond:PHE:83    0
hbond:PHE:83    0
Name: 98, dtype: object

>  <halogenbond:PHE:83>  (100) 
halogenbond:PHE:83    0
halogenbond:PHE:83    0
Name: 98, dtype: object

>  <hydroph_interaction:VAL:84>  (100) 
hydroph_interaction:VAL:84    0
hydroph_interaction:VAL:84    0
Name: 98, dtype: object

>  <hydroph_interaction:GLU:85>  (100) 
hydroph_interaction:GLU:85    0
hydroph_interaction:GLU:85    0
Name: 98, dtype: object

>  <hbond:GLU:85>  (100) 
hbond:GLU:85    0
hbond:GLU:85    0
Name: 98, dtype: object

>  <halogenbond:GLU:85>  (100) 
halogenbond:GLU:85    0
halogenbond:GLU:85    0
Name: 98, dtype: object

>  <halogenbond:ALA:86>  (100) 
halogenbond:ALA:86    0
halogenbond:ALA:86    0
Name: 98, dtype: object

>  <hbond:SER:87>  (100) 
hbond:SER:87    0
hbond:SER:87    0
Name: 98, dtype: object

>  <halogenbond:SER:87>  (100) 
halogenbond:SER:87    0
halogenbond:SER:87    0
Name: 98, dtype: object

>  <hbond:GLU:88>  (100) 
hbond:GLU:88    0
hbond:GLU:88    0
Name: 98, dtype: object

>  <halogenbond:GLU:88>  (100) 
halogenbond:GLU:88    0
halogenbond:GLU:88    0
Name: 98, dtype: object

>  <hydroph_interaction:TYR:89>  (100) 
hydroph_interaction:TYR:89    1
hydroph_interaction:TYR:89    1
Name: 98, dtype: object

>  <pistack:TYR:89>  (100) 
pistack:TYR:89    0
pistack:TYR:89    0
Name: 98, dtype: object

>  <hbond:TYR:89>  (100) 
hbond:TYR:89    0
hbond:TYR:89    0
Name: 98, dtype: object

>  <hbond:TYR:90>  (100) 
hbond:TYR:90    0
hbond:TYR:90    0
Name: 98, dtype: object

>  <hydroph_interaction:TYR:90>  (100) 
hydroph_interaction:TYR:90    1
hydroph_interaction:TYR:90    1
Name: 98, dtype: object

>  <pistack:TYR:90>  (100) 
pistack:TYR:90    0
pistack:TYR:90    0
Name: 98, dtype: object

>  <hbond:ARG:93>  (100) 
hbond:ARG:93    0
hbond:ARG:93    0
Name: 98, dtype: object

>  <saltbridge:ARG:93>  (100) 
saltbridge:ARG:93    0
saltbridge:ARG:93    0
Name: 98, dtype: object

>  <hydroph_interaction:ARG:93>  (100) 
hydroph_interaction:ARG:93    0
hydroph_interaction:ARG:93    0
Name: 98, dtype: object

>  <halogenbond:GLN:95>  (100) 
halogenbond:GLN:95    0
halogenbond:GLN:95    0
Name: 98, dtype: object

>  <hbond:GLN:95>  (100) 
hbond:GLN:95    0
hbond:GLN:95    0
Name: 98, dtype: object

>  <hydroph_interaction:GLN:95>  (100) 
hydroph_interaction:GLN:95    0
hydroph_interaction:GLN:95    0
Name: 98, dtype: object

>  <hydroph_interaction:LEU:98>  (100) 
hydroph_interaction:LEU:98    0
hydroph_interaction:LEU:98    0
Name: 98, dtype: object

>  <hydroph_interaction:LEU:100>  (100) 
hydroph_interaction:LEU:100    0
hydroph_interaction:LEU:100    0
Name: 98, dtype: object

>  <hbond:SER:105>  (100) 
hbond:SER:105    0
hbond:SER:105    0
Name: 98, dtype: object

>  <halogenbond:SER:105>  (100) 
halogenbond:SER:105    0
halogenbond:SER:105    0
Name: 98, dtype: object

>  <hydroph_interaction:PRO:107>  (100) 
hydroph_interaction:PRO:107    0
hydroph_interaction:PRO:107    0
Name: 98, dtype: object

>  <hbond:PRO:107>  (100) 
hbond:PRO:107    0
hbond:PRO:107    0
Name: 98, dtype: object

>  <halogenbond:PRO:107>  (100) 
halogenbond:PRO:107    0
halogenbond:PRO:107    0
Name: 98, dtype: object

>  <hbond:ASP:109>  (100) 
hbond:ASP:109    0
hbond:ASP:109    0
Name: 98, dtype: object

>  <hbond:CYS:110>  (100) 
hbond:CYS:110    0
hbond:CYS:110    0
Name: 98, dtype: object

>  <halogenbond:CYS:110>  (100) 
halogenbond:CYS:110    0
halogenbond:CYS:110    0
Name: 98, dtype: object

>  <hydroph_interaction:VAL:124>  (100) 
hydroph_interaction:VAL:124    0
hydroph_interaction:VAL:124    0
Name: 98, dtype: object

>  <hbond:SER:125>  (100) 
hbond:SER:125    1
hbond:SER:125    1
Name: 98, dtype: object

>  <halogenbond:SER:125>  (100) 
halogenbond:SER:125    0
halogenbond:SER:125    0
Name: 98, dtype: object

>  <hydroph_interaction:THR:126>  (100) 
hydroph_interaction:THR:126    0
hydroph_interaction:THR:126    0
Name: 98, dtype: object

>  <hbond:THR:126>  (100) 
hbond:THR:126    0
hbond:THR:126    0
Name: 98, dtype: object

>  <halogenbond:THR:126>  (100) 
halogenbond:THR:126    0
halogenbond:THR:126    0
Name: 98, dtype: object

>  <hbond:GLY:127>  (100) 
hbond:GLY:127    0
hbond:GLY:127    0
Name: 98, dtype: object

>  <halogenbond:GLY:127>  (100) 
halogenbond:GLY:127    0
halogenbond:GLY:127    0
Name: 98, dtype: object

>  <hbond:GLY:128>  (100) 
hbond:GLY:128    0
hbond:GLY:128    0
Name: 98, dtype: object

>  <hbond:ASN:129>  (100) 
hbond:ASN:129    0
hbond:ASN:129    0
Name: 98, dtype: object

>  <hydroph_interaction:ASN:129>  (100) 
hydroph_interaction:ASN:129    0
hydroph_interaction:ASN:129    0
Name: 98, dtype: object

>  <halogenbond:ASN:129>  (100) 
halogenbond:ASN:129    0
halogenbond:ASN:129    0
Name: 98, dtype: object

>  <hydroph_interaction:LEU:131>  (100) 
hydroph_interaction:LEU:131    0
hydroph_interaction:LEU:131    0
Name: 98, dtype: object

>  <hbond:LEU:131>  (100) 
hbond:LEU:131    0
hbond:LEU:131    0
Name: 98, dtype: object

>  <halogenbond:LEU:131>  (100) 
halogenbond:LEU:131    0
halogenbond:LEU:131    0
Name: 98, dtype: object

>  <hbond:VAL:132>  (100) 
hbond:VAL:132    0
hbond:VAL:132    0
Name: 98, dtype: object

$$$$
Z5058629705
     RDKit          3D

 17 19  0  0  0  0  0  0  0  0999 V2000
   32.3348   14.2471    9.2742 C   0  0  0  0  0  0  0  0  0  0  0  0
   30.8760   14.0143    9.0396 C   0  0  0  0  0  0  0  0  0  0  0  0
   30.3082   12.9630    8.4644 C   0  0  0  0  0  0  0  0  0  0  0  0
   30.8881   11.7491    7.9585 C   0  0  0  0  0  0  0  0  0  0  0  0
   30.4240   10.6194    8.4806 N   0  0  0  0  0  0  0  0  0  0  0  0
   31.1022    9.6576    7.9011 N   0  0  0  0  0  0  0  0  0  0  0  0
   30.8002    8.3239    8.3025 C   0  0  0  0  0  0  0  0  0  0  0  0
   32.0171   10.0809    6.9878 C   0  0  0  0  0  0  0  0  0  0  0  0
   32.9212    9.4071    6.1774 C   0  0  0  0  0  0  0  0  0  0  0  0
   33.7125   10.1831    5.3543 C   0  0  0  0  0  0  0  0  0  0  0  0
   33.5577   11.5583    5.3852 C   0  0  0  0  0  0  0  0  0  0  0  0
   32.6840   12.2427    6.1670 N   0  0  0  0  0  0  0  0  0  0  0  0
   31.9089   11.4703    6.9800 C   0  0  0  0  0  0  0  0  0  0  0  0
   28.8175   12.9911    8.3367 C   0  0  0  0  0  0  0  0  0  0  0  0
   28.3344   14.2411    7.7537 N   0  0  0  0  0  0  0  0  0  0  0  0
   28.6435   15.3271    8.6852 C   0  0  0  0  0  0  0  0  0  0  0  0
   29.9162   15.0718    9.5456 C   0  0  0  0  0  0  0  0  0  0  0  0
  1  2  1  0
  2  3  2  0
  3  4  1  0
  4  5  2  0
  5  6  1  0
  6  7  1  0
  6  8  1  0
  8  9  2  0
  9 10  1  0
 10 11  2  0
 11 12  1  0
 12 13  2  0
  3 14  1  0
 14 15  1  0
 15 16  1  0
 16 17  1  0
 17  2  1  0
 13  4  1  0
 13  8  1  0
A    1
 C1 
A    2
 C2 
A    3
 C3 
A    4
 C4 
A    5
 N1 
A    6
 N2 
A    7
 C5 
A    8
 C6 
A    9
 C7 
A   10
 C8 
A   11
 C9 
A   12
 N3 
A   13
 C10
A   14
 C11
A   15
 N4 
A   16
 C12
A   17
 C13
M  END
>  <ref_pdb>  (101) 
Ax0310a

>  <ref_mols>  (101) 
Ax0451a,Ax0812a

>  <original SMILES>  (101) 
CC1=C(c2nn(C)c3cccnc23)CNCC1

>  <rationale>  (101) 
info hbond:E88+S87; hydroph_interaction:Y90+T126+V84; 

>  <intxn_cluster_10>  (101) 
0

>  <intxn_cluster_rank_10>  (101) 
24

>  <N_interactions>  (101) 
5

>  <∆∆G>  (101) 
-8.688542

>  <$/mg>  (101) 
0.0

>  <comRMSD>  (101) 
0.7834

>  <N_rotatable_bonds>  (101) 
3

>  <deep_P1_sidechain>  (101) 
False

>  <farthest_distance_to_substrate>  (101) 
2.557432

>  <hbond:SER:7>  (101) 
hbond:SER:7    0
hbond:SER:7    0
Name: 99, dtype: object

>  <hydroph_interaction:ASN:19>  (101) 
hydroph_interaction:ASN:19    0
hydroph_interaction:ASN:19    0
Name: 99, dtype: object

>  <halogenbond:ASN:19>  (101) 
halogenbond:ASN:19    0
halogenbond:ASN:19    0
Name: 99, dtype: object

>  <hbond:ARG:20>  (101) 
hbond:ARG:20    0
hbond:ARG:20    0
Name: 99, dtype: object

>  <hydroph_interaction:ARG:20>  (101) 
hydroph_interaction:ARG:20    0
hydroph_interaction:ARG:20    0
Name: 99, dtype: object

>  <hbond:HIS:21>  (101) 
hbond:HIS:21    0
hbond:HIS:21    0
Name: 99, dtype: object

>  <hydroph_interaction:HIS:21>  (101) 
hydroph_interaction:HIS:21    0
hydroph_interaction:HIS:21    0
Name: 99, dtype: object

>  <saltbridge:HIS:21>  (101) 
saltbridge:HIS:21    0
saltbridge:HIS:21    0
Name: 99, dtype: object

>  <pistack:HIS:21>  (101) 
pistack:HIS:21    0
pistack:HIS:21    0
Name: 99, dtype: object

>  <pication:HIS:21>  (101) 
pication:HIS:21    0
pication:HIS:21    0
Name: 99, dtype: object

>  <hydroph_interaction:LEU:22>  (101) 
hydroph_interaction:LEU:22    0
hydroph_interaction:LEU:22    0
Name: 99, dtype: object

>  <hbond:SER:36>  (101) 
hbond:SER:36    0
hbond:SER:36    0
Name: 99, dtype: object

>  <hbond:ASP:39>  (101) 
hbond:ASP:39    0
hbond:ASP:39    0
Name: 99, dtype: object

>  <saltbridge:ASP:39>  (101) 
saltbridge:ASP:39    0
saltbridge:ASP:39    0
Name: 99, dtype: object

>  <hydroph_interaction:ASP:39>  (101) 
hydroph_interaction:ASP:39    0
hydroph_interaction:ASP:39    0
Name: 99, dtype: object

>  <halogenbond:ASP:39>  (101) 
halogenbond:ASP:39    0
halogenbond:ASP:39    0
Name: 99, dtype: object

>  <hydroph_interaction:ILE:82>  (101) 
hydroph_interaction:ILE:82    0
hydroph_interaction:ILE:82    0
Name: 99, dtype: object

>  <hydroph_interaction:PHE:83>  (101) 
hydroph_interaction:PHE:83    0
hydroph_interaction:PHE:83    0
Name: 99, dtype: object

>  <hbond:PHE:83>  (101) 
hbond:PHE:83    0
hbond:PHE:83    0
Name: 99, dtype: object

>  <halogenbond:PHE:83>  (101) 
halogenbond:PHE:83    0
halogenbond:PHE:83    0
Name: 99, dtype: object

>  <hydroph_interaction:VAL:84>  (101) 
hydroph_interaction:VAL:84    1
hydroph_interaction:VAL:84    1
Name: 99, dtype: object

>  <hydroph_interaction:GLU:85>  (101) 
hydroph_interaction:GLU:85    0
hydroph_interaction:GLU:85    0
Name: 99, dtype: object

>  <hbond:GLU:85>  (101) 
hbond:GLU:85    0
hbond:GLU:85    0
Name: 99, dtype: object

>  <halogenbond:GLU:85>  (101) 
halogenbond:GLU:85    0
halogenbond:GLU:85    0
Name: 99, dtype: object

>  <halogenbond:ALA:86>  (101) 
halogenbond:ALA:86    0
halogenbond:ALA:86    0
Name: 99, dtype: object

>  <hbond:SER:87>  (101) 
hbond:SER:87    1
hbond:SER:87    1
Name: 99, dtype: object

>  <halogenbond:SER:87>  (101) 
halogenbond:SER:87    0
halogenbond:SER:87    0
Name: 99, dtype: object

>  <hbond:GLU:88>  (101) 
hbond:GLU:88    1
hbond:GLU:88    1
Name: 99, dtype: object

>  <halogenbond:GLU:88>  (101) 
halogenbond:GLU:88    0
halogenbond:GLU:88    0
Name: 99, dtype: object

>  <hydroph_interaction:TYR:89>  (101) 
hydroph_interaction:TYR:89    0
hydroph_interaction:TYR:89    0
Name: 99, dtype: object

>  <pistack:TYR:89>  (101) 
pistack:TYR:89    0
pistack:TYR:89    0
Name: 99, dtype: object

>  <hbond:TYR:89>  (101) 
hbond:TYR:89    0
hbond:TYR:89    0
Name: 99, dtype: object

>  <hbond:TYR:90>  (101) 
hbond:TYR:90    0
hbond:TYR:90    0
Name: 99, dtype: object

>  <hydroph_interaction:TYR:90>  (101) 
hydroph_interaction:TYR:90    1
hydroph_interaction:TYR:90    1
Name: 99, dtype: object

>  <pistack:TYR:90>  (101) 
pistack:TYR:90    0
pistack:TYR:90    0
Name: 99, dtype: object

>  <hbond:ARG:93>  (101) 
hbond:ARG:93    0
hbond:ARG:93    0
Name: 99, dtype: object

>  <saltbridge:ARG:93>  (101) 
saltbridge:ARG:93    0
saltbridge:ARG:93    0
Name: 99, dtype: object

>  <hydroph_interaction:ARG:93>  (101) 
hydroph_interaction:ARG:93    0
hydroph_interaction:ARG:93    0
Name: 99, dtype: object

>  <halogenbond:GLN:95>  (101) 
halogenbond:GLN:95    0
halogenbond:GLN:95    0
Name: 99, dtype: object

>  <hbond:GLN:95>  (101) 
hbond:GLN:95    0
hbond:GLN:95    0
Name: 99, dtype: object

>  <hydroph_interaction:GLN:95>  (101) 
hydroph_interaction:GLN:95    0
hydroph_interaction:GLN:95    0
Name: 99, dtype: object

>  <hydroph_interaction:LEU:98>  (101) 
hydroph_interaction:LEU:98    0
hydroph_interaction:LEU:98    0
Name: 99, dtype: object

>  <hydroph_interaction:LEU:100>  (101) 
hydroph_interaction:LEU:100    0
hydroph_interaction:LEU:100    0
Name: 99, dtype: object

>  <hbond:SER:105>  (101) 
hbond:SER:105    0
hbond:SER:105    0
Name: 99, dtype: object

>  <halogenbond:SER:105>  (101) 
halogenbond:SER:105    0
halogenbond:SER:105    0
Name: 99, dtype: object

>  <hydroph_interaction:PRO:107>  (101) 
hydroph_interaction:PRO:107    0
hydroph_interaction:PRO:107    0
Name: 99, dtype: object

>  <hbond:PRO:107>  (101) 
hbond:PRO:107    0
hbond:PRO:107    0
Name: 99, dtype: object

>  <halogenbond:PRO:107>  (101) 
halogenbond:PRO:107    0
halogenbond:PRO:107    0
Name: 99, dtype: object

>  <hbond:ASP:109>  (101) 
hbond:ASP:109    0
hbond:ASP:109    0
Name: 99, dtype: object

>  <hbond:CYS:110>  (101) 
hbond:CYS:110    0
hbond:CYS:110    0
Name: 99, dtype: object

>  <halogenbond:CYS:110>  (101) 
halogenbond:CYS:110    0
halogenbond:CYS:110    0
Name: 99, dtype: object

>  <hydroph_interaction:VAL:124>  (101) 
hydroph_interaction:VAL:124    0
hydroph_interaction:VAL:124    0
Name: 99, dtype: object

>  <hbond:SER:125>  (101) 
hbond:SER:125    0
hbond:SER:125    0
Name: 99, dtype: object

>  <halogenbond:SER:125>  (101) 
halogenbond:SER:125    0
halogenbond:SER:125    0
Name: 99, dtype: object

>  <hydroph_interaction:THR:126>  (101) 
hydroph_interaction:THR:126    1
hydroph_interaction:THR:126    1
Name: 99, dtype: object

>  <hbond:THR:126>  (101) 
hbond:THR:126    0
hbond:THR:126    0
Name: 99, dtype: object

>  <halogenbond:THR:126>  (101) 
halogenbond:THR:126    0
halogenbond:THR:126    0
Name: 99, dtype: object

>  <hbond:GLY:127>  (101) 
hbond:GLY:127    0
hbond:GLY:127    0
Name: 99, dtype: object

>  <halogenbond:GLY:127>  (101) 
halogenbond:GLY:127    0
halogenbond:GLY:127    0
Name: 99, dtype: object

>  <hbond:GLY:128>  (101) 
hbond:GLY:128    0
hbond:GLY:128    0
Name: 99, dtype: object

>  <hbond:ASN:129>  (101) 
hbond:ASN:129    0
hbond:ASN:129    0
Name: 99, dtype: object

>  <hydroph_interaction:ASN:129>  (101) 
hydroph_interaction:ASN:129    0
hydroph_interaction:ASN:129    0
Name: 99, dtype: object

>  <halogenbond:ASN:129>  (101) 
halogenbond:ASN:129    0
halogenbond:ASN:129    0
Name: 99, dtype: object

>  <hydroph_interaction:LEU:131>  (101) 
hydroph_interaction:LEU:131    0
hydroph_interaction:LEU:131    0
Name: 99, dtype: object

>  <hbond:LEU:131>  (101) 
hbond:LEU:131    0
hbond:LEU:131    0
Name: 99, dtype: object

>  <halogenbond:LEU:131>  (101) 
halogenbond:LEU:131    0
halogenbond:LEU:131    0
Name: 99, dtype: object

>  <hbond:VAL:132>  (101) 
hbond:VAL:132    0
hbond:VAL:132    0
Name: 99, dtype: object

$$$$
