x1140
  PyMOL2.5          3D                             0

  1  0  0  0  0  0  0  0  0  0999 V2000
   11.1273    8.9604   22.5188 Cl  0  0  0  0  0  0  0  0  0  0  0  0
M  END
>  <pdb_header>
HEADER    ----                                    15-JAN-24   xxxx              
TITLE     ---                                                                   
COMPND    ---
REMARK   3
REMARK   3 REFINEMENT.
REMARK   3   PROGRAM     : REFMAC 5.8.0267   
REMARK   3   AUTHORS     : MURSHUDOV,SKUBAK,LEBEDEV,PANNU,
REMARK   3                 STEINER,NICHOLLS,WINN,LONG,VAGIN
REMARK   3
REMARK   3    REFINEMENT TARGET : MAXIMUM LIKELIHOOD
REMARK   3
REMARK   3  DATA USED IN REFINEMENT.
REMARK   3   RESOLUTION RANGE HIGH (ANGSTROMS) :   1.52
REMARK   3   RESOLUTION RANGE LOW  (ANGSTROMS) :  46.60
REMARK   3   DATA CUTOFF            (SIGMA(F)) : NONE
REMARK   3   COMPLETENESS FOR RANGE        (%) :  98.80
REMARK   3   NUMBER OF REFLECTIONS             :   20412
REMARK   3
REMARK   3  FIT TO DATA USED IN REFINEMENT.
REMARK   3   CROSS-VALIDATION METHOD          : THROUGHOUT
REMARK   3   FREE R VALUE TEST SET SELECTION  : RANDOM
REMARK   3   R VALUE     (WORKING + TEST SET) : 0.22621
REMARK   3   R VALUE            (WORKING SET) :  0.22451
REMARK   3   FREE R VALUE                     :  0.26473
REMARK   3   FREE R VALUE TEST SET SIZE   (%) :  4.7
REMARK   3   FREE R VALUE TEST SET COUNT      :  1014
REMARK   3
REMARK   3  FIT IN THE HIGHEST RESOLUTION BIN.
REMARK   3   TOTAL NUMBER OF BINS USED           :      20
REMARK   3   BIN RESOLUTION RANGE HIGH           :    1.520
REMARK   3   BIN RESOLUTION RANGE LOW            :    1.560
REMARK   3   REFLECTION IN BIN     (WORKING SET) :     1441
REMARK   3   BIN COMPLETENESS (WORKING+TEST) (%) :    94.92
REMARK   3   BIN R VALUE           (WORKING SET) :    0.342
REMARK   3   BIN FREE R VALUE SET COUNT          :       72
REMARK   3   BIN FREE R VALUE                    :    0.441
REMARK   3
REMARK   3  NUMBER OF NON-HYDROGEN ATOMS USED IN REFINEMENT.
REMARK   3   ALL ATOMS                :     1888
REMARK   3
REMARK   3  B VALUES.
REMARK   3   FROM WILSON PLOT           (A**2) : NULL
REMARK   3   MEAN B VALUE      (OVERALL, A**2) :  32.392
REMARK   3   OVERALL ANISOTROPIC B VALUE.
REMARK   3    B11 (A**2) :     0.82
REMARK   3    B22 (A**2) :     0.19
REMARK   3    B33 (A**2) :    -0.98
REMARK   3    B12 (A**2) :    -0.00
REMARK   3    B13 (A**2) :    -0.17
REMARK   3    B23 (A**2) :     0.00
REMARK   3
REMARK   3  ESTIMATED OVERALL COORDINATE ERROR.
REMARK   3   ESU BASED ON R VALUE                            (A):   0.133
REMARK   3   ESU BASED ON FREE R VALUE                       (A):   0.125
REMARK   3   ESU BASED ON MAXIMUM LIKELIHOOD                 (A):   0.124
REMARK   3   ESU FOR B VALUES BASED ON MAXIMUM LIKELIHOOD (A**2):   3.683
REMARK   3
REMARK   3 CORRELATION COEFFICIENTS.
REMARK   3   CORRELATION COEFFICIENT FO-FC      :   0.941
REMARK   3   CORRELATION COEFFICIENT FO-FC FREE :   0.932
REMARK   3
REMARK   3  RMS DEVIATIONS FROM IDEAL VALUES        COUNT    RMS    WEIGHT
REMARK   3   BOND LENGTHS REFINED ATOMS        (A):  2366 ; 0.008 ; 0.014
REMARK   3   BOND LENGTHS OTHERS               (A):  1572 ; 0.001 ; 0.015
REMARK   3   BOND ANGLES REFINED ATOMS   (DEGREES):  2510 ; 1.456 ; 1.628
REMARK   3   BOND ANGLES OTHERS          (DEGREES):  3630 ; 1.293 ; 1.596
REMARK   3   TORSION ANGLES, PERIOD 1    (DEGREES):   231 ; 6.784 ; 5.000
REMARK   3   TORSION ANGLES, PERIOD 2    (DEGREES):   103 ;31.967 ;21.650
REMARK   3   TORSION ANGLES, PERIOD 3    (DEGREES):   251 ;17.548 ;15.000
REMARK   3   TORSION ANGLES, PERIOD 4    (DEGREES):    12 ;22.507 ;15.000
REMARK   3   CHIRAL-CENTER RESTRAINTS       (A**3):   213 ; 0.066 ; 0.200
REMARK   3   GENERAL PLANES REFINED ATOMS      (A):  2251 ; 0.007 ; 0.020
REMARK   3   GENERAL PLANES OTHERS             (A):   453 ; 0.002 ; 0.020
REMARK   3
REMARK   3  ISOTROPIC THERMAL FACTOR RESTRAINTS.     COUNT   RMS    WEIGHT
REMARK   3   MAIN-CHAIN BOND REFINED ATOMS  (A**2):  1158 ; 1.903 ; 3.263
REMARK   3   MAIN-CHAIN BOND OTHER ATOMS    (A**2):  1118 ; 1.919 ; 3.222
REMARK   3   MAIN-CHAIN ANGLE REFINED ATOMS (A**2):  1127 ; 3.692 ; 4.574
REMARK   3   MAIN-CHAIN ANGLE OTHER ATOMS (A**2)  :  1128 ; 3.691 ; 4.572
REMARK   3   SIDE-CHAIN BOND REFINED ATOMS  (A**2):  1206 ; 1.781 ; 3.881
REMARK   3   SIDE-CHAIN BOND OTHER ATOMS  (A**2)  :  1196 ; 1.786 ; 3.827
REMARK   3   SIDE-CHAIN ANGLE OTHER ATOMS (A**2)  :  1372 ; 3.134 ; 5.302
REMARK   3   LONG RANGE B REFINED ATOMS (A**2)    :  2102 ; 7.707 ;36.965
REMARK   3   LONG RANGE B OTHER ATOMS (A**2)      :  2081 ; 7.652 ;36.906
REMARK   3
REMARK   3  NCS RESTRAINTS STATISTICS
REMARK   3   NUMBER OF NCS GROUPS : NULL
REMARK   3
REMARK   3  TWIN DETAILS
REMARK   3   NUMBER OF TWIN DOMAINS  : NULL
REMARK   3
REMARK   3
REMARK   3  TLS DETAILS
REMARK   3   NUMBER OF TLS GROUPS  : NULL
REMARK   3
REMARK   3
REMARK   3  BULK SOLVENT MODELLING.
REMARK   3   METHOD USED :  MASK
REMARK   3   PARAMETERS FOR MASK CALCULATION
REMARK   3   VDW PROBE RADIUS   :   1.20
REMARK   3   ION PROBE RADIUS   :   0.80
REMARK   3   SHRINKAGE RADIUS   :   0.80
REMARK   3
REMARK   3  OTHER REFINEMENT REMARKS:
REMARK   3  HYDROGENS HAVE BEEN ADDED IN THE RIDING POSITIONS
REMARK   3  U VALUES      : REFINED INDIVIDUALLY
REMARK   3
CRYST1   72.261   61.032   32.428  90.00  93.20  90.00 C 1 2 1                  
SCALE1      0.013839  0.000000  0.000774        0.00000                         
SCALE2     -0.000000  0.016385  0.000000        0.00000                         
SCALE3      0.000000 -0.000000  0.030886        0.00000                         


$$$$
