untitled-dbase-1782_3
  -OEChem-02092407103D

 32 34  0     1  0  0  0  0  0999 V2000
    9.3802   10.2628   22.5635 C   0  0  0  0  0  0  0  0  0  0  0  0
   10.3269   11.3827   24.6012 C   0  0  0  0  0  0  0  0  0  0  0  0
    8.1679   10.1046   24.7563 C   0  0  0  0  0  0  0  0  0  0  0  0
    9.3806   12.7643   22.7768 C   0  0  0  0  0  0  0  0  0  0  0  0
    7.2175   11.4837   22.9321 C   0  0  0  0  0  0  0  0  0  0  0  0
   10.1691   11.4820   23.0779 C   0  0  2  0  0  0  0  0  0  0  0  0
    7.9948   10.1947   23.2341 C   0  0  1  0  0  0  0  0  0  0  0  0
    8.9362   11.3375   25.2414 C   0  0  0  0  0  0  0  0  0  0  0  0
    8.0089   12.6891   23.4724 C   0  0  0  0  0  0  0  0  0  0  0  0
    7.2276   13.9836   23.2631 C   0  0  0  0  0  0  0  0  0  0  0  0
    6.0879   15.6215   21.5111 N   0  0  0  0  0  0  0  0  0  0  0  0
    8.6503   15.4173   21.6055 O   0  0  0  0  0  0  0  0  0  0  0  0
    7.2846   13.4951   20.6968 O   0  0  0  0  0  0  0  0  0  0  0  0
    8.2066   12.5276   24.8927 O   0  0  0  0  0  0  0  0  0  0  0  0
    7.4480   14.5986   21.6307 S   0  0  0  0  0  0  0  0  0  0  0  0
    9.2633   10.3280   21.4747 H   0  0  0  0  0  0  0  0  0  0  0  0
    9.9399    9.3425   22.7710 H   0  0  0  0  0  0  0  0  0  0  0  0
   10.9047   10.4910   24.8706 H   0  0  0  0  0  0  0  0  0  0  0  0
   10.8761   12.2582   24.9683 H   0  0  0  0  0  0  0  0  0  0  0  0
    7.1811   10.0708   25.2338 H   0  0  0  0  0  0  0  0  0  0  0  0
    8.7006    9.1862   25.0290 H   0  0  0  0  0  0  0  0  0  0  0  0
    9.9466   13.6275   23.1497 H   0  0  0  0  0  0  0  0  0  0  0  0
    9.2619   12.8926   21.6939 H   0  0  0  0  0  0  0  0  0  0  0  0
    7.0472   11.5814   21.8530 H   0  0  0  0  0  0  0  0  0  0  0  0
    6.2341   11.4296   23.4163 H   0  0  0  0  0  0  0  0  0  0  0  0
   11.1528   11.5222   22.5979 H   0  0  0  0  0  0  0  0  0  0  0  0
    7.4413    9.3247   22.8645 H   0  0  0  0  0  0  0  0  0  0  0  0
    9.0286   11.3138   26.3321 H   0  0  0  0  0  0  0  0  0  0  0  0
    7.5736   14.7492   23.9553 H   0  0  0  0  0  0  0  0  0  0  0  0
    6.1634   13.8101   23.4113 H   0  0  0  0  0  0  0  0  0  0  0  0
    5.1629   15.1795   21.4436 H   0  0  0  0  0  0  0  0  0  0  0  0
    6.0932   16.4886   22.0623 H   0  0  0  0  0  0  0  0  0  0  0  0
  1  6  1  0  0  0  0
  1  7  1  0  0  0  0
  2  6  1  0  0  0  0
  2  8  1  0  0  0  0
  3  7  1  0  0  0  0
  3  8  1  0  0  0  0
  4  6  1  0  0  0  0
  4  9  1  0  0  0  0
  5  7  1  0  0  0  0
  5  9  1  0  0  0  0
  8 14  1  0  0  0  0
  9 10  1  0  0  0  0
  9 14  1  0  0  0  0
 10 15  1  0  0  0  0
 11 15  1  0  0  0  0
 12 15  2  0  0  0  0
 13 15  2  0  0  0  0
  1 16  1  0  0  0  0
  1 17  1  0  0  0  0
  2 18  1  0  0  0  0
  2 19  1  0  0  0  0
  3 20  1  0  0  0  0
  3 21  1  0  0  0  0
  4 22  1  0  0  0  0
  4 23  1  0  0  0  0
  5 24  1  0  0  0  0
  5 25  1  0  0  0  0
  6 26  1  0  0  0  0
  7 27  1  0  0  0  0
  8 28  1  0  0  0  0
 10 29  1  0  0  0  0
 10 30  1  0  0  0  0
 11 31  1  0  0  0  0
 11 32  1  0  0  0  0
M  END
> <Mol Weight>
231,31

> <Formula>
C10H17NO3S

> <ID>
EN300-6729883

> <name>
Sulfonamides

> <LogP>
-0,02

> <ROCS_ShapeQuery>
x0310_0A_x0719_0A_x1080_0A_x0739_0A_x0929_0A_x0526_0A_x0911_0A

> <ROCS_TanimotoCombo>
0.441 

> <ROCS_ShapeTanimoto>
0.182 

> <ROCS_ColorTanimoto>
0.259 

> <ROCS_RefTversky>
0.174 

> <ROCS_RefColorTversky>
0.287 

> <ROCS_RefTverskyCombo>
0.461 

> <ROCS_FitTversky>
1.329 

> <ROCS_FitColorTversky>
0.727 

> <ROCS_FitTverskyCombo>
2.056 

> <ROCS_ColorScore>
-8.410

> <ROCS_Overlap>
1392.179

> <ROCS_Rank>
1                   

$$$$
untitled-dbase-2768_107
  -OEChem-02092407103D

 32 33  0     0  0  0  0  0  0999 V2000
    9.1750   10.9236   25.1161 C   0  0  0  0  0  0  0  0  0  0  0  0
    9.0348   12.2366   24.6668 C   0  0  0  0  0  0  0  0  0  0  0  0
    9.0349    9.8618   24.2223 C   0  0  0  0  0  0  0  0  0  0  0  0
    4.5523   11.3402   18.4296 C   0  0  0  0  0  0  0  0  0  0  0  0
    4.1664   12.6892   20.3964 C   0  0  0  0  0  0  0  0  0  0  0  0
    8.7545   12.4880   23.3238 C   0  0  0  0  0  0  0  0  0  0  0  0
    8.7546   10.1132   22.8792 C   0  0  0  0  0  0  0  0  0  0  0  0
    3.2643   11.6290   17.9788 C   0  0  0  0  0  0  0  0  0  0  0  0
    2.8785   12.9782   19.9455 C   0  0  0  0  0  0  0  0  0  0  0  0
    5.0033   11.8702   19.6385 C   0  0  0  0  0  0  0  0  0  0  0  0
    8.6144   11.4263   22.4299 C   0  0  0  0  0  0  0  0  0  0  0  0
    2.4274   12.4480   18.7367 C   0  0  0  0  0  0  0  0  0  0  0  0
    7.1334   12.3653   20.8753 C   0  0  0  0  0  0  0  0  0  0  0  0
   -0.0708   11.5294   18.8770 N   0  0  0  0  0  0  0  0  0  0  0  0
    6.2916   11.5812   20.0894 N   0  0  0  0  0  0  0  0  0  0  0  0
    6.8965   13.4796   21.3277 O   0  0  0  0  0  0  0  0  0  0  0  0
    0.3878   14.0641   18.7755 O   0  0  0  0  0  0  0  0  0  0  0  0
    0.7864   12.6560   16.7246 O   0  0  0  0  0  0  0  0  0  0  0  0
    8.3317   11.6777   21.0833 O   0  0  0  0  0  0  0  0  0  0  0  0
    0.8151   12.8094   18.1725 S   0  0  0  0  0  0  0  0  0  0  0  0
    9.3938   10.7275   26.1617 H   0  0  0  0  0  0  0  0  0  0  0  0
    9.1437   13.0634   25.3627 H   0  0  0  0  0  0  0  0  0  0  0  0
    9.1444    8.8396   24.5729 H   0  0  0  0  0  0  0  0  0  0  0  0
    5.1958   10.7006   17.8308 H   0  0  0  0  0  0  0  0  0  0  0  0
    4.5074   13.1079   21.3399 H   0  0  0  0  0  0  0  0  0  0  0  0
    8.6451   13.5131   22.9804 H   0  0  0  0  0  0  0  0  0  0  0  0
    8.6448    9.2822   22.1878 H   0  0  0  0  0  0  0  0  0  0  0  0
    2.9229   11.2107   17.0357 H   0  0  0  0  0  0  0  0  0  0  0  0
    2.2347   13.6174   20.5438 H   0  0  0  0  0  0  0  0  0  0  0  0
   -0.6989   11.7512   19.6591 H   0  0  0  0  0  0  0  0  0  0  0  0
   -0.4241   10.7897   18.2579 H   0  0  0  0  0  0  0  0  0  0  0  0
    6.6688   10.6713   19.8047 H   0  0  0  0  0  0  0  0  0  0  0  0
  1  2  1  0  0  0  0
  1  3  2  0  0  0  0
  2  6  2  0  0  0  0
  3  7  1  0  0  0  0
  4  8  2  0  0  0  0
  4 10  1  0  0  0  0
  5  9  1  0  0  0  0
  5 10  2  0  0  0  0
  6 11  1  0  0  0  0
  7 11  2  0  0  0  0
  8 12  1  0  0  0  0
  9 12  2  0  0  0  0
 10 15  1  0  0  0  0
 11 19  1  0  0  0  0
 12 20  1  0  0  0  0
 13 15  1  0  0  0  0
 13 16  2  0  0  0  0
 13 19  1  0  0  0  0
 14 20  1  0  0  0  0
 17 20  2  0  0  0  0
 18 20  2  0  0  0  0
  1 21  1  0  0  0  0
  2 22  1  0  0  0  0
  3 23  1  0  0  0  0
  4 24  1  0  0  0  0
  5 25  1  0  0  0  0
  6 26  1  0  0  0  0
  7 27  1  0  0  0  0
  8 28  1  0  0  0  0
  9 29  1  0  0  0  0
 14 30  1  0  0  0  0
 14 31  1  0  0  0  0
 15 32  1  0  0  0  0
M  END
> <Mol Weight>
292,31

> <Formula>
C13H12N2O4S

> <ID>
EN300-27862

> <name>
Sulfonamides

> <LogP>
2,09

> <ROCS_ShapeQuery>
x0310_0A_x0719_0A_x1080_0A_x0739_0A_x0929_0A_x0526_0A_x0911_0A

> <ROCS_TanimotoCombo>
0.431 

> <ROCS_ShapeTanimoto>
0.250 

> <ROCS_ColorTanimoto>
0.181 

> <ROCS_RefTversky>
0.231 

> <ROCS_RefColorTversky>
0.196 

> <ROCS_RefTverskyCombo>
0.427 

> <ROCS_FitTversky>
1.479 

> <ROCS_FitColorTversky>
0.700 

> <ROCS_FitTverskyCombo>
2.178 

> <ROCS_ColorScore>
-5.714

> <ROCS_Overlap>
1854.572

> <ROCS_Rank>
2                   

$$$$
untitled-dbase-2829_3451
  -OEChem-02092407103D

 38 39  0     1  0  0  0  0  0999 V2000
    2.8634   11.3300   18.1604 C   0  0  0  0  0  0  0  0  0  0  0  0
    2.7112   12.6342   18.6310 C   0  0  0  0  0  0  0  0  0  0  0  0
    3.6097   10.4068   18.8929 C   0  0  0  0  0  0  0  0  0  0  0  0
    3.3053   13.0153   19.8341 C   0  0  0  0  0  0  0  0  0  0  0  0
    4.2038   10.7879   20.0960 C   0  0  0  0  0  0  0  0  0  0  0  0
    4.0516   12.0921   20.5666 C   0  0  0  0  0  0  0  0  0  0  0  0
    7.0477   12.4496   22.1562 C   0  0  0  0  0  0  0  0  0  0  0  0
    9.1593   10.1720   24.1852 C   0  0  0  0  0  0  0  0  0  0  0  0
   10.0362   11.4123   24.0370 C   0  0  0  0  0  0  0  0  0  0  0  0
    8.0904   10.3665   23.1221 C   0  0  0  0  0  0  0  0  0  0  0  0
    9.0434   12.5183   23.6729 C   0  0  2  0  0  0  0  0  0  0  0  0
    4.6911   12.5015   21.8608 C   0  0  0  0  0  0  0  0  0  0  0  0
    8.5004   13.2322   24.9091 C   0  0  0  0  0  0  0  0  0  0  0  0
    7.9817   11.8111   22.9578 N   0  0  0  0  0  0  0  0  0  0  0  0
    7.8850   15.5609   26.0270 N   0  0  0  0  0  0  0  0  0  0  0  0
    7.2360   13.5278   21.5975 O   0  0  0  0  0  0  0  0  0  0  0  0
    8.8136   15.4885   23.6292 O   0  0  0  0  0  0  0  0  0  0  0  0
    6.4712   14.6537   24.0788 O   0  0  0  0  0  0  0  0  0  0  0  0
    5.8843   11.7341   22.0559 O   0  0  0  0  0  0  0  0  0  0  0  0
    7.8566   14.8142   24.4931 S   0  0  0  0  0  0  0  0  0  0  0  0
    2.3997   11.0330   17.2242 H   0  0  0  0  0  0  0  0  0  0  0  0
    2.1293   13.3528   18.0613 H   0  0  0  0  0  0  0  0  0  0  0  0
    3.7275    9.3910   18.5273 H   0  0  0  0  0  0  0  0  0  0  0  0
    3.1815   14.0337   20.1929 H   0  0  0  0  0  0  0  0  0  0  0  0
    4.7835   10.0620   20.6599 H   0  0  0  0  0  0  0  0  0  0  0  0
    9.7243    9.2462   24.0450 H   0  0  0  0  0  0  0  0  0  0  0  0
    8.7029   10.1491   25.1815 H   0  0  0  0  0  0  0  0  0  0  0  0
   10.6108   11.6212   24.9444 H   0  0  0  0  0  0  0  0  0  0  0  0
   10.7433   11.2626   23.2118 H   0  0  0  0  0  0  0  0  0  0  0  0
    8.3986    9.9428   22.1599 H   0  0  0  0  0  0  0  0  0  0  0  0
    7.1252    9.9359   23.4048 H   0  0  0  0  0  0  0  0  0  0  0  0
    9.5004   13.2576   23.0055 H   0  0  0  0  0  0  0  0  0  0  0  0
    4.9488   13.5661   21.8510 H   0  0  0  0  0  0  0  0  0  0  0  0
    4.0108   12.3278   22.7015 H   0  0  0  0  0  0  0  0  0  0  0  0
    9.2946   13.3782   25.6387 H   0  0  0  0  0  0  0  0  0  0  0  0
    7.6948   12.6525   25.3551 H   0  0  0  0  0  0  0  0  0  0  0  0
    7.2063   15.2379   26.7274 H   0  0  0  0  0  0  0  0  0  0  0  0
    8.8015   15.8065   26.4210 H   0  0  0  0  0  0  0  0  0  0  0  0
  1  2  1  0  0  0  0
  1  3  2  0  0  0  0
  2  4  2  0  0  0  0
  3  5  1  0  0  0  0
  4  6  1  0  0  0  0
  5  6  2  0  0  0  0
  6 12  1  0  0  0  0
  7 14  1  0  0  0  0
  7 16  2  0  0  0  0
  7 19  1  0  0  0  0
  8  9  1  0  0  0  0
  8 10  1  0  0  0  0
  9 11  1  0  0  0  0
 10 14  1  0  0  0  0
 11 13  1  0  0  0  0
 11 14  1  0  0  0  0
 12 19  1  0  0  0  0
 13 20  1  0  0  0  0
 15 20  1  0  0  0  0
 17 20  2  0  0  0  0
 18 20  2  0  0  0  0
  1 21  1  0  0  0  0
  2 22  1  0  0  0  0
  3 23  1  0  0  0  0
  4 24  1  0  0  0  0
  5 25  1  0  0  0  0
  8 26  1  0  0  0  0
  8 27  1  0  0  0  0
  9 28  1  0  0  0  0
  9 29  1  0  0  0  0
 10 30  1  0  0  0  0
 10 31  1  0  0  0  0
 11 32  1  0  0  0  0
 12 33  1  0  0  0  0
 12 34  1  0  0  0  0
 13 35  1  0  0  0  0
 13 36  1  0  0  0  0
 15 37  1  0  0  0  0
 15 38  1  0  0  0  0
M  END
> <Mol Weight>
298,36

> <Formula>
C13H18N2O4S

> <ID>
EN300-349369

> <name>
Sulfonamides

> <LogP>
0,67

> <ROCS_ShapeQuery>
x0310_0A_x0719_0A_x1080_0A_x0739_0A_x0929_0A_x0526_0A_x0911_0A

> <ROCS_TanimotoCombo>
0.427 

> <ROCS_ShapeTanimoto>
0.254 

> <ROCS_ColorTanimoto>
0.173 

> <ROCS_RefTversky>
0.234 

> <ROCS_RefColorTversky>
0.184 

> <ROCS_RefTverskyCombo>
0.418 

> <ROCS_FitTversky>
1.519 

> <ROCS_FitColorTversky>
0.743 

> <ROCS_FitTverskyCombo>
2.261 

> <ROCS_ColorScore>
-5.359

> <ROCS_Overlap>
1876.014

> <ROCS_Rank>
3                   

$$$$
untitled-dbase-2787_86
  -OEChem-02092407103D

 31 32  0     0  0  0  0  0  0999 V2000
    9.1971    9.8470   23.1428 C   0  0  0  0  0  0  0  0  0  0  0  0
    9.8615   10.5500   24.1477 C   0  0  0  0  0  0  0  0  0  0  0  0
    8.1656   10.4576   22.4295 C   0  0  0  0  0  0  0  0  0  0  0  0
    3.6273   12.7258   21.2114 C   0  0  0  0  0  0  0  0  0  0  0  0
    4.4145   11.2393   19.4772 C   0  0  0  0  0  0  0  0  0  0  0  0
    9.4943   11.8637   24.4395 C   0  0  0  0  0  0  0  0  0  0  0  0
    2.5011   13.0242   20.4445 C   0  0  0  0  0  0  0  0  0  0  0  0
    3.2883   11.5376   18.7102 C   0  0  0  0  0  0  0  0  0  0  0  0
    7.7984   11.7712   22.7213 C   0  0  0  0  0  0  0  0  0  0  0  0
    4.5840   11.8334   20.7278 C   0  0  0  0  0  0  0  0  0  0  0  0
    8.4627   12.4743   23.7262 C   0  0  0  0  0  0  0  0  0  0  0  0
    2.3316   12.4301   19.1939 C   0  0  0  0  0  0  0  0  0  0  0  0
    6.7222   12.4041   21.9751 C   0  0  0  0  0  0  0  0  0  0  0  0
   -0.1662   11.6012   18.7710 N   0  0  0  0  0  0  0  0  0  0  0  0
    5.7287   11.5301   21.5074 N   0  0  0  0  0  0  0  0  0  0  0  0
    6.7161   13.6218   21.7474 O   0  0  0  0  0  0  0  0  0  0  0  0
    0.4202   14.1083   18.6427 O   0  0  0  0  0  0  0  0  0  0  0  0
    1.2374   12.5569   16.8336 O   0  0  0  0  0  0  0  0  0  0  0  0
    8.1185   13.7375   24.0158 F   0  0  0  0  0  0  0  0  0  0  0  0
    0.9221   12.8039   18.2337 S   0  0  0  0  0  0  0  0  0  0  0  0
    9.4828    8.8241   22.9159 H   0  0  0  0  0  0  0  0  0  0  0  0
   10.6648   10.0746   24.7030 H   0  0  0  0  0  0  0  0  0  0  0  0
    7.6552    9.8998   21.6485 H   0  0  0  0  0  0  0  0  0  0  0  0
    3.7491   13.1948   22.1846 H   0  0  0  0  0  0  0  0  0  0  0  0
    5.1536   10.5422   19.0904 H   0  0  0  0  0  0  0  0  0  0  0  0
   10.0115   12.4112   25.2218 H   0  0  0  0  0  0  0  0  0  0  0  0
    1.7620   13.7211   20.8307 H   0  0  0  0  0  0  0  0  0  0  0  0
    3.1661   11.0691   17.7374 H   0  0  0  0  0  0  0  0  0  0  0  0
   -0.9538   11.8934   19.3623 H   0  0  0  0  0  0  0  0  0  0  0  0
   -0.3931   10.8340   18.1267 H   0  0  0  0  0  0  0  0  0  0  0  0
    5.8450   10.5520   21.7606 H   0  0  0  0  0  0  0  0  0  0  0  0
  1  2  1  0  0  0  0
  1  3  2  0  0  0  0
  2  6  2  0  0  0  0
  3  9  1  0  0  0  0
  4  7  2  0  0  0  0
  4 10  1  0  0  0  0
  5  8  1  0  0  0  0
  5 10  2  0  0  0  0
  6 11  1  0  0  0  0
  7 12  1  0  0  0  0
  8 12  2  0  0  0  0
  9 11  2  0  0  0  0
  9 13  1  0  0  0  0
 10 15  1  0  0  0  0
 11 19  1  0  0  0  0
 12 20  1  0  0  0  0
 13 15  1  0  0  0  0
 13 16  2  0  0  0  0
 14 20  1  0  0  0  0
 17 20  2  0  0  0  0
 18 20  2  0  0  0  0
  1 21  1  0  0  0  0
  2 22  1  0  0  0  0
  3 23  1  0  0  0  0
  4 24  1  0  0  0  0
  5 25  1  0  0  0  0
  6 26  1  0  0  0  0
  7 27  1  0  0  0  0
  8 28  1  0  0  0  0
 14 29  1  0  0  0  0
 14 30  1  0  0  0  0
 15 31  1  0  0  0  0
M  END
> <Mol Weight>
294,30

> <Formula>
C13H11FN2O3S

> <ID>
EN300-26638623

> <name>
Sulfonamides

> <LogP>
1,81

> <ROCS_ShapeQuery>
x0310_0A_x0719_0A_x1080_0A_x0739_0A_x0929_0A_x0526_0A_x0911_0A

> <ROCS_TanimotoCombo>
0.423 

> <ROCS_ShapeTanimoto>
0.263 

> <ROCS_ColorTanimoto>
0.160 

> <ROCS_RefTversky>
0.241 

> <ROCS_RefColorTversky>
0.177 

> <ROCS_RefTverskyCombo>
0.417 

> <ROCS_FitTversky>
1.534 

> <ROCS_FitColorTversky>
0.630 

> <ROCS_FitTverskyCombo>
2.164 

> <ROCS_ColorScore>
-5.147

> <ROCS_Overlap>
1930.610

> <ROCS_Rank>
4                   

$$$$
untitled-dbase-2003_2
  -OEChem-02092407103D

 29 30  0     0  0  0  0  0  0999 V2000
    7.8176   10.6070   22.5635 C   0  0  0  0  0  0  0  0  0  0  0  0
    9.4405   12.4860   22.7119 C   0  0  0  0  0  0  0  0  0  0  0  0
    7.7564   12.1527   24.5112 C   0  0  0  0  0  0  0  0  0  0  0  0
    8.8177    9.7362   23.3411 C   0  0  0  0  0  0  0  0  0  0  0  0
   10.3872   11.5507   23.4812 C   0  0  0  0  0  0  0  0  0  0  0  0
    8.7613   11.2314   25.2216 C   0  0  0  0  0  0  0  0  0  0  0  0
    7.9762   12.0829   22.9854 C   0  0  0  0  0  0  0  0  0  0  0  0
    6.9992   12.9857   22.2380 C   0  0  0  0  0  0  0  0  0  0  0  0
    9.6477   10.5385   24.2636 N   0  0  0  0  0  0  0  0  0  0  0  0
    5.9878   15.3935   21.7574 N   0  0  0  0  0  0  0  0  0  0  0  0
    6.7639   14.7725   24.1299 O   0  0  0  0  0  0  0  0  0  0  0  0
    8.4853   15.1335   22.3156 O   0  0  0  0  0  0  0  0  0  0  0  0
    7.1760   14.6620   22.7391 S   0  0  0  0  0  0  0  0  0  0  0  0
    7.9928   10.4973   21.4862 H   0  0  0  0  0  0  0  0  0  0  0  0
    6.7955   10.2612   22.7617 H   0  0  0  0  0  0  0  0  0  0  0  0
    9.6146   13.5240   23.0214 H   0  0  0  0  0  0  0  0  0  0  0  0
    9.6575   12.4292   21.6379 H   0  0  0  0  0  0  0  0  0  0  0  0
    6.7330   11.8487   24.7643 H   0  0  0  0  0  0  0  0  0  0  0  0
    7.8836   13.1822   24.8683 H   0  0  0  0  0  0  0  0  0  0  0  0
    8.2808    8.9622   23.9039 H   0  0  0  0  0  0  0  0  0  0  0  0
    9.4635    9.1920   22.6405 H   0  0  0  0  0  0  0  0  0  0  0  0
   11.0700   11.0521   22.7816 H   0  0  0  0  0  0  0  0  0  0  0  0
   11.0302   12.1374   24.1492 H   0  0  0  0  0  0  0  0  0  0  0  0
    9.3640   11.8121   25.9312 H   0  0  0  0  0  0  0  0  0  0  0  0
    8.2246   10.4926   25.8299 H   0  0  0  0  0  0  0  0  0  0  0  0
    5.9733   12.6849   22.4443 H   0  0  0  0  0  0  0  0  0  0  0  0
    7.1853   12.9389   21.1665 H   0  0  0  0  0  0  0  0  0  0  0  0
    6.1748   15.4570   20.7492 H   0  0  0  0  0  0  0  0  0  0  0  0
    5.0026   15.2113   21.9850 H   0  0  0  0  0  0  0  0  0  0  0  0
  1  4  1  0  0  0  0
  1  7  1  0  0  0  0
  2  5  1  0  0  0  0
  2  7  1  0  0  0  0
  3  6  1  0  0  0  0
  3  7  1  0  0  0  0
  4  9  1  0  0  0  0
  5  9  1  0  0  0  0
  6  9  1  0  0  0  0
  7  8  1  0  0  0  0
  8 13  1  0  0  0  0
 10 13  1  0  0  0  0
 11 13  2  0  0  0  0
 12 13  2  0  0  0  0
  1 14  1  0  0  0  0
  1 15  1  0  0  0  0
  2 16  1  0  0  0  0
  2 17  1  0  0  0  0
  3 18  1  0  0  0  0
  3 19  1  0  0  0  0
  4 20  1  0  0  0  0
  4 21  1  0  0  0  0
  5 22  1  0  0  0  0
  5 23  1  0  0  0  0
  6 24  1  0  0  0  0
  6 25  1  0  0  0  0
  8 26  1  0  0  0  0
  8 27  1  0  0  0  0
 10 28  1  0  0  0  0
 10 29  1  0  0  0  0
M  END
> <Mol Weight>
240,75

> <Formula>
C8H17ClN2O2S

> <ID>
EN300-7492668

> <name>
Sulfonamides

> <LogP>
-0,99

> <ROCS_ShapeQuery>
x0310_0A_x0719_0A_x1080_0A_x0739_0A_x0929_0A_x0526_0A_x0911_0A

> <ROCS_TanimotoCombo>
0.417 

> <ROCS_ShapeTanimoto>
0.169 

> <ROCS_ColorTanimoto>
0.248 

> <ROCS_RefTversky>
0.162 

> <ROCS_RefColorTversky>
0.274 

> <ROCS_RefTverskyCombo>
0.436 

> <ROCS_FitTversky>
1.375 

> <ROCS_FitColorTversky>
0.723 

> <ROCS_FitTverskyCombo>
2.098 

> <ROCS_ColorScore>
-8.031

> <ROCS_Overlap>
1293.396

> <ROCS_Rank>
5                   

$$$$
untitled-dbase-1000_14
  -OEChem-02092407103D

 30 31  0     1  0  0  0  0  0999 V2000
   10.0654   11.0054   22.5916 C   0  0  0  0  0  0  0  0  0  0  0  0
    9.1217   10.1224   24.7334 C   0  0  0  0  0  0  0  0  0  0  0  0
    9.8677   12.4405   23.0979 C   0  0  0  0  0  0  0  0  0  0  0  0
    8.9473   11.5623   25.2364 C   0  0  0  0  0  0  0  0  0  0  0  0
    7.6128   10.5867   22.7876 C   0  0  0  0  0  0  0  0  0  0  0  0
    9.0041   10.0738   23.2009 C   0  0  0  0  0  0  0  0  0  0  0  0
    8.6615   12.5074   24.0525 C   0  0  0  0  0  0  0  0  0  0  0  0
    7.3774   12.0072   23.3450 C   0  0  1  0  0  0  0  0  0  0  0  0
    6.8885   12.9614   22.2562 C   0  0  0  0  0  0  0  0  0  0  0  0
    6.0368   15.4098   21.6806 N   0  0  0  0  0  0  0  0  0  0  0  0
    6.6860   14.8063   24.0954 O   0  0  0  0  0  0  0  0  0  0  0  0
    8.4924   15.0224   22.3416 O   0  0  0  0  0  0  0  0  0  0  0  0
    7.1429   14.6364   22.7245 S   0  0  0  0  0  0  0  0  0  0  0  0
   10.0022   10.9868   21.4969 H   0  0  0  0  0  0  0  0  0  0  0  0
   11.0713   10.6553   22.8529 H   0  0  0  0  0  0  0  0  0  0  0  0
   10.0975    9.7356   25.0511 H   0  0  0  0  0  0  0  0  0  0  0  0
    8.3636    9.4754   25.1909 H   0  0  0  0  0  0  0  0  0  0  0  0
   10.7746   12.7736   23.6175 H   0  0  0  0  0  0  0  0  0  0  0  0
    9.7360   13.1226   22.2508 H   0  0  0  0  0  0  0  0  0  0  0  0
    8.1279   11.6046   25.9641 H   0  0  0  0  0  0  0  0  0  0  0  0
    9.8519   11.8828   25.7675 H   0  0  0  0  0  0  0  0  0  0  0  0
    7.5215   10.5663   21.6947 H   0  0  0  0  0  0  0  0  0  0  0  0
    6.8390    9.9120   23.1748 H   0  0  0  0  0  0  0  0  0  0  0  0
    9.1501    9.0493   22.8419 H   0  0  0  0  0  0  0  0  0  0  0  0
    8.5267   13.5308   24.4200 H   0  0  0  0  0  0  0  0  0  0  0  0
    6.5769   11.9501   24.0954 H   0  0  0  0  0  0  0  0  0  0  0  0
    5.8231   12.8220   22.0853 H   0  0  0  0  0  0  0  0  0  0  0  0
    7.4347   12.7878   21.3316 H   0  0  0  0  0  0  0  0  0  0  0  0
    5.1901   15.8151   22.0983 H   0  0  0  0  0  0  0  0  0  0  0  0
    6.4204   15.9621   20.9039 H   0  0  0  0  0  0  0  0  0  0  0  0
  1  3  1  0  0  0  0
  1  6  1  0  0  0  0
  2  4  1  0  0  0  0
  2  6  1  0  0  0  0
  3  7  1  0  0  0  0
  4  7  1  0  0  0  0
  5  6  1  0  0  0  0
  5  8  1  0  0  0  0
  7  8  1  0  0  0  0
  8  9  1  0  0  0  0
  9 13  1  0  0  0  0
 10 13  1  0  0  0  0
 11 13  2  0  0  0  0
 12 13  2  0  0  0  0
  1 14  1  0  0  0  0
  1 15  1  0  0  0  0
  2 16  1  0  0  0  0
  2 17  1  0  0  0  0
  3 18  1  0  0  0  0
  3 19  1  0  0  0  0
  4 20  1  0  0  0  0
  4 21  1  0  0  0  0
  5 22  1  0  0  0  0
  5 23  1  0  0  0  0
  6 24  1  0  0  0  0
  7 25  1  0  0  0  0
  8 26  1  0  0  0  0
  9 27  1  0  0  0  0
  9 28  1  0  0  0  0
 10 29  1  0  0  0  0
 10 30  1  0  0  0  0
M  END
> <Mol Weight>
203,30

> <Formula>
C9H17NO2S

> <ID>
EN300-679946

> <name>
Sulfonamides

> <LogP>
0,84

> <ROCS_ShapeQuery>
x0310_0A_x0719_0A_x1080_0A_x0739_0A_x0929_0A_x0526_0A_x0911_0A

> <ROCS_TanimotoCombo>
0.415 

> <ROCS_ShapeTanimoto>
0.169 

> <ROCS_ColorTanimoto>
0.246 

> <ROCS_RefTversky>
0.162 

> <ROCS_RefColorTversky>
0.266 

> <ROCS_RefTverskyCombo>
0.427 

> <ROCS_FitTversky>
1.393 

> <ROCS_FitColorTversky>
0.771 

> <ROCS_FitTverskyCombo>
2.164 

> <ROCS_ColorScore>
-7.756

> <ROCS_Overlap>
1292.891

> <ROCS_Rank>
6                   

$$$$
untitled-dbase-2615_69
  -OEChem-02092407103D

 34 35  0     0  0  0  0  0  0999 V2000
    4.2115   10.8702   18.6747 C   0  0  0  0  0  0  0  0  0  0  0  0
    3.5573   11.8688   20.7751 C   0  0  0  0  0  0  0  0  0  0  0  0
    3.0711   11.3974   18.0688 C   0  0  0  0  0  0  0  0  0  0  0  0
    2.4168   12.3961   20.1692 C   0  0  0  0  0  0  0  0  0  0  0  0
    7.6829   11.8784   23.0664 C   0  0  0  0  0  0  0  0  0  0  0  0
    8.8620    9.9061   23.7765 C   0  0  0  0  0  0  0  0  0  0  0  0
    8.7634   12.6205   23.5154 C   0  0  0  0  0  0  0  0  0  0  0  0
    9.8898   10.7365   24.1936 C   0  0  0  0  0  0  0  0  0  0  0  0
    4.4546   11.1058   20.0279 C   0  0  0  0  0  0  0  0  0  0  0  0
    7.7410   10.4960   23.2031 C   0  0  0  0  0  0  0  0  0  0  0  0
    2.1738   12.1603   18.8161 C   0  0  0  0  0  0  0  0  0  0  0  0
    5.6734   10.5417   20.6762 C   0  0  0  0  0  0  0  0  0  0  0  0
    5.4870   10.2306   22.1664 C   0  0  0  0  0  0  0  0  0  0  0  0
    9.8693   12.0832   24.0775 N   0  0  0  0  0  0  0  0  0  0  0  0
   -0.3724   11.5564   18.3091 N   0  0  0  0  0  0  0  0  0  0  0  0
    6.6835    9.7073   22.7693 N   0  0  0  0  0  0  0  0  0  0  0  0
    0.3196   13.9866   18.8201 O   0  0  0  0  0  0  0  0  0  0  0  0
    0.9988   12.9462   16.6283 O   0  0  0  0  0  0  0  0  0  0  0  0
    0.7474   12.8222   18.0574 S   0  0  0  0  0  0  0  0  0  0  0  0
    4.9047   10.2766   18.0847 H   0  0  0  0  0  0  0  0  0  0  0  0
    3.7383   12.0573   21.8301 H   0  0  0  0  0  0  0  0  0  0  0  0
    2.8909   11.2073   17.0140 H   0  0  0  0  0  0  0  0  0  0  0  0
    1.7242   12.9888   20.7609 H   0  0  0  0  0  0  0  0  0  0  0  0
    6.8231   12.3697   22.6233 H   0  0  0  0  0  0  0  0  0  0  0  0
    8.9396    8.8309   23.8981 H   0  0  0  0  0  0  0  0  0  0  0  0
    8.7673   13.7023   23.4313 H   0  0  0  0  0  0  0  0  0  0  0  0
   10.7863   10.3261   24.6467 H   0  0  0  0  0  0  0  0  0  0  0  0
    6.5078   11.2552   20.5694 H   0  0  0  0  0  0  0  0  0  0  0  0
    6.0054    9.6290   20.1520 H   0  0  0  0  0  0  0  0  0  0  0  0
    5.2268   11.1392   22.7185 H   0  0  0  0  0  0  0  0  0  0  0  0
    4.6900    9.4962   22.3226 H   0  0  0  0  0  0  0  0  0  0  0  0
   -1.1236   11.7066   18.9936 H   0  0  0  0  0  0  0  0  0  0  0  0
   -0.6571   10.9960   17.4966 H   0  0  0  0  0  0  0  0  0  0  0  0
    6.7638    8.7010   22.8881 H   0  0  0  0  0  0  0  0  0  0  0  0
  1  3  2  0  0  0  0
  1  9  1  0  0  0  0
  2  4  1  0  0  0  0
  2  9  2  0  0  0  0
  3 11  1  0  0  0  0
  4 11  2  0  0  0  0
  5  7  2  0  0  0  0
  5 10  1  0  0  0  0
  6  8  1  0  0  0  0
  6 10  2  0  0  0  0
  7 14  1  0  0  0  0
  8 14  2  0  0  0  0
  9 12  1  0  0  0  0
 10 16  1  0  0  0  0
 11 19  1  0  0  0  0
 12 13  1  0  0  0  0
 13 16  1  0  0  0  0
 15 19  1  0  0  0  0
 17 19  2  0  0  0  0
 18 19  2  0  0  0  0
  1 20  1  0  0  0  0
  2 21  1  0  0  0  0
  3 22  1  0  0  0  0
  4 23  1  0  0  0  0
  5 24  1  0  0  0  0
  6 25  1  0  0  0  0
  7 26  1  0  0  0  0
  8 27  1  0  0  0  0
 12 28  1  0  0  0  0
 12 29  1  0  0  0  0
 13 30  1  0  0  0  0
 13 31  1  0  0  0  0
 15 32  1  0  0  0  0
 15 33  1  0  0  0  0
 16 34  1  0  0  0  0
M  END
> <Mol Weight>
277,34

> <Formula>
C13H15N3O2S

> <ID>
EN300-1168619

> <name>
Sulfonamides

> <LogP>
0,70

> <ROCS_ShapeQuery>
x0310_0A_x0719_0A_x1080_0A_x0739_0A_x0929_0A_x0526_0A_x0911_0A

> <ROCS_TanimotoCombo>
0.414 

> <ROCS_ShapeTanimoto>
0.244 

> <ROCS_ColorTanimoto>
0.170 

> <ROCS_RefTversky>
0.226 

> <ROCS_RefColorTversky>
0.186 

> <ROCS_RefTverskyCombo>
0.411 

> <ROCS_FitTversky>
1.511 

> <ROCS_FitColorTversky>
0.662 

> <ROCS_FitTverskyCombo>
2.174 

> <ROCS_ColorScore>
-5.408

> <ROCS_Overlap>
1808.738

> <ROCS_Rank>
7                   

$$$$
untitled-dbase-2767_361
  -OEChem-02092407103D

 32 33  0     0  0  0  0  0  0999 V2000
    9.7478   10.4845   24.2150 C   0  0  0  0  0  0  0  0  0  0  0  0
    8.4559   10.0293   23.9516 C   0  0  0  0  0  0  0  0  0  0  0  0
   10.0975   11.8016   23.9170 C   0  0  0  0  0  0  0  0  0  0  0  0
    3.6588   10.7692   18.4300 C   0  0  0  0  0  0  0  0  0  0  0  0
    4.5596   11.1853   19.4104 C   0  0  0  0  0  0  0  0  0  0  0  0
    7.5138   10.8911   23.3900 C   0  0  0  0  0  0  0  0  0  0  0  0
    9.1554   12.6633   23.3554 C   0  0  0  0  0  0  0  0  0  0  0  0
    2.3403   11.2236   18.4563 C   0  0  0  0  0  0  0  0  0  0  0  0
    2.8232   12.5100   20.4435 C   0  0  0  0  0  0  0  0  0  0  0  0
    4.1417   12.0557   20.4171 C   0  0  0  0  0  0  0  0  0  0  0  0
    7.8635   12.2081   23.0919 C   0  0  0  0  0  0  0  0  0  0  0  0
    1.9225   12.0939   19.4630 C   0  0  0  0  0  0  0  0  0  0  0  0
    6.4219   12.6399   21.2955 C   0  0  0  0  0  0  0  0  0  0  0  0
   -0.3710   11.8737   18.1228 N   0  0  0  0  0  0  0  0  0  0  0  0
    5.0426   12.4721   21.3976 N   0  0  0  0  0  0  0  0  0  0  0  0
    7.1183   12.4491   20.3050 O   0  0  0  0  0  0  0  0  0  0  0  0
   -0.3735   12.1292   20.6880 O   0  0  0  0  0  0  0  0  0  0  0  0
    0.2714   14.0975   19.2537 O   0  0  0  0  0  0  0  0  0  0  0  0
    6.9196   13.0722   22.5272 O   0  0  0  0  0  0  0  0  0  0  0  0
    0.2718   12.6615   19.4960 S   0  0  0  0  0  0  0  0  0  0  0  0
   10.4815    9.8140   24.6528 H   0  0  0  0  0  0  0  0  0  0  0  0
    8.1835    9.0037   24.1834 H   0  0  0  0  0  0  0  0  0  0  0  0
   11.1037   12.1554   24.1226 H   0  0  0  0  0  0  0  0  0  0  0  0
    3.9840   10.0919   17.6457 H   0  0  0  0  0  0  0  0  0  0  0  0
    5.5848   10.8251   19.3793 H   0  0  0  0  0  0  0  0  0  0  0  0
    6.5095   10.5298   23.1858 H   0  0  0  0  0  0  0  0  0  0  0  0
    9.4340   13.6877   23.1236 H   0  0  0  0  0  0  0  0  0  0  0  0
    1.6465   10.8929   17.6880 H   0  0  0  0  0  0  0  0  0  0  0  0
    2.4966   13.1889   21.2282 H   0  0  0  0  0  0  0  0  0  0  0  0
   -1.0289   11.0995   18.2752 H   0  0  0  0  0  0  0  0  0  0  0  0
   -0.5860   12.4445   17.2962 H   0  0  0  0  0  0  0  0  0  0  0  0
    4.6357   12.6825   22.3149 H   0  0  0  0  0  0  0  0  0  0  0  0
  1  2  1  0  0  0  0
  1  3  2  0  0  0  0
  2  6  2  0  0  0  0
  3  7  1  0  0  0  0
  4  5  1  0  0  0  0
  4  8  2  0  0  0  0
  5 10  2  0  0  0  0
  6 11  1  0  0  0  0
  7 11  2  0  0  0  0
  8 12  1  0  0  0  0
  9 10  1  0  0  0  0
  9 12  2  0  0  0  0
 10 15  1  0  0  0  0
 11 19  1  0  0  0  0
 12 20  1  0  0  0  0
 13 15  1  0  0  0  0
 13 16  2  0  0  0  0
 13 19  1  0  0  0  0
 14 20  1  0  0  0  0
 17 20  2  0  0  0  0
 18 20  2  0  0  0  0
  1 21  1  0  0  0  0
  2 22  1  0  0  0  0
  3 23  1  0  0  0  0
  4 24  1  0  0  0  0
  5 25  1  0  0  0  0
  6 26  1  0  0  0  0
  7 27  1  0  0  0  0
  8 28  1  0  0  0  0
  9 29  1  0  0  0  0
 14 30  1  0  0  0  0
 14 31  1  0  0  0  0
 15 32  1  0  0  0  0
M  END
> <Mol Weight>
292,31

> <Formula>
C13H12N2O4S

> <ID>
EN300-39484

> <name>
Sulfonamides

> <LogP>
2,09

> <ROCS_ShapeQuery>
x0310_0A_x0719_0A_x1080_0A_x0739_0A_x0929_0A_x0526_0A_x0911_0A

> <ROCS_TanimotoCombo>
0.413 

> <ROCS_ShapeTanimoto>
0.251 

> <ROCS_ColorTanimoto>
0.162 

> <ROCS_RefTversky>
0.232 

> <ROCS_RefColorTversky>
0.179 

> <ROCS_RefTverskyCombo>
0.410 

> <ROCS_FitTversky>
1.482 

> <ROCS_FitColorTversky>
0.636 

> <ROCS_FitTverskyCombo>
2.119 

> <ROCS_ColorScore>
-5.197

> <ROCS_Overlap>
1858.968

> <ROCS_Rank>
8                   

$$$$
untitled-dbase-1735_0
  -OEChem-02092407103D

 34 36  0     0  0  0  0  0  0999 V2000
    9.7897    9.9429   22.8343 C   0  0  0  0  0  0  0  0  0  0  0  0
    7.6797    9.9367   24.1892 C   0  0  0  0  0  0  0  0  0  0  0  0
    9.7755   10.9352   25.1370 C   0  0  0  0  0  0  0  0  0  0  0  0
    7.8754   11.4255   22.1805 C   0  0  0  0  0  0  0  0  0  0  0  0
    9.9760   12.4263   23.1304 C   0  0  0  0  0  0  0  0  0  0  0  0
    7.8615   12.4202   24.4885 C   0  0  0  0  0  0  0  0  0  0  0  0
    8.2575   10.0562   22.7692 C   0  0  0  0  0  0  0  0  0  0  0  0
   10.3638   11.0597   23.7217 C   0  0  0  0  0  0  0  0  0  0  0  0
    8.2433   11.0535   25.0835 C   0  0  0  0  0  0  0  0  0  0  0  0
    8.4370   12.5677   23.0600 C   0  0  0  0  0  0  0  0  0  0  0  0
    8.0550   13.9283   22.4713 C   0  0  0  0  0  0  0  0  0  0  0  0
    6.0808   15.5155   21.6748 N   0  0  0  0  0  0  0  0  0  0  0  0
    5.5553   13.1831   22.6237 O   0  0  0  0  0  0  0  0  0  0  0  0
    6.3866   14.9959   24.1755 O   0  0  0  0  0  0  0  0  0  0  0  0
    6.3965   14.3439   22.8745 S   0  0  0  0  0  0  0  0  0  0  0  0
   10.0759    8.9624   23.2344 H   0  0  0  0  0  0  0  0  0  0  0  0
   10.2139   10.0108   21.8249 H   0  0  0  0  0  0  0  0  0  0  0  0
    6.5852   10.0003   24.1550 H   0  0  0  0  0  0  0  0  0  0  0  0
    7.9285    8.9561   24.6133 H   0  0  0  0  0  0  0  0  0  0  0  0
   10.0616    9.9723   25.5778 H   0  0  0  0  0  0  0  0  0  0  0  0
   10.1893   11.7175   25.7852 H   0  0  0  0  0  0  0  0  0  0  0  0
    8.2645   11.5080   21.1574 H   0  0  0  0  0  0  0  0  0  0  0  0
    6.7829   11.5037   22.1090 H   0  0  0  0  0  0  0  0  0  0  0  0
   10.4030   13.2285   23.7460 H   0  0  0  0  0  0  0  0  0  0  0  0
   10.4129   12.5316   22.1289 H   0  0  0  0  0  0  0  0  0  0  0  0
    6.7686   12.5213   24.4697 H   0  0  0  0  0  0  0  0  0  0  0  0
    8.2407   13.2221   25.1350 H   0  0  0  0  0  0  0  0  0  0  0  0
    7.8542    9.2569   22.1374 H   0  0  0  0  0  0  0  0  0  0  0  0
   11.4552   10.9727   23.7661 H   0  0  0  0  0  0  0  0  0  0  0  0
    7.8298   10.9620   26.0940 H   0  0  0  0  0  0  0  0  0  0  0  0
    8.1394   13.9027   21.3879 H   0  0  0  0  0  0  0  0  0  0  0  0
    8.7015   14.7036   22.8741 H   0  0  0  0  0  0  0  0  0  0  0  0
    6.5501   16.4254   21.7616 H   0  0  0  0  0  0  0  0  0  0  0  0
    5.9838   15.1906   20.7049 H   0  0  0  0  0  0  0  0  0  0  0  0
  1  7  1  0  0  0  0
  1  8  1  0  0  0  0
  2  7  1  0  0  0  0
  2  9  1  0  0  0  0
  3  8  1  0  0  0  0
  3  9  1  0  0  0  0
  4  7  1  0  0  0  0
  4 10  1  0  0  0  0
  5  8  1  0  0  0  0
  5 10  1  0  0  0  0
  6  9  1  0  0  0  0
  6 10  1  0  0  0  0
 10 11  1  0  0  0  0
 11 15  1  0  0  0  0
 12 15  1  0  0  0  0
 13 15  2  0  0  0  0
 14 15  2  0  0  0  0
  1 16  1  0  0  0  0
  1 17  1  0  0  0  0
  2 18  1  0  0  0  0
  2 19  1  0  0  0  0
  3 20  1  0  0  0  0
  3 21  1  0  0  0  0
  4 22  1  0  0  0  0
  4 23  1  0  0  0  0
  5 24  1  0  0  0  0
  5 25  1  0  0  0  0
  6 26  1  0  0  0  0
  6 27  1  0  0  0  0
  7 28  1  0  0  0  0
  8 29  1  0  0  0  0
  9 30  1  0  0  0  0
 11 31  1  0  0  0  0
 11 32  1  0  0  0  0
 12 33  1  0  0  0  0
 12 34  1  0  0  0  0
M  END
> <Mol Weight>
229,34

> <Formula>
C11H19NO2S

> <ID>
EN300-281490

> <name>
Sulfonamides

> <LogP>
1,04

> <ROCS_ShapeQuery>
x0310_0A_x0719_0A_x1080_0A_x0739_0A_x0929_0A_x0526_0A_x0911_0A

> <ROCS_TanimotoCombo>
0.408 

> <ROCS_ShapeTanimoto>
0.185 

> <ROCS_ColorTanimoto>
0.223 

> <ROCS_RefTversky>
0.176 

> <ROCS_RefColorTversky>
0.248 

> <ROCS_RefTverskyCombo>
0.424 

> <ROCS_FitTversky>
1.362 

> <ROCS_FitColorTversky>
0.690 

> <ROCS_FitTverskyCombo>
2.051 

> <ROCS_ColorScore>
-7.248

> <ROCS_Overlap>
1410.907

> <ROCS_Rank>
9                   

$$$$
untitled-dbase-2819_6
  -OEChem-02092407103D

 31 32  0     0  0  0  0  0  0999 V2000
    9.2383   10.0533   22.9788 C   0  0  0  0  0  0  0  0  0  0  0  0
    9.8850   10.8381   23.9335 C   0  0  0  0  0  0  0  0  0  0  0  0
    7.9886   10.4361   22.4917 C   0  0  0  0  0  0  0  0  0  0  0  0
    3.7652   12.5208   21.0536 C   0  0  0  0  0  0  0  0  0  0  0  0
    4.5846   11.3498   19.1057 C   0  0  0  0  0  0  0  0  0  0  0  0
    2.5806   12.8150   20.3784 C   0  0  0  0  0  0  0  0  0  0  0  0
    3.3999   11.6439   18.4305 C   0  0  0  0  0  0  0  0  0  0  0  0
    9.2820   12.0057   24.4012 C   0  0  0  0  0  0  0  0  0  0  0  0
    7.3855   11.6037   22.9594 C   0  0  0  0  0  0  0  0  0  0  0  0
    4.7672   11.7882   20.4172 C   0  0  0  0  0  0  0  0  0  0  0  0
    2.3980   12.3765   19.0669 C   0  0  0  0  0  0  0  0  0  0  0  0
    8.0322   12.3885   23.9142 C   0  0  0  0  0  0  0  0  0  0  0  0
    6.0452   11.9778   22.4138 C   0  0  0  0  0  0  0  0  0  0  0  0
   -0.0405   11.3909   18.6343 N   0  0  0  0  0  0  0  0  0  0  0  0
    0.3284   13.9354   18.8213 O   0  0  0  0  0  0  0  0  0  0  0  0
    1.1792   12.7124   16.7896 O   0  0  0  0  0  0  0  0  0  0  0  0
    5.9310   11.4987   21.0806 O   0  0  0  0  0  0  0  0  0  0  0  0
    0.9153   12.7456   18.2213 S   0  0  0  0  0  0  0  0  0  0  0  0
    7.3173   13.8396   24.5162 Cl  0  0  0  0  0  0  0  0  0  0  0  0
    9.7085    9.1446   22.6141 H   0  0  0  0  0  0  0  0  0  0  0  0
   10.8587   10.5403   24.3116 H   0  0  0  0  0  0  0  0  0  0  0  0
    7.4935    9.8176   21.7476 H   0  0  0  0  0  0  0  0  0  0  0  0
    3.9015   12.8644   22.0754 H   0  0  0  0  0  0  0  0  0  0  0  0
    5.3615   10.7788   18.6047 H   0  0  0  0  0  0  0  0  0  0  0  0
    1.8067   13.3864   20.8837 H   0  0  0  0  0  0  0  0  0  0  0  0
    3.2681   11.2979   17.4089 H   0  0  0  0  0  0  0  0  0  0  0  0
    9.7997   12.6068   25.1444 H   0  0  0  0  0  0  0  0  0  0  0  0
    5.2360   11.5444   23.0153 H   0  0  0  0  0  0  0  0  0  0  0  0
    5.9108   13.0669   22.4126 H   0  0  0  0  0  0  0  0  0  0  0  0
   -0.8188   11.5321   19.2898 H   0  0  0  0  0  0  0  0  0  0  0  0
   -0.2352   10.6971   17.9021 H   0  0  0  0  0  0  0  0  0  0  0  0
  1  2  1  0  0  0  0
  1  3  2  0  0  0  0
  2  8  2  0  0  0  0
  3  9  1  0  0  0  0
  4  6  2  0  0  0  0
  4 10  1  0  0  0  0
  5  7  1  0  0  0  0
  5 10  2  0  0  0  0
  6 11  1  0  0  0  0
  7 11  2  0  0  0  0
  8 12  1  0  0  0  0
  9 12  2  0  0  0  0
  9 13  1  0  0  0  0
 10 17  1  0  0  0  0
 11 18  1  0  0  0  0
 12 19  1  0  0  0  0
 13 17  1  0  0  0  0
 14 18  1  0  0  0  0
 15 18  2  0  0  0  0
 16 18  2  0  0  0  0
  1 20  1  0  0  0  0
  2 21  1  0  0  0  0
  3 22  1  0  0  0  0
  4 23  1  0  0  0  0
  5 24  1  0  0  0  0
  6 25  1  0  0  0  0
  7 26  1  0  0  0  0
  8 27  1  0  0  0  0
 13 28  1  0  0  0  0
 13 29  1  0  0  0  0
 14 30  1  0  0  0  0
 14 31  1  0  0  0  0
M  END
> <Mol Weight>
297,75

> <Formula>
C13H12ClNO3S

> <ID>
EN300-69768

> <name>
Sulfonamides

> <LogP>
2,75

> <ROCS_ShapeQuery>
x0310_0A_x0719_0A_x1080_0A_x0739_0A_x0929_0A_x0526_0A_x0911_0A

> <ROCS_TanimotoCombo>
0.405 

> <ROCS_ShapeTanimoto>
0.251 

> <ROCS_ColorTanimoto>
0.154 

> <ROCS_RefTversky>
0.230 

> <ROCS_RefColorTversky>
0.166 

> <ROCS_RefTverskyCombo>
0.397 

> <ROCS_FitTversky>
1.547 

> <ROCS_FitColorTversky>
0.670 

> <ROCS_FitTverskyCombo>
2.216 

> <ROCS_ColorScore>
-4.834

> <ROCS_Overlap>
1848.188

> <ROCS_Rank>
10                  

$$$$
untitled-dbase-2614_103
  -OEChem-02092407103D

 34 35  0     0  0  0  0  0  0999 V2000
    9.0662   10.0188   23.5915 C   0  0  0  0  0  0  0  0  0  0  0  0
    9.3006   11.0673   24.4810 C   0  0  0  0  0  0  0  0  0  0  0  0
    8.2942   10.2324   22.4495 C   0  0  0  0  0  0  0  0  0  0  0  0
    4.4820   10.9886   19.0082 C   0  0  0  0  0  0  0  0  0  0  0  0
    3.7229   12.0569   21.0379 C   0  0  0  0  0  0  0  0  0  0  0  0
    3.3383   11.4343   18.3458 C   0  0  0  0  0  0  0  0  0  0  0  0
    2.5791   12.5026   20.3755 C   0  0  0  0  0  0  0  0  0  0  0  0
    7.9909   12.5430   23.0866 C   0  0  0  0  0  0  0  0  0  0  0  0
    8.7629   12.3294   24.2286 C   0  0  0  0  0  0  0  0  0  0  0  0
    7.7565   11.4944   22.1971 C   0  0  0  0  0  0  0  0  0  0  0  0
    4.6744   11.2998   20.3543 C   0  0  0  0  0  0  0  0  0  0  0  0
    2.3868   12.1913   19.0295 C   0  0  0  0  0  0  0  0  0  0  0  0
    9.0152   13.4504   25.1794 C   0  0  0  0  0  0  0  0  0  0  0  0
    6.9305   11.7225   20.9762 C   0  0  0  0  0  0  0  0  0  0  0  0
   -0.1143   11.4466   18.4869 N   0  0  0  0  0  0  0  0  0  0  0  0
    0.4537   13.9283   18.8918 O   0  0  0  0  0  0  0  0  0  0  0  0
    1.2412   12.8130   16.7744 O   0  0  0  0  0  0  0  0  0  0  0  0
    5.7981   10.8625   21.0049 O   0  0  0  0  0  0  0  0  0  0  0  0
    0.9544   12.7486   18.2006 S   0  0  0  0  0  0  0  0  0  0  0  0
    9.4850    9.0361   23.7881 H   0  0  0  0  0  0  0  0  0  0  0  0
    9.9037   10.8917   25.3680 H   0  0  0  0  0  0  0  0  0  0  0  0
    8.1161    9.4094   21.7624 H   0  0  0  0  0  0  0  0  0  0  0  0
    5.2201   10.3999   18.4702 H   0  0  0  0  0  0  0  0  0  0  0  0
    3.8672   12.3024   22.0865 H   0  0  0  0  0  0  0  0  0  0  0  0
    3.1985   11.1860   17.2972 H   0  0  0  0  0  0  0  0  0  0  0  0
    1.8441   13.0914   20.9176 H   0  0  0  0  0  0  0  0  0  0  0  0
    7.5723   13.5270   22.8888 H   0  0  0  0  0  0  0  0  0  0  0  0
    9.9259   13.9928   24.8974 H   0  0  0  0  0  0  0  0  0  0  0  0
    8.1773   14.1595   25.1908 H   0  0  0  0  0  0  0  0  0  0  0  0
    9.1335   13.0822   26.2069 H   0  0  0  0  0  0  0  0  0  0  0  0
    6.5804   12.7621   20.9178 H   0  0  0  0  0  0  0  0  0  0  0  0
    7.5066   11.5175   20.0636 H   0  0  0  0  0  0  0  0  0  0  0  0
   -0.8908   11.5958   19.1428 H   0  0  0  0  0  0  0  0  0  0  0  0
   -0.3503   10.8341   17.6966 H   0  0  0  0  0  0  0  0  0  0  0  0
  1  2  2  0  0  0  0
  1  3  1  0  0  0  0
  2  9  1  0  0  0  0
  3 10  2  0  0  0  0
  4  6  2  0  0  0  0
  4 11  1  0  0  0  0
  5  7  1  0  0  0  0
  5 11  2  0  0  0  0
  6 12  1  0  0  0  0
  7 12  2  0  0  0  0
  8  9  2  0  0  0  0
  8 10  1  0  0  0  0
  9 13  1  0  0  0  0
 10 14  1  0  0  0  0
 11 18  1  0  0  0  0
 12 19  1  0  0  0  0
 14 18  1  0  0  0  0
 15 19  1  0  0  0  0
 16 19  2  0  0  0  0
 17 19  2  0  0  0  0
  1 20  1  0  0  0  0
  2 21  1  0  0  0  0
  3 22  1  0  0  0  0
  4 23  1  0  0  0  0
  5 24  1  0  0  0  0
  6 25  1  0  0  0  0
  7 26  1  0  0  0  0
  8 27  1  0  0  0  0
 13 28  1  0  0  0  0
 13 29  1  0  0  0  0
 13 30  1  0  0  0  0
 14 31  1  0  0  0  0
 14 32  1  0  0  0  0
 15 33  1  0  0  0  0
 15 34  1  0  0  0  0
M  END
> <Mol Weight>
277,34

> <Formula>
C14H15NO3S

> <ID>
EN300-72265

> <name>
Sulfonamides

> <LogP>
2,66

> <ROCS_ShapeQuery>
x0310_0A_x0719_0A_x1080_0A_x0739_0A_x0929_0A_x0526_0A_x0911_0A

> <ROCS_TanimotoCombo>
0.398 

> <ROCS_ShapeTanimoto>
0.246 

> <ROCS_ColorTanimoto>
0.153 

> <ROCS_RefTversky>
0.227 

> <ROCS_RefColorTversky>
0.166 

> <ROCS_RefTverskyCombo>
0.392 

> <ROCS_FitTversky>
1.514 

> <ROCS_FitColorTversky>
0.667 

> <ROCS_FitTverskyCombo>
2.181 

> <ROCS_ColorScore>
-4.813

> <ROCS_Overlap>
1817.312

> <ROCS_Rank>
11                  

$$$$
untitled-dbase-2711_339
  -OEChem-02092407103D

 37 38  0     1  0  0  0  0  0999 V2000
    9.7386   11.6644   23.1940 C   0  0  0  0  0  0  0  0  0  0  0  0
    9.5345   10.2850   23.3871 C   0  0  0  0  0  0  0  0  0  0  0  0
    8.6001   12.2525   23.6885 C   0  0  0  0  0  0  0  0  0  0  0  0
    7.5120   14.2619   22.7219 C   0  0  0  0  0  0  0  0  0  0  0  0
    7.8998   15.6124   25.2950 C   0  0  0  0  0  0  0  0  0  0  0  0
    7.6120   16.4566   24.0738 C   0  0  0  0  0  0  0  0  0  0  0  0
    8.7587   14.4261   24.8949 C   0  0  0  0  0  0  0  0  0  0  0  0
    6.9213   15.6380   23.0016 C   0  0  2  0  0  0  0  0  0  0  0  0
   10.4477    9.1852   23.0330 C   0  0  0  0  0  0  0  0  0  0  0  0
    6.5068   11.3353   24.7374 C   0  0  0  0  0  0  0  0  0  0  0  0
    2.9153   15.9378   23.1161 C   0  0  0  0  0  0  0  0  0  0  0  0
    8.3589   10.0129   23.9597 N   0  0  0  0  0  0  0  0  0  0  0  0
    7.8140   11.2294   24.1307 N   0  0  0  0  0  0  0  0  0  0  0  0
    8.2163   13.6450   23.7716 N   0  0  0  0  0  0  0  0  0  0  0  0
    5.5328   15.3914   23.3007 N   0  0  0  0  0  0  0  0  0  0  0  0
    7.2649   13.7387   21.6302 O   0  0  0  0  0  0  0  0  0  0  0  0
    4.7325   17.6874   22.4183 O   0  0  0  0  0  0  0  0  0  0  0  0
    4.4581   17.1163   24.8586 O   0  0  0  0  0  0  0  0  0  0  0  0
    4.4752   16.7172   23.4644 S   0  0  0  0  0  0  0  0  0  0  0  0
   10.5927   12.1621   22.7571 H   0  0  0  0  0  0  0  0  0  0  0  0
    8.4135   16.2072   26.0584 H   0  0  0  0  0  0  0  0  0  0  0  0
    6.9629   15.2582   25.7364 H   0  0  0  0  0  0  0  0  0  0  0  0
    6.9914   17.3292   24.3589 H   0  0  0  0  0  0  0  0  0  0  0  0
    8.5552   16.8813   23.6805 H   0  0  0  0  0  0  0  0  0  0  0  0
    9.7618   14.7688   24.6258 H   0  0  0  0  0  0  0  0  0  0  0  0
    8.8491   13.7374   25.7411 H   0  0  0  0  0  0  0  0  0  0  0  0
    6.9639   16.1849   22.0206 H   0  0  0  0  0  0  0  0  0  0  0  0
   11.1343    8.9511   23.8645 H   0  0  0  0  0  0  0  0  0  0  0  0
    9.9046    8.2574   22.7792 H   0  0  0  0  0  0  0  0  0  0  0  0
   11.0657    9.4245   22.1490 H   0  0  0  0  0  0  0  0  0  0  0  0
    5.7604   11.2931   23.9398 H   0  0  0  0  0  0  0  0  0  0  0  0
    6.3632   10.5093   25.4395 H   0  0  0  0  0  0  0  0  0  0  0  0
    6.4356   12.2825   25.2793 H   0  0  0  0  0  0  0  0  0  0  0  0
    2.1299   16.6920   23.1880 H   0  0  0  0  0  0  0  0  0  0  0  0
    2.9554   15.5224   22.1080 H   0  0  0  0  0  0  0  0  0  0  0  0
    2.7542   15.1468   23.8499 H   0  0  0  0  0  0  0  0  0  0  0  0
    5.3832   14.5900   23.9227 H   0  0  0  0  0  0  0  0  0  0  0  0
  1  2  1  0  0  0  0
  1  3  2  0  0  0  0
  2  9  1  0  0  0  0
  2 12  2  0  0  0  0
  3 13  1  0  0  0  0
  3 14  1  0  0  0  0
  4  8  1  0  0  0  0
  4 14  1  0  0  0  0
  4 16  2  0  0  0  0
  5  6  1  0  0  0  0
  5  7  1  0  0  0  0
  6  8  1  0  0  0  0
  7 14  1  0  0  0  0
  8 15  1  0  0  0  0
 10 13  1  0  0  0  0
 11 19  1  0  0  0  0
 12 13  1  0  0  0  0
 15 19  1  0  0  0  0
 17 19  2  0  0  0  0
 18 19  2  0  0  0  0
  1 20  1  0  0  0  0
  5 21  1  0  0  0  0
  5 22  1  0  0  0  0
  6 23  1  0  0  0  0
  6 24  1  0  0  0  0
  7 25  1  0  0  0  0
  7 26  1  0  0  0  0
  8 27  1  0  0  0  0
  9 28  1  0  0  0  0
  9 29  1  0  0  0  0
  9 30  1  0  0  0  0
 10 31  1  0  0  0  0
 10 32  1  0  0  0  0
 10 33  1  0  0  0  0
 11 34  1  0  0  0  0
 11 35  1  0  0  0  0
 11 36  1  0  0  0  0
 15 37  1  0  0  0  0
M  END
> <Mol Weight>
286,35

> <Formula>
C11H18N4O3S

> <ID>
EN300-158303

> <name>
Sulfonamides

> <LogP>
-1,27

> <ROCS_ShapeQuery>
x0310_0A_x0719_0A_x1080_0A_x0739_0A_x0929_0A_x0526_0A_x0911_0A

> <ROCS_TanimotoCombo>
0.397 

> <ROCS_ShapeTanimoto>
0.225 

> <ROCS_ColorTanimoto>
0.172 

> <ROCS_RefTversky>
0.211 

> <ROCS_RefColorTversky>
0.188 

> <ROCS_RefTverskyCombo>
0.399 

> <ROCS_FitTversky>
1.404 

> <ROCS_FitColorTversky>
0.669 

> <ROCS_FitTverskyCombo>
2.074 

> <ROCS_ColorScore>
-5.466

> <ROCS_Overlap>
1693.091

> <ROCS_Rank>
12                  

$$$$
untitled-dbase-1353_2
  -OEChem-02092407103D

 31 33  0     0  0  0  0  0  0999 V2000
   10.2769   10.6402   22.8101 C   0  0  0  0  0  0  0  0  0  0  0  0
    8.0541    9.6729   23.4537 C   0  0  0  0  0  0  0  0  0  0  0  0
    9.4919   10.7748   25.1884 C   0  0  0  0  0  0  0  0  0  0  0  0
    8.1596   11.7461   22.0470 C   0  0  0  0  0  0  0  0  0  0  0  0
    9.5991   12.8494   23.7839 C   0  0  0  0  0  0  0  0  0  0  0  0
    7.3736   11.8809   24.4283 C   0  0  0  0  0  0  0  0  0  0  0  0
    8.8328   10.3942   22.3402 C   0  0  0  0  0  0  0  0  0  0  0  0
   10.2784   11.5021   24.0843 C   0  0  0  0  0  0  0  0  0  0  0  0
    8.0436   10.5296   24.7314 C   0  0  0  0  0  0  0  0  0  0  0  0
    8.1469   12.6206   23.3175 C   0  0  0  0  0  0  0  0  0  0  0  0
    6.0954   13.6427   21.9766 N   0  0  0  0  0  0  0  0  0  0  0  0
    6.8188   14.6842   24.2147 O   0  0  0  0  0  0  0  0  0  0  0  0
    8.2902   14.9687   22.1801 O   0  0  0  0  0  0  0  0  0  0  0  0
    7.3678   14.1808   22.9721 S   0  0  0  0  0  0  0  0  0  0  0  0
   10.7753    9.6826   23.0055 H   0  0  0  0  0  0  0  0  0  0  0  0
   10.8481   11.1408   22.0186 H   0  0  0  0  0  0  0  0  0  0  0  0
    7.0259    9.4778   23.1255 H   0  0  0  0  0  0  0  0  0  0  0  0
    8.5131    8.6983   23.6606 H   0  0  0  0  0  0  0  0  0  0  0  0
    9.9764    9.8196   25.4258 H   0  0  0  0  0  0  0  0  0  0  0  0
    9.4983   11.3722   26.1083 H   0  0  0  0  0  0  0  0  0  0  0  0
    8.6927   12.2592   21.2360 H   0  0  0  0  0  0  0  0  0  0  0  0
    7.1357   11.5816   21.6869 H   0  0  0  0  0  0  0  0  0  0  0  0
    9.6163   13.4828   24.6802 H   0  0  0  0  0  0  0  0  0  0  0  0
   10.1663   13.3885   23.0140 H   0  0  0  0  0  0  0  0  0  0  0  0
    6.3311   11.7195   24.1246 H   0  0  0  0  0  0  0  0  0  0  0  0
    7.3383   12.4916   25.3398 H   0  0  0  0  0  0  0  0  0  0  0  0
    8.8379    9.7790   21.4335 H   0  0  0  0  0  0  0  0  0  0  0  0
   11.3089   11.6728   24.4149 H   0  0  0  0  0  0  0  0  0  0  0  0
    7.4891   10.0105   25.5210 H   0  0  0  0  0  0  0  0  0  0  0  0
    6.3305   13.3141   21.0320 H   0  0  0  0  0  0  0  0  0  0  0  0
    5.3284   13.1205   22.4177 H   0  0  0  0  0  0  0  0  0  0  0  0
  1  7  1  0  0  0  0
  1  8  1  0  0  0  0
  2  7  1  0  0  0  0
  2  9  1  0  0  0  0
  3  8  1  0  0  0  0
  3  9  1  0  0  0  0
  4  7  1  0  0  0  0
  4 10  1  0  0  0  0
  5  8  1  0  0  0  0
  5 10  1  0  0  0  0
  6  9  1  0  0  0  0
  6 10  1  0  0  0  0
 10 14  1  0  0  0  0
 11 14  1  0  0  0  0
 12 14  2  0  0  0  0
 13 14  2  0  0  0  0
  1 15  1  0  0  0  0
  1 16  1  0  0  0  0
  2 17  1  0  0  0  0
  2 18  1  0  0  0  0
  3 19  1  0  0  0  0
  3 20  1  0  0  0  0
  4 21  1  0  0  0  0
  4 22  1  0  0  0  0
  5 23  1  0  0  0  0
  5 24  1  0  0  0  0
  6 25  1  0  0  0  0
  6 26  1  0  0  0  0
  7 27  1  0  0  0  0
  8 28  1  0  0  0  0
  9 29  1  0  0  0  0
 11 30  1  0  0  0  0
 11 31  1  0  0  0  0
M  END
> <Mol Weight>
215,31

> <Formula>
C10H17NO2S

> <ID>
EN300-1618325

> <name>
Sulfonamides

> <LogP>
1,01

> <ROCS_ShapeQuery>
x0310_0A_x0719_0A_x1080_0A_x0739_0A_x0929_0A_x0526_0A_x0911_0A

> <ROCS_TanimotoCombo>
0.392 

> <ROCS_ShapeTanimoto>
0.179 

> <ROCS_ColorTanimoto>
0.213 

> <ROCS_RefTversky>
0.171 

> <ROCS_RefColorTversky>
0.239 

> <ROCS_RefTverskyCombo>
0.410 

> <ROCS_FitTversky>
1.369 

> <ROCS_FitColorTversky>
0.665 

> <ROCS_FitTverskyCombo>
2.034 

> <ROCS_ColorScore>
-6.993

> <ROCS_Overlap>
1365.957

> <ROCS_Rank>
13                  

$$$$
untitled-dbase-1419_130
  -OEChem-02092407103D

 26 26  0     1  0  0  0  0  0999 V2000
    9.8661   11.4544   22.7922 C   0  0  0  0  0  0  0  0  0  0  0  0
    9.5682   12.7597   23.1833 C   0  0  0  0  0  0  0  0  0  0  0  0
    9.1325   10.3867   23.3095 C   0  0  0  0  0  0  0  0  0  0  0  0
    7.8033   11.9297   24.6093 C   0  0  0  0  0  0  0  0  0  0  0  0
    8.5368   12.9974   24.0919 C   0  0  0  0  0  0  0  0  0  0  0  0
    8.1012   10.6243   24.2181 C   0  0  0  0  0  0  0  0  0  0  0  0
    7.7329   14.4524   25.9725 C   0  0  0  0  0  0  0  0  0  0  0  0
    7.1837   15.0959   23.6027 C   0  0  0  0  0  0  0  0  0  0  0  0
    8.2132   14.4200   24.5172 C   0  0  2  0  0  0  0  0  0  0  0  0
    6.1870   15.6441   21.2033 N   0  0  0  0  0  0  0  0  0  0  0  0
    8.7282   15.3981   21.5170 O   0  0  0  0  0  0  0  0  0  0  0  0
    7.2559   13.3494   21.6604 O   0  0  0  0  0  0  0  0  0  0  0  0
    7.3970    9.5992   24.7153 F   0  0  0  0  0  0  0  0  0  0  0  0
    7.4759   14.7659   21.8910 S   0  0  0  0  0  0  0  0  0  0  0  0
   10.6688   11.2693   22.0844 H   0  0  0  0  0  0  0  0  0  0  0  0
   10.1453   13.5854   22.7751 H   0  0  0  0  0  0  0  0  0  0  0  0
    9.3649    9.3706   23.0053 H   0  0  0  0  0  0  0  0  0  0  0  0
    6.9976   12.1049   25.3171 H   0  0  0  0  0  0  0  0  0  0  0  0
    6.8079   13.8821   26.1107 H   0  0  0  0  0  0  0  0  0  0  0  0
    7.5389   15.4824   26.2913 H   0  0  0  0  0  0  0  0  0  0  0  0
    8.4890   14.0318   26.6449 H   0  0  0  0  0  0  0  0  0  0  0  0
    7.2356   16.1853   23.7055 H   0  0  0  0  0  0  0  0  0  0  0  0
    6.1570   14.7840   23.8169 H   0  0  0  0  0  0  0  0  0  0  0  0
    9.1373   15.0126   24.4755 H   0  0  0  0  0  0  0  0  0  0  0  0
    6.4138   16.5068   20.6934 H   0  0  0  0  0  0  0  0  0  0  0  0
    5.4110   15.1115   20.7913 H   0  0  0  0  0  0  0  0  0  0  0  0
  1  2  2  0  0  0  0
  1  3  1  0  0  0  0
  2  5  1  0  0  0  0
  3  6  2  0  0  0  0
  4  5  2  0  0  0  0
  4  6  1  0  0  0  0
  5  9  1  0  0  0  0
  6 13  1  0  0  0  0
  7  9  1  0  0  0  0
  8  9  1  0  0  0  0
  8 14  1  0  0  0  0
 10 14  1  0  0  0  0
 11 14  2  0  0  0  0
 12 14  2  0  0  0  0
  1 15  1  0  0  0  0
  2 16  1  0  0  0  0
  3 17  1  0  0  0  0
  4 18  1  0  0  0  0
  7 19  1  0  0  0  0
  7 20  1  0  0  0  0
  7 21  1  0  0  0  0
  8 22  1  0  0  0  0
  8 23  1  0  0  0  0
  9 24  1  0  0  0  0
 10 25  1  0  0  0  0
 10 26  1  0  0  0  0
M  END
> <Mol Weight>
217,26

> <Formula>
C9H12FNO2S

> <ID>
EN300-7541714

> <name>
Sulfonamides

> <LogP>
1,14

> <ROCS_ShapeQuery>
x0310_0A_x0719_0A_x1080_0A_x0739_0A_x0929_0A_x0526_0A_x0911_0A

> <ROCS_TanimotoCombo>
0.392 

> <ROCS_ShapeTanimoto>
0.195 

> <ROCS_ColorTanimoto>
0.197 

> <ROCS_RefTversky>
0.183 

> <ROCS_RefColorTversky>
0.200 

> <ROCS_RefTverskyCombo>
0.383 

> <ROCS_FitTversky>
1.513 

> <ROCS_FitColorTversky>
0.927 

> <ROCS_FitTverskyCombo>
2.440 

> <ROCS_ColorScore>
-5.810

> <ROCS_Overlap>
1463.526

> <ROCS_Rank>
14                  

$$$$
untitled-dbase-1168_19
  -OEChem-02092407103D

 24 25  0     1  0  0  0  0  0999 V2000
    8.8176   10.9586   24.8894 C   0  0  0  0  0  0  0  0  0  0  0  0
   10.0636   11.3641   24.0899 C   0  0  0  0  0  0  0  0  0  0  0  0
    7.8083   10.3784   22.5319 C   0  0  0  0  0  0  0  0  0  0  0  0
    7.6888   11.0053   23.8962 C   0  0  2  0  0  0  0  0  0  0  0  0
    8.1118   11.8482   22.7328 C   0  0  1  0  0  0  0  0  0  0  0  0
    9.5197   12.2984   23.0117 C   0  0  0  0  0  0  0  0  0  0  0  0
    7.1737   12.8564   22.1482 C   0  0  0  0  0  0  0  0  0  0  0  0
    5.8232   15.1163   22.4955 N   0  0  0  0  0  0  0  0  0  0  0  0
    7.3391   14.2204   24.3706 O   0  0  0  0  0  0  0  0  0  0  0  0
    8.3856   15.1679   22.2748 O   0  0  0  0  0  0  0  0  0  0  0  0
    9.5228   13.5743   23.4704 F   0  0  0  0  0  0  0  0  0  0  0  0
   10.2826   12.2602   21.8982 F   0  0  0  0  0  0  0  0  0  0  0  0
    7.3218   14.4342   22.9353 S   0  0  0  0  0  0  0  0  0  0  0  0
    8.9298    9.9659   25.3346 H   0  0  0  0  0  0  0  0  0  0  0  0
    8.6304   11.6819   25.6909 H   0  0  0  0  0  0  0  0  0  0  0  0
   10.8140   11.8449   24.7238 H   0  0  0  0  0  0  0  0  0  0  0  0
   10.5223   10.4811   23.6301 H   0  0  0  0  0  0  0  0  0  0  0  0
    8.6267    9.6967   22.3360 H   0  0  0  0  0  0  0  0  0  0  0  0
    6.8889   10.1032   22.0276 H   0  0  0  0  0  0  0  0  0  0  0  0
    6.7096   11.1273   24.3343 H   0  0  0  0  0  0  0  0  0  0  0  0
    6.1239   12.5495   22.2604 H   0  0  0  0  0  0  0  0  0  0  0  0
    7.3679   13.0219   21.0790 H   0  0  0  0  0  0  0  0  0  0  0  0
    5.6895   15.3858   21.5131 H   0  0  0  0  0  0  0  0  0  0  0  0
    4.9769   14.7405   22.9406 H   0  0  0  0  0  0  0  0  0  0  0  0
  1  2  1  0  0  0  0
  1  4  1  0  0  0  0
  2  6  1  0  0  0  0
  3  4  1  1  0  0  0
  3  5  1  0  0  0  0
  4  5  1  0  0  0  0
  5  6  1  0  0  0  0
  5  7  1  6  0  0  0
  6 11  1  0  0  0  0
  6 12  1  0  0  0  0
  7 13  1  0  0  0  0
  8 13  1  0  0  0  0
  9 13  2  0  0  0  0
 10 13  2  0  0  0  0
  1 14  1  0  0  0  0
  1 15  1  0  0  0  0
  2 16  1  0  0  0  0
  2 17  1  0  0  0  0
  3 18  1  0  0  0  0
  3 19  1  0  0  0  0
  4 20  1  0  0  0  0
  7 21  1  0  0  0  0
  7 22  1  0  0  0  0
  8 23  1  0  0  0  0
  8 24  1  0  0  0  0
M  END
> <Mol Weight>
211,23

> <Formula>
C7H11F2NO2S

> <ID>
EN300-37443701

> <name>
Sulfonamides

> <LogP>
-0,09

> <ROCS_ShapeQuery>
x0310_0A_x0719_0A_x1080_0A_x0739_0A_x0929_0A_x0526_0A_x0911_0A

> <ROCS_TanimotoCombo>
0.390 

> <ROCS_ShapeTanimoto>
0.167 

> <ROCS_ColorTanimoto>
0.223 

> <ROCS_RefTversky>
0.160 

> <ROCS_RefColorTversky>
0.232 

> <ROCS_RefTverskyCombo>
0.392 

> <ROCS_FitTversky>
1.351 

> <ROCS_FitColorTversky>
0.847 

> <ROCS_FitTverskyCombo>
2.197 

> <ROCS_ColorScore>
-6.755

> <ROCS_Overlap>
1283.298

> <ROCS_Rank>
15                  

$$$$
untitled-dbase-2562_391
  -OEChem-02092407103D

 34 35  0     1  0  0  0  0  0999 V2000
    9.3364   11.5739   22.7145 C   0  0  0  0  0  0  0  0  0  0  0  0
    9.2813   10.2126   23.0691 C   0  0  0  0  0  0  0  0  0  0  0  0
    8.5138   12.1982   23.6202 C   0  0  0  0  0  0  0  0  0  0  0  0
    7.5210   14.2908   22.7309 C   0  0  0  0  0  0  0  0  0  0  0  0
    7.8182   15.4718   25.3978 C   0  0  0  0  0  0  0  0  0  0  0  0
    7.6089   16.3960   24.2192 C   0  0  0  0  0  0  0  0  0  0  0  0
    8.6667   14.2895   24.9648 C   0  0  0  0  0  0  0  0  0  0  0  0
    6.9505   15.6626   23.0679 C   0  0  2  0  0  0  0  0  0  0  0  0
    7.1248   11.3624   25.5429 C   0  0  0  0  0  0  0  0  0  0  0  0
    2.9519   16.0617   23.0167 C   0  0  0  0  0  0  0  0  0  0  0  0
    8.4866    9.9848   24.1182 N   0  0  0  0  0  0  0  0  0  0  0  0
    8.0349   11.2113   24.4307 N   0  0  0  0  0  0  0  0  0  0  0  0
    8.1598   13.5927   23.7717 N   0  0  0  0  0  0  0  0  0  0  0  0
    5.5440   15.4355   23.2871 N   0  0  0  0  0  0  0  0  0  0  0  0
    7.3135   13.8417   21.5988 O   0  0  0  0  0  0  0  0  0  0  0  0
    4.8413   17.8014   22.5127 O   0  0  0  0  0  0  0  0  0  0  0  0
    4.4379   17.0906   24.8978 O   0  0  0  0  0  0  0  0  0  0  0  0
    4.5116   16.7766   23.4838 S   0  0  0  0  0  0  0  0  0  0  0  0
    9.8957   12.0342   21.9129 H   0  0  0  0  0  0  0  0  0  0  0  0
    9.7870    9.3773   22.6065 H   0  0  0  0  0  0  0  0  0  0  0  0
    8.3092   16.0052   26.2193 H   0  0  0  0  0  0  0  0  0  0  0  0
    6.8533   15.1165   25.7729 H   0  0  0  0  0  0  0  0  0  0  0  0
    6.9964   17.2659   24.5290 H   0  0  0  0  0  0  0  0  0  0  0  0
    8.5795   16.8185   23.8967 H   0  0  0  0  0  0  0  0  0  0  0  0
    9.6893   14.6210   24.7638 H   0  0  0  0  0  0  0  0  0  0  0  0
    8.7005   13.5486   25.7701 H   0  0  0  0  0  0  0  0  0  0  0  0
    7.0527   16.2668   22.1256 H   0  0  0  0  0  0  0  0  0  0  0  0
    6.1056   11.2621   25.1607 H   0  0  0  0  0  0  0  0  0  0  0  0
    7.3309   10.5904   26.2895 H   0  0  0  0  0  0  0  0  0  0  0  0
    7.2690   12.3470   25.9966 H   0  0  0  0  0  0  0  0  0  0  0  0
    2.1822   16.8307   23.0990 H   0  0  0  0  0  0  0  0  0  0  0  0
    3.0299   15.7073   21.9878 H   0  0  0  0  0  0  0  0  0  0  0  0
    2.7374   15.2321   23.6920 H   0  0  0  0  0  0  0  0  0  0  0  0
    5.3460   14.6021   23.8508 H   0  0  0  0  0  0  0  0  0  0  0  0
  1  2  1  0  0  0  0
  1  3  2  0  0  0  0
  2 11  2  0  0  0  0
  3 12  1  0  0  0  0
  3 13  1  0  0  0  0
  4  8  1  0  0  0  0
  4 13  1  0  0  0  0
  4 15  2  0  0  0  0
  5  6  1  0  0  0  0
  5  7  1  0  0  0  0
  6  8  1  0  0  0  0
  7 13  1  0  0  0  0
  8 14  1  0  0  0  0
  9 12  1  0  0  0  0
 10 18  1  0  0  0  0
 11 12  1  0  0  0  0
 14 18  1  0  0  0  0
 16 18  2  0  0  0  0
 17 18  2  0  0  0  0
  1 19  1  0  0  0  0
  2 20  1  0  0  0  0
  5 21  1  0  0  0  0
  5 22  1  0  0  0  0
  6 23  1  0  0  0  0
  6 24  1  0  0  0  0
  7 25  1  0  0  0  0
  7 26  1  0  0  0  0
  8 27  1  0  0  0  0
  9 28  1  0  0  0  0
  9 29  1  0  0  0  0
  9 30  1  0  0  0  0
 10 31  1  0  0  0  0
 10 32  1  0  0  0  0
 10 33  1  0  0  0  0
 14 34  1  0  0  0  0
M  END
> <Mol Weight>
272,32

> <Formula>
C10H16N4O3S

> <ID>
EN300-158304

> <name>
Sulfonamides

> <LogP>
-1,40

> <ROCS_ShapeQuery>
x0310_0A_x0719_0A_x1080_0A_x0739_0A_x0929_0A_x0526_0A_x0911_0A

> <ROCS_TanimotoCombo>
0.388 

> <ROCS_ShapeTanimoto>
0.218 

> <ROCS_ColorTanimoto>
0.170 

> <ROCS_RefTversky>
0.205 

> <ROCS_RefColorTversky>
0.186 

> <ROCS_RefTverskyCombo>
0.391 

> <ROCS_FitTversky>
1.413 

> <ROCS_FitColorTversky>
0.663 

> <ROCS_FitTverskyCombo>
2.076 

> <ROCS_ColorScore>
-5.418

> <ROCS_Overlap>
1646.091

> <ROCS_Rank>
16                  

$$$$
untitled-dbase-2422_4
  -OEChem-02092407103D

 31 32  0     0  0  0  0  0  0999 V2000
    9.8848   10.8730   23.9546 C   0  0  0  0  0  0  0  0  0  0  0  0
    9.2466   12.0279   24.4069 C   0  0  0  0  0  0  0  0  0  0  0  0
    9.2712   10.0672   22.9954 C   0  0  0  0  0  0  0  0  0  0  0  0
    7.9949   12.3770   23.9001 C   0  0  0  0  0  0  0  0  0  0  0  0
    8.0195   10.4163   22.4886 C   0  0  0  0  0  0  0  0  0  0  0  0
    3.7625   12.4972   21.0447 C   0  0  0  0  0  0  0  0  0  0  0  0
    4.5778   11.3382   19.0880 C   0  0  0  0  0  0  0  0  0  0  0  0
    2.5772   12.7971   20.3733 C   0  0  0  0  0  0  0  0  0  0  0  0
    3.3925   11.6379   18.4165 C   0  0  0  0  0  0  0  0  0  0  0  0
    7.3813   11.5713   22.9409 C   0  0  0  0  0  0  0  0  0  0  0  0
    4.7628   11.7678   20.4021 C   0  0  0  0  0  0  0  0  0  0  0  0
    2.3922   12.3674   19.0592 C   0  0  0  0  0  0  0  0  0  0  0  0
    6.0427   11.9438   22.3987 C   0  0  0  0  0  0  0  0  0  0  0  0
   -0.0479   11.3871   18.6237 N   0  0  0  0  0  0  0  0  0  0  0  0
    0.3239   13.9299   18.8269 O   0  0  0  0  0  0  0  0  0  0  0  0
    1.1704   12.7194   16.7859 O   0  0  0  0  0  0  0  0  0  0  0  0
    5.9269   11.4729   21.0617 O   0  0  0  0  0  0  0  0  0  0  0  0
    0.9087   12.7434   18.2182 S   0  0  0  0  0  0  0  0  0  0  0  0
   10.8601   10.6020   24.3484 H   0  0  0  0  0  0  0  0  0  0  0  0
    9.7247   12.6560   25.1529 H   0  0  0  0  0  0  0  0  0  0  0  0
    9.7683    9.1686   22.6423 H   0  0  0  0  0  0  0  0  0  0  0  0
    7.5050   13.2786   24.2584 H   0  0  0  0  0  0  0  0  0  0  0  0
    7.5490    9.7825   21.7416 H   0  0  0  0  0  0  0  0  0  0  0  0
    3.9006   12.8340   22.0686 H   0  0  0  0  0  0  0  0  0  0  0  0
    5.3534   10.7697   18.5821 H   0  0  0  0  0  0  0  0  0  0  0  0
    1.8046   13.3659   20.8834 H   0  0  0  0  0  0  0  0  0  0  0  0
    3.2588   11.2987   17.3929 H   0  0  0  0  0  0  0  0  0  0  0  0
    5.2320   11.5056   22.9966 H   0  0  0  0  0  0  0  0  0  0  0  0
    5.9024   13.0334   22.4026 H   0  0  0  0  0  0  0  0  0  0  0  0
   -0.8251   11.5248   19.2813 H   0  0  0  0  0  0  0  0  0  0  0  0
   -0.2444   10.6983   17.8873 H   0  0  0  0  0  0  0  0  0  0  0  0
  1  2  1  0  0  0  0
  1  3  2  0  0  0  0
  2  4  2  0  0  0  0
  3  5  1  0  0  0  0
  4 10  1  0  0  0  0
  5 10  2  0  0  0  0
  6  8  2  0  0  0  0
  6 11  1  0  0  0  0
  7  9  1  0  0  0  0
  7 11  2  0  0  0  0
  8 12  1  0  0  0  0
  9 12  2  0  0  0  0
 10 13  1  0  0  0  0
 11 17  1  0  0  0  0
 12 18  1  0  0  0  0
 13 17  1  0  0  0  0
 14 18  1  0  0  0  0
 15 18  2  0  0  0  0
 16 18  2  0  0  0  0
  1 19  1  0  0  0  0
  2 20  1  0  0  0  0
  3 21  1  0  0  0  0
  4 22  1  0  0  0  0
  5 23  1  0  0  0  0
  6 24  1  0  0  0  0
  7 25  1  0  0  0  0
  8 26  1  0  0  0  0
  9 27  1  0  0  0  0
 13 28  1  0  0  0  0
 13 29  1  0  0  0  0
 14 30  1  0  0  0  0
 14 31  1  0  0  0  0
M  END
> <Mol Weight>
263,31

> <Formula>
C13H13NO3S

> <ID>
EN300-153297

> <name>
Sulfonamides

> <LogP>
2,15

> <ROCS_ShapeQuery>
x0310_0A_x0719_0A_x1080_0A_x0739_0A_x0929_0A_x0526_0A_x0911_0A

> <ROCS_TanimotoCombo>
0.387 

> <ROCS_ShapeTanimoto>
0.233 

> <ROCS_ColorTanimoto>
0.154 

> <ROCS_RefTversky>
0.216 

> <ROCS_RefColorTversky>
0.167 

> <ROCS_RefTverskyCombo>
0.383 

> <ROCS_FitTversky>
1.493 

> <ROCS_FitColorTversky>
0.673 

> <ROCS_FitTverskyCombo>
2.165 

> <ROCS_ColorScore>
-4.854

> <ROCS_Overlap>
1731.663

> <ROCS_Rank>
17                  

$$$$
untitled-dbase-2534_4147
  -OEChem-02092407103D

 32 33  0     0  0  0  0  0  0999 V2000
    9.5984   11.8642   24.0535 C   0  0  0  0  0  0  0  0  0  0  0  0
    9.7857   11.0796   22.9156 C   0  0  0  0  0  0  0  0  0  0  0  0
    8.3130   12.0711   24.5542 C   0  0  0  0  0  0  0  0  0  0  0  0
    8.6876   10.5019   22.2782 C   0  0  0  0  0  0  0  0  0  0  0  0
    7.2149   11.4934   23.9168 C   0  0  0  0  0  0  0  0  0  0  0  0
    7.4022   10.7089   22.7788 C   0  0  0  0  0  0  0  0  0  0  0  0
    5.1345   10.4196   20.0108 C   0  0  0  0  0  0  0  0  0  0  0  0
    3.6510   11.4176   18.1465 C   0  0  0  0  0  0  0  0  0  0  0  0
    3.2572   12.1671   20.1140 C   0  0  0  0  0  0  0  0  0  0  0  0
    2.9442   12.6671   18.6952 C   0  0  0  0  0  0  0  0  0  0  0  0
    6.2205   10.0880   22.0936 C   0  0  0  0  0  0  0  0  0  0  0  0
    4.1654   11.2287   19.4875 N   0  0  0  0  0  0  0  0  0  0  0  0
    0.6580   11.3613   19.0416 N   0  0  0  0  0  0  0  0  0  0  0  0
    5.4339    9.3185   19.5575 O   0  0  0  0  0  0  0  0  0  0  0  0
    0.6810   13.9334   19.0147 O   0  0  0  0  0  0  0  0  0  0  0  0
    1.0791   12.6661   16.8651 O   0  0  0  0  0  0  0  0  0  0  0  0
    5.7264   10.9942   21.1012 O   0  0  0  0  0  0  0  0  0  0  0  0
    1.2196   12.7902   18.3032 S   0  0  0  0  0  0  0  0  0  0  0  0
   10.4537   12.3127   24.5505 H   0  0  0  0  0  0  0  0  0  0  0  0
   10.7866   10.9175   22.5262 H   0  0  0  0  0  0  0  0  0  0  0  0
    8.1669   12.6810   25.4408 H   0  0  0  0  0  0  0  0  0  0  0  0
    8.8431    9.8923   21.3920 H   0  0  0  0  0  0  0  0  0  0  0  0
    6.2171   11.6602   24.3140 H   0  0  0  0  0  0  0  0  0  0  0  0
    3.0093   10.5926   17.8247 H   0  0  0  0  0  0  0  0  0  0  0  0
    4.4229   11.6131   17.3984 H   0  0  0  0  0  0  0  0  0  0  0  0
    3.7484   12.8963   20.7631 H   0  0  0  0  0  0  0  0  0  0  0  0
    2.4445   11.6676   20.6493 H   0  0  0  0  0  0  0  0  0  0  0  0
    3.4655   13.5988   18.4442 H   0  0  0  0  0  0  0  0  0  0  0  0
    6.4988    9.1456   21.6097 H   0  0  0  0  0  0  0  0  0  0  0  0
    5.4232    9.8739   22.8135 H   0  0  0  0  0  0  0  0  0  0  0  0
    0.0927   11.4526   19.8946 H   0  0  0  0  0  0  0  0  0  0  0  0
    0.3640   10.5895   18.4306 H   0  0  0  0  0  0  0  0  0  0  0  0
  1  2  1  0  0  0  0
  1  3  2  0  0  0  0
  2  4  2  0  0  0  0
  3  5  1  0  0  0  0
  4  6  1  0  0  0  0
  5  6  2  0  0  0  0
  6 11  1  0  0  0  0
  7 12  1  0  0  0  0
  7 14  2  0  0  0  0
  7 17  1  0  0  0  0
  8 10  1  0  0  0  0
  8 12  1  0  0  0  0
  9 10  1  0  0  0  0
  9 12  1  0  0  0  0
 10 18  1  0  0  0  0
 11 17  1  0  0  0  0
 13 18  1  0  0  0  0
 15 18  2  0  0  0  0
 16 18  2  0  0  0  0
  1 19  1  0  0  0  0
  2 20  1  0  0  0  0
  3 21  1  0  0  0  0
  4 22  1  0  0  0  0
  5 23  1  0  0  0  0
  8 24  1  0  0  0  0
  8 25  1  0  0  0  0
  9 26  1  0  0  0  0
  9 27  1  0  0  0  0
 10 28  1  0  0  0  0
 11 29  1  0  0  0  0
 11 30  1  0  0  0  0
 13 31  1  0  0  0  0
 13 32  1  0  0  0  0
M  END
> <Mol Weight>
270,30

> <Formula>
C11H14N2O4S

> <ID>
EN300-97239

> <name>
Sulfonamides

> <LogP>
0,25

> <ROCS_ShapeQuery>
x0310_0A_x0719_0A_x1080_0A_x0739_0A_x0929_0A_x0526_0A_x0911_0A

> <ROCS_TanimotoCombo>
0.386 

> <ROCS_ShapeTanimoto>
0.228 

> <ROCS_ColorTanimoto>
0.158 

> <ROCS_RefTversky>
0.213 

> <ROCS_RefColorTversky>
0.170 

> <ROCS_RefTverskyCombo>
0.383 

> <ROCS_FitTversky>
1.476 

> <ROCS_FitColorTversky>
0.686 

> <ROCS_FitTverskyCombo>
2.161 

> <ROCS_ColorScore>
-4.949

> <ROCS_Overlap>
1706.218

> <ROCS_Rank>
18                  

$$$$
untitled-dbase-2788_204
  -OEChem-02092407103D

 31 32  0     0  0  0  0  0  0999 V2000
    9.1491    9.9676   23.4308 C   0  0  0  0  0  0  0  0  0  0  0  0
    9.6985   10.8130   24.3946 C   0  0  0  0  0  0  0  0  0  0  0  0
    3.6032   10.8640   18.3454 C   0  0  0  0  0  0  0  0  0  0  0  0
    8.1652   10.4442   22.5644 C   0  0  0  0  0  0  0  0  0  0  0  0
    4.6662   10.7074   19.2348 C   0  0  0  0  0  0  0  0  0  0  0  0
    9.2641   12.1348   24.4922 C   0  0  0  0  0  0  0  0  0  0  0  0
    2.5789   11.7656   18.6346 C   0  0  0  0  0  0  0  0  0  0  0  0
    3.6806   12.3539   20.7027 C   0  0  0  0  0  0  0  0  0  0  0  0
    7.7307   11.7661   22.6620 C   0  0  0  0  0  0  0  0  0  0  0  0
    4.7050   11.4523   20.4134 C   0  0  0  0  0  0  0  0  0  0  0  0
    8.2802   12.6114   23.6259 C   0  0  0  0  0  0  0  0  0  0  0  0
    2.6176   12.5105   19.8133 C   0  0  0  0  0  0  0  0  0  0  0  0
    6.7046   12.2588   21.7566 C   0  0  0  0  0  0  0  0  0  0  0  0
    0.2531   12.6351   21.0373 N   0  0  0  0  0  0  0  0  0  0  0  0
    5.7855   11.2934   21.3173 N   0  0  0  0  0  0  0  0  0  0  0  0
    6.6787   13.4395   21.3825 O   0  0  0  0  0  0  0  0  0  0  0  0
    1.8568   14.6530   21.0799 O   0  0  0  0  0  0  0  0  0  0  0  0
    0.7047   14.0390   18.9250 O   0  0  0  0  0  0  0  0  0  0  0  0
    7.8704   13.8839   23.7295 F   0  0  0  0  0  0  0  0  0  0  0  0
    1.3349   13.6381   20.1752 S   0  0  0  0  0  0  0  0  0  0  0  0
    9.4872    8.9384   23.3549 H   0  0  0  0  0  0  0  0  0  0  0  0
   10.4647   10.4420   25.0691 H   0  0  0  0  0  0  0  0  0  0  0  0
    3.5730   10.2845   17.4273 H   0  0  0  0  0  0  0  0  0  0  0  0
    7.7445    9.7762   21.8172 H   0  0  0  0  0  0  0  0  0  0  0  0
    5.4591   10.0022   18.9984 H   0  0  0  0  0  0  0  0  0  0  0  0
    9.6918   12.7932   25.2425 H   0  0  0  0  0  0  0  0  0  0  0  0
    1.7551   11.8796   17.9351 H   0  0  0  0  0  0  0  0  0  0  0  0
    3.7102   12.9353   21.6216 H   0  0  0  0  0  0  0  0  0  0  0  0
    0.1612   12.7833   22.0497 H   0  0  0  0  0  0  0  0  0  0  0  0
   -0.6238   12.3634   20.5763 H   0  0  0  0  0  0  0  0  0  0  0  0
    5.9110   10.3582   21.6968 H   0  0  0  0  0  0  0  0  0  0  0  0
  1  2  1  0  0  0  0
  1  4  2  0  0  0  0
  2  6  2  0  0  0  0
  3  5  1  0  0  0  0
  3  7  2  0  0  0  0
  4  9  1  0  0  0  0
  5 10  2  0  0  0  0
  6 11  1  0  0  0  0
  7 12  1  0  0  0  0
  8 10  1  0  0  0  0
  8 12  2  0  0  0  0
  9 11  2  0  0  0  0
  9 13  1  0  0  0  0
 10 15  1  0  0  0  0
 11 19  1  0  0  0  0
 12 20  1  0  0  0  0
 13 15  1  0  0  0  0
 13 16  2  0  0  0  0
 14 20  1  0  0  0  0
 17 20  2  0  0  0  0
 18 20  2  0  0  0  0
  1 21  1  0  0  0  0
  2 22  1  0  0  0  0
  3 23  1  0  0  0  0
  4 24  1  0  0  0  0
  5 25  1  0  0  0  0
  6 26  1  0  0  0  0
  7 27  1  0  0  0  0
  8 28  1  0  0  0  0
 14 29  1  0  0  0  0
 14 30  1  0  0  0  0
 15 31  1  0  0  0  0
M  END
> <Mol Weight>
294,30

> <Formula>
C13H11FN2O3S

> <ID>
EN300-26177738

> <name>
Sulfonamides

> <LogP>
1,81

> <ROCS_ShapeQuery>
x0310_0A_x0719_0A_x1080_0A_x0739_0A_x0929_0A_x0526_0A_x0911_0A

> <ROCS_TanimotoCombo>
0.386 

> <ROCS_ShapeTanimoto>
0.244 

> <ROCS_ColorTanimoto>
0.142 

> <ROCS_RefTversky>
0.227 

> <ROCS_RefColorTversky>
0.160 

> <ROCS_RefTverskyCombo>
0.386 

> <ROCS_FitTversky>
1.446 

> <ROCS_FitColorTversky>
0.569 

> <ROCS_FitTverskyCombo>
2.015 

> <ROCS_ColorScore>
-4.647

> <ROCS_Overlap>
1820.080

> <ROCS_Rank>
19                  

$$$$
untitled-dbase-2830_9136
  -OEChem-02092407103D

 31 31  0     0  0  0  0  0  0999 V2000
    4.2179   10.8402   18.6422 C   0  0  0  0  0  0  0  0  0  0  0  0
    3.1078   11.2083   17.8283 C   0  0  0  0  0  0  0  0  0  0  0  0
    4.1535   11.4112   19.8941 C   0  0  0  0  0  0  0  0  0  0  0  0
    2.2370   12.0465   18.4894 C   0  0  0  0  0  0  0  0  0  0  0  0
    8.3094   11.0597   24.7324 C   0  0  0  0  0  0  0  0  0  0  0  0
    5.1246   11.2728   21.0408 C   0  0  0  0  0  0  0  0  0  0  0  0
    4.8960   12.3047   22.1426 C   0  0  0  0  0  0  0  0  0  0  0  0
    8.5101   11.7663   23.4104 C   0  0  0  0  0  0  0  0  0  0  0  0
   -0.3953   11.6273   18.5081 N   0  0  0  0  0  0  0  0  0  0  0  0
    5.8658   12.1788   23.2454 N   0  0  0  0  0  0  0  0  0  0  0  0
    0.5550   13.9977   18.8596 O   0  0  0  0  0  0  0  0  0  0  0  0
    0.7043   12.9351   16.5801 O   0  0  0  0  0  0  0  0  0  0  0  0
    7.4059   13.9570   24.3227 O   0  0  0  0  0  0  0  0  0  0  0  0
    7.4905   13.5758   21.8319 O   0  0  0  0  0  0  0  0  0  0  0  0
    2.7589   12.3864   20.0845 S   0  0  0  0  0  0  0  0  0  0  0  0
    0.7274   12.8193   18.0279 S   0  0  0  0  0  0  0  0  0  0  0  0
    7.3214   13.0686   23.1801 S   0  0  0  0  0  0  0  0  0  0  0  0
    5.0211   10.1890   18.3215 H   0  0  0  0  0  0  0  0  0  0  0  0
    2.9570   10.8742   16.8099 H   0  0  0  0  0  0  0  0  0  0  0  0
    8.4278   11.7616   25.5632 H   0  0  0  0  0  0  0  0  0  0  0  0
    7.3086   10.6200   24.7943 H   0  0  0  0  0  0  0  0  0  0  0  0
    9.0364   10.2511   24.8597 H   0  0  0  0  0  0  0  0  0  0  0  0
    6.1438   11.3810   20.6486 H   0  0  0  0  0  0  0  0  0  0  0  0
    5.0669   10.2584   21.4555 H   0  0  0  0  0  0  0  0  0  0  0  0
    5.0090   13.3149   21.7367 H   0  0  0  0  0  0  0  0  0  0  0  0
    3.8930   12.2201   22.5735 H   0  0  0  0  0  0  0  0  0  0  0  0
    8.3935   11.0719   22.5738 H   0  0  0  0  0  0  0  0  0  0  0  0
    9.5024   12.2223   23.3570 H   0  0  0  0  0  0  0  0  0  0  0  0
   -0.4413   10.7615   17.9570 H   0  0  0  0  0  0  0  0  0  0  0  0
   -0.5459   11.4872   19.5146 H   0  0  0  0  0  0  0  0  0  0  0  0
    5.4326   12.0634   24.1708 H   0  0  0  0  0  0  0  0  0  0  0  0
  1  2  1  0  0  0  0
  1  3  2  0  0  0  0
  2  4  2  0  0  0  0
  3  6  1  0  0  0  0
  3 15  1  0  0  0  0
  4 15  1  0  0  0  0
  4 16  1  0  0  0  0
  5  8  1  0  0  0  0
  6  7  1  0  0  0  0
  7 10  1  0  0  0  0
  8 17  1  0  0  0  0
  9 16  1  0  0  0  0
 10 17  1  0  0  0  0
 11 16  2  0  0  0  0
 12 16  2  0  0  0  0
 13 17  2  0  0  0  0
 14 17  2  0  0  0  0
  1 18  1  0  0  0  0
  2 19  1  0  0  0  0
  5 20  1  0  0  0  0
  5 21  1  0  0  0  0
  5 22  1  0  0  0  0
  6 23  1  0  0  0  0
  6 24  1  0  0  0  0
  7 25  1  0  0  0  0
  7 26  1  0  0  0  0
  8 27  1  0  0  0  0
  8 28  1  0  0  0  0
  9 29  1  0  0  0  0
  9 30  1  0  0  0  0
 10 31  1  0  0  0  0
M  END
> <Mol Weight>
298,39

> <Formula>
C8H14N2O4S3

> <ID>
EN300-124626

> <name>
Sulfonamides

> <LogP>
-0,10

> <ROCS_ShapeQuery>
x0310_0A_x0719_0A_x1080_0A_x0739_0A_x0929_0A_x0526_0A_x0911_0A

> <ROCS_TanimotoCombo>
0.385 

> <ROCS_ShapeTanimoto>
0.226 

> <ROCS_ColorTanimoto>
0.158 

> <ROCS_RefTversky>
0.209 

> <ROCS_RefColorTversky>
0.175 

> <ROCS_RefTverskyCombo>
0.384 

> <ROCS_FitTversky>
1.598 

> <ROCS_FitColorTversky>
0.624 

> <ROCS_FitTverskyCombo>
2.221 

> <ROCS_ColorScore>
-5.096

> <ROCS_Overlap>
1671.877

> <ROCS_Rank>
20                  

$$$$
untitled-dbase-2512_11
  -OEChem-02092407103D

 30 31  0     0  0  0  0  0  0999 V2000
    3.8879   12.4622   21.0967 C   0  0  0  0  0  0  0  0  0  0  0  0
    4.6399   11.2208   19.1653 C   0  0  0  0  0  0  0  0  0  0  0  0
    2.7049   12.7822   20.4305 C   0  0  0  0  0  0  0  0  0  0  0  0
    3.4569   11.5407   18.4990 C   0  0  0  0  0  0  0  0  0  0  0  0
    9.2984   10.4868   23.4256 C   0  0  0  0  0  0  0  0  0  0  0  0
    4.8554   11.6815   20.4641 C   0  0  0  0  0  0  0  0  0  0  0  0
    2.4894   12.3214   19.1317 C   0  0  0  0  0  0  0  0  0  0  0  0
    7.5031   11.4499   22.9711 C   0  0  0  0  0  0  0  0  0  0  0  0
    7.8534   13.4401   24.4813 C   0  0  0  0  0  0  0  0  0  0  0  0
    6.1646   11.8721   22.4403 C   0  0  0  0  0  0  0  0  0  0  0  0
    8.1714   10.3623   22.6646 N   0  0  0  0  0  0  0  0  0  0  0  0
    9.3694   11.5831   24.1836 N   0  0  0  0  0  0  0  0  0  0  0  0
    8.2091   12.1816   23.8743 N   0  0  0  0  0  0  0  0  0  0  0  0
    0.0129   11.4113   18.7529 N   0  0  0  0  0  0  0  0  0  0  0  0
    0.4714   13.9451   18.8778 O   0  0  0  0  0  0  0  0  0  0  0  0
    1.2519   12.6488   16.8633 O   0  0  0  0  0  0  0  0  0  0  0  0
    6.0096   11.3688   21.1143 O   0  0  0  0  0  0  0  0  0  0  0  0
    1.0089   12.7227   18.2971 S   0  0  0  0  0  0  0  0  0  0  0  0
    4.0498   12.8233   22.1087 H   0  0  0  0  0  0  0  0  0  0  0  0
    5.3899   10.6124   18.6673 H   0  0  0  0  0  0  0  0  0  0  0  0
    1.9581   13.3910   20.9327 H   0  0  0  0  0  0  0  0  0  0  0  0
    3.2993   11.1770   17.4873 H   0  0  0  0  0  0  0  0  0  0  0  0
   10.0927    9.7558   23.4276 H   0  0  0  0  0  0  0  0  0  0  0  0
    7.3015   13.2272   25.4007 H   0  0  0  0  0  0  0  0  0  0  0  0
    8.7618   14.0070   24.7034 H   0  0  0  0  0  0  0  0  0  0  0  0
    7.2339   14.0142   23.7866 H   0  0  0  0  0  0  0  0  0  0  0  0
    5.3544   11.4837   23.0667 H   0  0  0  0  0  0  0  0  0  0  0  0
    6.0818   12.9642   22.4220 H   0  0  0  0  0  0  0  0  0  0  0  0
   -0.7510   11.5938   19.4151 H   0  0  0  0  0  0  0  0  0  0  0  0
   -0.2154   10.7087   18.0391 H   0  0  0  0  0  0  0  0  0  0  0  0
  1  3  2  0  0  0  0
  1  6  1  0  0  0  0
  2  4  1  0  0  0  0
  2  6  2  0  0  0  0
  3  7  1  0  0  0  0
  4  7  2  0  0  0  0
  5 11  1  0  0  0  0
  5 12  2  0  0  0  0
  6 17  1  0  0  0  0
  7 18  1  0  0  0  0
  8 10  1  0  0  0  0
  8 11  2  0  0  0  0
  8 13  1  0  0  0  0
  9 13  1  0  0  0  0
 10 17  1  0  0  0  0
 12 13  1  0  0  0  0
 14 18  1  0  0  0  0
 15 18  2  0  0  0  0
 16 18  2  0  0  0  0
  1 19  1  0  0  0  0
  2 20  1  0  0  0  0
  3 21  1  0  0  0  0
  4 22  1  0  0  0  0
  5 23  1  0  0  0  0
  9 24  1  0  0  0  0
  9 25  1  0  0  0  0
  9 26  1  0  0  0  0
 10 27  1  0  0  0  0
 10 28  1  0  0  0  0
 14 29  1  0  0  0  0
 14 30  1  0  0  0  0
M  END
> <Mol Weight>
268,29

> <Formula>
C10H12N4O3S

> <ID>
EN300-114711

> <name>
Sulfonamides

> <LogP>
-0,04

> <ROCS_ShapeQuery>
x0310_0A_x0719_0A_x1080_0A_x0739_0A_x0929_0A_x0526_0A_x0911_0A

> <ROCS_TanimotoCombo>
0.384 

> <ROCS_ShapeTanimoto>
0.244 

> <ROCS_ColorTanimoto>
0.140 

> <ROCS_RefTversky>
0.225 

> <ROCS_RefColorTversky>
0.162 

> <ROCS_RefTverskyCombo>
0.387 

> <ROCS_FitTversky>
1.536 

> <ROCS_FitColorTversky>
0.516 

> <ROCS_FitTverskyCombo>
2.052 

> <ROCS_ColorScore>
-4.714

> <ROCS_Overlap>
1803.403

> <ROCS_Rank>
21                  

$$$$
untitled-dbase-2366_6845
  -OEChem-02092407103D

 31 31  0     0  0  0  0  0  0999 V2000
    9.1361    9.9692   23.3996 C   0  0  0  0  0  0  0  0  0  0  0  0
    8.2001   10.2579   24.3926 C   0  0  0  0  0  0  0  0  0  0  0  0
    9.7216   11.0046   22.6708 C   0  0  0  0  0  0  0  0  0  0  0  0
    7.8494   11.5818   24.6568 C   0  0  0  0  0  0  0  0  0  0  0  0
    9.3708   12.3285   22.9350 C   0  0  0  0  0  0  0  0  0  0  0  0
    8.4348   12.6172   23.9280 C   0  0  0  0  0  0  0  0  0  0  0  0
    7.1549   15.4473   22.5283 C   0  0  0  0  0  0  0  0  0  0  0  0
    8.0578   14.0416   24.2116 C   0  0  0  0  0  0  0  0  0  0  0  0
    5.4827   14.1691   21.1975 C   0  0  0  0  0  0  0  0  0  0  0  0
    5.3229   13.8261   19.7288 C   0  0  0  0  0  0  0  0  0  0  0  0
    2.7482   13.1843   19.6301 N   0  0  0  0  0  0  0  0  0  0  0  0
    6.3750   15.2868   21.4024 N   0  0  0  0  0  0  0  0  0  0  0  0
    7.9235   16.3794   22.7405 O   0  0  0  0  0  0  0  0  0  0  0  0
    4.4347   11.9823   18.1044 O   0  0  0  0  0  0  0  0  0  0  0  0
    4.4557   11.5158   20.5878 O   0  0  0  0  0  0  0  0  0  0  0  0
    6.9455   14.4040   23.3857 O   0  0  0  0  0  0  0  0  0  0  0  0
    4.2700   12.4315   19.4758 S   0  0  0  0  0  0  0  0  0  0  0  0
    9.4101    8.9384   23.1949 H   0  0  0  0  0  0  0  0  0  0  0  0
    7.7450    9.4520   24.9609 H   0  0  0  0  0  0  0  0  0  0  0  0
   10.4511   10.7803   21.8983 H   0  0  0  0  0  0  0  0  0  0  0  0
    7.1190   11.7973   25.4323 H   0  0  0  0  0  0  0  0  0  0  0  0
    9.8320   13.1286   22.3621 H   0  0  0  0  0  0  0  0  0  0  0  0
    7.7793   14.1713   25.2629 H   0  0  0  0  0  0  0  0  0  0  0  0
    8.8963   14.7140   24.0002 H   0  0  0  0  0  0  0  0  0  0  0  0
    4.5229   14.4241   21.6573 H   0  0  0  0  0  0  0  0  0  0  0  0
    5.9091   13.3186   21.7382 H   0  0  0  0  0  0  0  0  0  0  0  0
    6.2906   13.5619   19.2920 H   0  0  0  0  0  0  0  0  0  0  0  0
    4.8947   14.6580   19.1615 H   0  0  0  0  0  0  0  0  0  0  0  0
    2.4607   13.4947   20.5664 H   0  0  0  0  0  0  0  0  0  0  0  0
    2.4465   13.8123   18.8749 H   0  0  0  0  0  0  0  0  0  0  0  0
    6.4310   15.9942   20.6763 H   0  0  0  0  0  0  0  0  0  0  0  0
  1  2  1  0  0  0  0
  1  3  2  0  0  0  0
  2  4  2  0  0  0  0
  3  5  1  0  0  0  0
  4  6  1  0  0  0  0
  5  6  2  0  0  0  0
  6  8  1  0  0  0  0
  7 12  1  0  0  0  0
  7 13  2  0  0  0  0
  7 16  1  0  0  0  0
  8 16  1  0  0  0  0
  9 10  1  0  0  0  0
  9 12  1  0  0  0  0
 10 17  1  0  0  0  0
 11 17  1  0  0  0  0
 14 17  2  0  0  0  0
 15 17  2  0  0  0  0
  1 18  1  0  0  0  0
  2 19  1  0  0  0  0
  3 20  1  0  0  0  0
  4 21  1  0  0  0  0
  5 22  1  0  0  0  0
  8 23  1  0  0  0  0
  8 24  1  0  0  0  0
  9 25  1  0  0  0  0
  9 26  1  0  0  0  0
 10 27  1  0  0  0  0
 10 28  1  0  0  0  0
 11 29  1  0  0  0  0
 11 30  1  0  0  0  0
 12 31  1  0  0  0  0
M  END
> <Mol Weight>
258,29

> <Formula>
C10H14N2O4S

> <ID>
EN300-218604

> <name>
Sulfonamides

> <LogP>
-0,02

> <ROCS_ShapeQuery>
x0310_0A_x0719_0A_x1080_0A_x0739_0A_x0929_0A_x0526_0A_x0911_0A

> <ROCS_TanimotoCombo>
0.383 

> <ROCS_ShapeTanimoto>
0.234 

> <ROCS_ColorTanimoto>
0.149 

> <ROCS_RefTversky>
0.215 

> <ROCS_RefColorTversky>
0.162 

> <ROCS_RefTverskyCombo>
0.377 

> <ROCS_FitTversky>
1.579 

> <ROCS_FitColorTversky>
0.652 

> <ROCS_FitTverskyCombo>
2.231 

> <ROCS_ColorScore>
-4.707

> <ROCS_Overlap>
1724.275

> <ROCS_Rank>
22                  

$$$$
untitled-dbase-2552_415
  -OEChem-02092407103D

 35 36  0     1  0  0  0  0  0999 V2000
    4.5736   11.0853   18.9721 C   0  0  0  0  0  0  0  0  0  0  0  0
    3.3889   11.4900   18.3572 C   0  0  0  0  0  0  0  0  0  0  0  0
    3.9039   12.2100   21.0028 C   0  0  0  0  0  0  0  0  0  0  0  0
    2.7191   12.6148   20.3878 C   0  0  0  0  0  0  0  0  0  0  0  0
    4.8311   11.4453   20.2950 C   0  0  0  0  0  0  0  0  0  0  0  0
    2.4616   12.2547   19.0650 C   0  0  0  0  0  0  0  0  0  0  0  0
    9.5599   10.7247   23.5977 C   0  0  0  0  0  0  0  0  0  0  0  0
    8.3780   10.2752   22.7759 C   0  0  0  0  0  0  0  0  0  0  0  0
    8.9534   11.8251   24.4422 C   0  0  0  0  0  0  0  0  0  0  0  0
    7.6781   11.5957   22.5052 C   0  0  1  0  0  0  0  0  0  0  0  0
    1.7471   13.4330   21.1734 C   0  0  0  0  0  0  0  0  0  0  0  0
    6.1913   11.4502   22.2458 C   0  0  0  0  0  0  0  0  0  0  0  0
   -0.0382   11.4296   18.6470 N   0  0  0  0  0  0  0  0  0  0  0  0
    0.4830   13.9393   18.9213 O   0  0  0  0  0  0  0  0  0  0  0  0
    1.2222   12.7481   16.8278 O   0  0  0  0  0  0  0  0  0  0  0  0
    7.8929   12.4090   23.6708 O   0  0  0  0  0  0  0  0  0  0  0  0
    5.9966   11.0476   20.8992 O   0  0  0  0  0  0  0  0  0  0  0  0
    0.9844   12.7425   18.2632 S   0  0  0  0  0  0  0  0  0  0  0  0
    5.2920   10.4896   18.4156 H   0  0  0  0  0  0  0  0  0  0  0  0
    3.1987   11.2020   17.3267 H   0  0  0  0  0  0  0  0  0  0  0  0
    4.1087   12.4887   22.0337 H   0  0  0  0  0  0  0  0  0  0  0  0
   10.0105    9.9275   24.1945 H   0  0  0  0  0  0  0  0  0  0  0  0
   10.3334   11.1401   22.9408 H   0  0  0  0  0  0  0  0  0  0  0  0
    8.6606    9.7481   21.8605 H   0  0  0  0  0  0  0  0  0  0  0  0
    7.7455    9.6093   23.3754 H   0  0  0  0  0  0  0  0  0  0  0  0
    8.5134   11.4224   25.3607 H   0  0  0  0  0  0  0  0  0  0  0  0
    9.6805   12.5960   24.7124 H   0  0  0  0  0  0  0  0  0  0  0  0
    8.1519   12.1098   21.6603 H   0  0  0  0  0  0  0  0  0  0  0  0
    1.9620   14.5006   21.0490 H   0  0  0  0  0  0  0  0  0  0  0  0
    0.7166   13.2434   20.8490 H   0  0  0  0  0  0  0  0  0  0  0  0
    1.7959   13.1883   22.2416 H   0  0  0  0  0  0  0  0  0  0  0  0
    5.6809   12.4033   22.4077 H   0  0  0  0  0  0  0  0  0  0  0  0
    5.7608   10.6938   22.9073 H   0  0  0  0  0  0  0  0  0  0  0  0
    0.1417   10.5289   18.1868 H   0  0  0  0  0  0  0  0  0  0  0  0
   -0.3659   11.3421   19.6167 H   0  0  0  0  0  0  0  0  0  0  0  0
  1  2  2  0  0  0  0
  1  5  1  0  0  0  0
  2  6  1  0  0  0  0
  3  4  1  0  0  0  0
  3  5  2  0  0  0  0
  4  6  2  0  0  0  0
  4 11  1  0  0  0  0
  5 17  1  0  0  0  0
  6 18  1  0  0  0  0
  7  8  1  0  0  0  0
  7  9  1  0  0  0  0
  8 10  1  0  0  0  0
  9 16  1  0  0  0  0
 10 12  1  0  0  0  0
 10 16  1  0  0  0  0
 12 17  1  0  0  0  0
 13 18  1  0  0  0  0
 14 18  2  0  0  0  0
 15 18  2  0  0  0  0
  1 19  1  0  0  0  0
  2 20  1  0  0  0  0
  3 21  1  0  0  0  0
  7 22  1  0  0  0  0
  7 23  1  0  0  0  0
  8 24  1  0  0  0  0
  8 25  1  0  0  0  0
  9 26  1  0  0  0  0
  9 27  1  0  0  0  0
 10 28  1  0  0  0  0
 11 29  1  0  0  0  0
 11 30  1  0  0  0  0
 11 31  1  0  0  0  0
 12 32  1  0  0  0  0
 12 33  1  0  0  0  0
 13 34  1  0  0  0  0
 13 35  1  0  0  0  0
M  END
> <Mol Weight>
271,33

> <Formula>
C12H17NO4S

> <ID>
EN300-205327

> <name>
Sulfonamides

> <LogP>
1,35

> <ROCS_ShapeQuery>
x0310_0A_x0719_0A_x1080_0A_x0739_0A_x0929_0A_x0526_0A_x0911_0A

> <ROCS_TanimotoCombo>
0.381 

> <ROCS_ShapeTanimoto>
0.230 

> <ROCS_ColorTanimoto>
0.150 

> <ROCS_RefTversky>
0.214 

> <ROCS_RefColorTversky>
0.167 

> <ROCS_RefTverskyCombo>
0.381 

> <ROCS_FitTversky>
1.490 

> <ROCS_FitColorTversky>
0.596 

> <ROCS_FitTverskyCombo>
2.086 

> <ROCS_ColorScore>
-4.866

> <ROCS_Overlap>
1716.916

> <ROCS_Rank>
23                  

$$$$
untitled-dbase-2264_6
  -OEChem-02092407103D

 29 30  0     0  0  0  0  0  0999 V2000
    9.5464   10.6299   23.5139 C   0  0  0  0  0  0  0  0  0  0  0  0
    3.7620   12.5313   21.1131 C   0  0  0  0  0  0  0  0  0  0  0  0
    4.6029   11.3530   19.1787 C   0  0  0  0  0  0  0  0  0  0  0  0
    2.5854   12.8238   20.4234 C   0  0  0  0  0  0  0  0  0  0  0  0
    3.4263   11.6455   18.4891 C   0  0  0  0  0  0  0  0  0  0  0  0
    8.3832   10.4527   22.7272 C   0  0  0  0  0  0  0  0  0  0  0  0
    9.3515   11.7889   24.2284 C   0  0  0  0  0  0  0  0  0  0  0  0
    4.7708   11.7959   20.4907 C   0  0  0  0  0  0  0  0  0  0  0  0
    2.4175   12.3809   19.1114 C   0  0  0  0  0  0  0  0  0  0  0  0
    7.5603   11.5160   23.0174 C   0  0  0  0  0  0  0  0  0  0  0  0
    6.1984   11.9224   22.5331 C   0  0  0  0  0  0  0  0  0  0  0  0
   -0.0160   11.3943   18.6536 N   0  0  0  0  0  0  0  0  0  0  0  0
    5.9608   11.4999   21.1876 N   0  0  0  0  0  0  0  0  0  0  0  0
    0.3515   13.9393   18.8357 O   0  0  0  0  0  0  0  0  0  0  0  0
    1.2258   12.7087   16.8186 O   0  0  0  0  0  0  0  0  0  0  0  0
    8.1431   12.3352   23.9316 O   0  0  0  0  0  0  0  0  0  0  0  0
    0.9454   12.7471   18.2472 S   0  0  0  0  0  0  0  0  0  0  0  0
   10.4180    9.9929   23.5546 H   0  0  0  0  0  0  0  0  0  0  0  0
    3.8824   12.8816   22.1350 H   0  0  0  0  0  0  0  0  0  0  0  0
    5.3823   10.7783   18.6846 H   0  0  0  0  0  0  0  0  0  0  0  0
    1.8063   13.3975   20.9181 H   0  0  0  0  0  0  0  0  0  0  0  0
    3.3064   11.2955   17.4671 H   0  0  0  0  0  0  0  0  0  0  0  0
    8.1741    9.6491   22.0355 H   0  0  0  0  0  0  0  0  0  0  0  0
    9.9447   12.3304   24.9506 H   0  0  0  0  0  0  0  0  0  0  0  0
    5.4177   11.4869   23.1663 H   0  0  0  0  0  0  0  0  0  0  0  0
    6.0770   13.0101   22.5689 H   0  0  0  0  0  0  0  0  0  0  0  0
   -0.8019   11.5381   19.2994 H   0  0  0  0  0  0  0  0  0  0  0  0
   -0.2022   10.6979   17.9217 H   0  0  0  0  0  0  0  0  0  0  0  0
    6.6554   10.9699   20.6960 H   0  0  0  0  0  0  0  0  0  0  0  0
  1  6  1  0  0  0  0
  1  7  2  0  0  0  0
  2  4  2  0  0  0  0
  2  8  1  0  0  0  0
  3  5  1  0  0  0  0
  3  8  2  0  0  0  0
  4  9  1  0  0  0  0
  5  9  2  0  0  0  0
  6 10  2  0  0  0  0
  7 16  1  0  0  0  0
  8 13  1  0  0  0  0
  9 17  1  0  0  0  0
 10 11  1  0  0  0  0
 10 16  1  0  0  0  0
 11 13  1  0  0  0  0
 12 17  1  0  0  0  0
 14 17  2  0  0  0  0
 15 17  2  0  0  0  0
  1 18  1  0  0  0  0
  2 19  1  0  0  0  0
  3 20  1  0  0  0  0
  4 21  1  0  0  0  0
  5 22  1  0  0  0  0
  6 23  1  0  0  0  0
  7 24  1  0  0  0  0
 11 25  1  0  0  0  0
 11 26  1  0  0  0  0
 12 27  1  0  0  0  0
 12 28  1  0  0  0  0
 13 29  1  0  0  0  0
M  END
> <Mol Weight>
252,29

> <Formula>
C11H12N2O3S

> <ID>
EN300-6496390

> <name>
Sulfonamides

> <LogP>
0,84

> <ROCS_ShapeQuery>
x0310_0A_x0719_0A_x1080_0A_x0739_0A_x0929_0A_x0526_0A_x0911_0A

> <ROCS_TanimotoCombo>
0.378 

> <ROCS_ShapeTanimoto>
0.226 

> <ROCS_ColorTanimoto>
0.152 

> <ROCS_RefTversky>
0.210 

> <ROCS_RefColorTversky>
0.169 

> <ROCS_RefTverskyCombo>
0.379 

> <ROCS_FitTversky>
1.501 

> <ROCS_FitColorTversky>
0.602 

> <ROCS_FitTverskyCombo>
2.103 

> <ROCS_ColorScore>
-4.920

> <ROCS_Overlap>
1683.952

> <ROCS_Rank>
24                  

$$$$
untitled-dbase-1010_20
  -OEChem-02092407103D

 22 22  0     0  0  0  0  0  0999 V2000
    9.4923   12.4696   23.2424 C   0  0  0  0  0  0  0  0  0  0  0  0
   10.0215   11.2473   22.8433 C   0  0  0  0  0  0  0  0  0  0  0  0
    7.8133   11.2909   24.4458 C   0  0  0  0  0  0  0  0  0  0  0  0
    8.3673   12.5005   24.0589 C   0  0  0  0  0  0  0  0  0  0  0  0
    9.3936   10.0938   23.2848 C   0  0  0  0  0  0  0  0  0  0  0  0
    7.7771   13.7916   24.5021 C   0  0  0  0  0  0  0  0  0  0  0  0
    6.7088   14.3418   23.5505 C   0  0  0  0  0  0  0  0  0  0  0  0
    8.2992   10.0840   24.0785 N   0  0  0  0  0  0  0  0  0  0  0  0
    6.1517   15.6944   21.3344 N   0  0  0  0  0  0  0  0  0  0  0  0
    8.5989   15.2810   22.0101 O   0  0  0  0  0  0  0  0  0  0  0  0
    7.1962   13.3486   21.1833 O   0  0  0  0  0  0  0  0  0  0  0  0
    9.8933    8.9069   22.9073 F   0  0  0  0  0  0  0  0  0  0  0  0
    7.3208   14.5975   21.9144 S   0  0  0  0  0  0  0  0  0  0  0  0
    9.9630   13.3920   22.9132 H   0  0  0  0  0  0  0  0  0  0  0  0
   10.8981   11.1996   22.2078 H   0  0  0  0  0  0  0  0  0  0  0  0
    6.9352   11.2530   25.0827 H   0  0  0  0  0  0  0  0  0  0  0  0
    8.5737   14.5526   24.5907 H   0  0  0  0  0  0  0  0  0  0  0  0
    7.3448   13.7096   25.5162 H   0  0  0  0  0  0  0  0  0  0  0  0
    5.8786   13.6349   23.4527 H   0  0  0  0  0  0  0  0  0  0  0  0
    6.3071   15.2989   23.8968 H   0  0  0  0  0  0  0  0  0  0  0  0
    5.2076   15.3337   21.1492 H   0  0  0  0  0  0  0  0  0  0  0  0
    6.1631   16.6497   21.7122 H   0  0  0  0  0  0  0  0  0  0  0  0
  1  2  2  0  0  0  0
  1  4  1  0  0  0  0
  2  5  1  0  0  0  0
  3  4  2  0  0  0  0
  3  8  1  0  0  0  0
  4  6  1  0  0  0  0
  5  8  2  0  0  0  0
  5 12  1  0  0  0  0
  6  7  1  0  0  0  0
  7 13  1  0  0  0  0
  9 13  1  0  0  0  0
 10 13  2  0  0  0  0
 11 13  2  0  0  0  0
  1 14  1  0  0  0  0
  2 15  1  0  0  0  0
  3 16  1  0  0  0  0
  6 17  1  0  0  0  0
  6 18  1  0  0  0  0
  7 19  1  0  0  0  0
  7 20  1  0  0  0  0
  9 21  1  0  0  0  0
  9 22  1  0  0  0  0
M  END
> <Mol Weight>
204,22

> <Formula>
C7H9FN2O2S

> <ID>
EN300-7443177

> <name>
Sulfonamides

> <LogP>
-0,05

> <ROCS_ShapeQuery>
x0310_0A_x0719_0A_x1080_0A_x0739_0A_x0929_0A_x0526_0A_x0911_0A

> <ROCS_TanimotoCombo>
0.378 

> <ROCS_ShapeTanimoto>
0.184 

> <ROCS_ColorTanimoto>
0.193 

> <ROCS_RefTversky>
0.174 

> <ROCS_RefColorTversky>
0.197 

> <ROCS_RefTverskyCombo>
0.371 

> <ROCS_FitTversky>
1.493 

> <ROCS_FitColorTversky>
0.912 

> <ROCS_FitTverskyCombo>
2.405 

> <ROCS_ColorScore>
-5.716

> <ROCS_Overlap>
1391.161

> <ROCS_Rank>
25                  

$$$$
untitled-dbase-2301_5
  -OEChem-02092407103D

 27 28  0     0  0  0  0  0  0999 V2000
    8.3791    8.2011   23.0734 C   0  0  0  0  0  0  0  0  0  0  0  0
    9.6876    8.4260   22.5992 C   0  0  0  0  0  0  0  0  0  0  0  0
    7.6249    9.2419   23.6227 C   0  0  0  0  0  0  0  0  0  0  0  0
   10.2675    9.6962   22.6646 C   0  0  0  0  0  0  0  0  0  0  0  0
    8.2173   10.4867   23.6770 C   0  0  0  0  0  0  0  0  0  0  0  0
    9.5047   10.7082   23.2101 C   0  0  0  0  0  0  0  0  0  0  0  0
    7.6962   11.7541   24.1873 C   0  0  0  0  0  0  0  0  0  0  0  0
    9.8250   12.1207   23.4152 C   0  0  0  0  0  0  0  0  0  0  0  0
    8.5966   14.0739   24.3616 C   0  0  0  0  0  0  0  0  0  0  0  0
    7.4141   14.7510   23.6957 C   0  0  0  0  0  0  0  0  0  0  0  0
    8.7041   12.6758   23.9949 N   0  0  0  0  0  0  0  0  0  0  0  0
    6.0947   15.5536   21.5355 N   0  0  0  0  0  0  0  0  0  0  0  0
    6.5877   11.8926   24.6701 O   0  0  0  0  0  0  0  0  0  0  0  0
   10.8880   12.6284   23.1097 O   0  0  0  0  0  0  0  0  0  0  0  0
    8.6669   15.5735   21.5553 O   0  0  0  0  0  0  0  0  0  0  0  0
    7.4433   13.3638   21.4815 O   0  0  0  0  0  0  0  0  0  0  0  0
    7.5390   14.7405   21.9344 S   0  0  0  0  0  0  0  0  0  0  0  0
    7.9530    7.2031   23.0099 H   0  0  0  0  0  0  0  0  0  0  0  0
   10.2517    7.5983   22.1772 H   0  0  0  0  0  0  0  0  0  0  0  0
    6.6193    9.0685   23.9876 H   0  0  0  0  0  0  0  0  0  0  0  0
   11.2732    9.8686   22.3002 H   0  0  0  0  0  0  0  0  0  0  0  0
    9.5404   14.5590   24.0940 H   0  0  0  0  0  0  0  0  0  0  0  0
    8.4868   14.1096   25.4498 H   0  0  0  0  0  0  0  0  0  0  0  0
    7.3609   15.8028   23.9922 H   0  0  0  0  0  0  0  0  0  0  0  0
    6.4689   14.2633   23.9527 H   0  0  0  0  0  0  0  0  0  0  0  0
    5.2085   15.0553   21.6841 H   0  0  0  0  0  0  0  0  0  0  0  0
    6.0420   16.5602   21.7342 H   0  0  0  0  0  0  0  0  0  0  0  0
  1  2  1  0  0  0  0
  1  3  2  0  0  0  0
  2  4  2  0  0  0  0
  3  5  1  0  0  0  0
  4  6  1  0  0  0  0
  5  6  2  0  0  0  0
  5  7  1  0  0  0  0
  6  8  1  0  0  0  0
  7 11  1  0  0  0  0
  7 13  2  0  0  0  0
  8 11  1  0  0  0  0
  8 14  2  0  0  0  0
  9 10  1  0  0  0  0
  9 11  1  0  0  0  0
 10 17  1  0  0  0  0
 12 17  1  0  0  0  0
 15 17  2  0  0  0  0
 16 17  2  0  0  0  0
  1 18  1  0  0  0  0
  2 19  1  0  0  0  0
  3 20  1  0  0  0  0
  4 21  1  0  0  0  0
  9 22  1  0  0  0  0
  9 23  1  0  0  0  0
 10 24  1  0  0  0  0
 10 25  1  0  0  0  0
 12 26  1  0  0  0  0
 12 27  1  0  0  0  0
M  END
> <Mol Weight>
254,26

> <Formula>
C10H10N2O4S

> <ID>
EN300-29863

> <name>
Sulfonamides

> <LogP>
-0,64

> <ROCS_ShapeQuery>
x0310_0A_x0719_0A_x1080_0A_x0739_0A_x0929_0A_x0526_0A_x0911_0A

> <ROCS_TanimotoCombo>
0.376 

> <ROCS_ShapeTanimoto>
0.210 

> <ROCS_ColorTanimoto>
0.165 

> <ROCS_RefTversky>
0.198 

> <ROCS_RefColorTversky>
0.182 

> <ROCS_RefTverskyCombo>
0.380 

> <ROCS_FitTversky>
1.401 

> <ROCS_FitColorTversky>
0.647 

> <ROCS_FitTverskyCombo>
2.048 

> <ROCS_ColorScore>
-5.295

> <ROCS_Overlap>
1589.210

> <ROCS_Rank>
26                  

$$$$
untitled-dbase-1480_20
  -OEChem-02092407103D

 22 22  0     0  0  0  0  0  0999 V2000
    9.4923   12.4693   23.2432 C   0  0  0  0  0  0  0  0  0  0  0  0
   10.0221   11.2471   22.8447 C   0  0  0  0  0  0  0  0  0  0  0  0
    7.8125   11.2902   24.4451 C   0  0  0  0  0  0  0  0  0  0  0  0
    8.3665   12.5000   24.0586 C   0  0  0  0  0  0  0  0  0  0  0  0
    9.3941   10.0934   23.2856 C   0  0  0  0  0  0  0  0  0  0  0  0
    7.7763   13.7912   24.5020 C   0  0  0  0  0  0  0  0  0  0  0  0
    6.7082   14.3415   23.5503 C   0  0  0  0  0  0  0  0  0  0  0  0
    8.2990   10.0834   24.0783 N   0  0  0  0  0  0  0  0  0  0  0  0
    6.1515   15.6944   21.3343 N   0  0  0  0  0  0  0  0  0  0  0  0
    8.5986   15.2808   22.0104 O   0  0  0  0  0  0  0  0  0  0  0  0
    7.1960   13.3485   21.1830 O   0  0  0  0  0  0  0  0  0  0  0  0
    7.3205   14.5974   21.9143 S   0  0  0  0  0  0  0  0  0  0  0  0
    9.9777    8.5419   22.8444 Cl  0  0  0  0  0  0  0  0  0  0  0  0
    9.9623   13.3917   22.9137 H   0  0  0  0  0  0  0  0  0  0  0  0
   10.9001   11.2131   22.2082 H   0  0  0  0  0  0  0  0  0  0  0  0
    6.9337   11.2511   25.0816 H   0  0  0  0  0  0  0  0  0  0  0  0
    8.5729   14.5520   24.5909 H   0  0  0  0  0  0  0  0  0  0  0  0
    7.3439   13.7088   25.5159 H   0  0  0  0  0  0  0  0  0  0  0  0
    5.8781   13.6346   23.4522 H   0  0  0  0  0  0  0  0  0  0  0  0
    6.3064   15.2985   23.8967 H   0  0  0  0  0  0  0  0  0  0  0  0
    5.2075   15.3338   21.1489 H   0  0  0  0  0  0  0  0  0  0  0  0
    6.1630   16.6497   21.7122 H   0  0  0  0  0  0  0  0  0  0  0  0
  1  2  2  0  0  0  0
  1  4  1  0  0  0  0
  2  5  1  0  0  0  0
  3  4  2  0  0  0  0
  3  8  1  0  0  0  0
  4  6  1  0  0  0  0
  5  8  2  0  0  0  0
  5 13  1  0  0  0  0
  6  7  1  0  0  0  0
  7 12  1  0  0  0  0
  9 12  1  0  0  0  0
 10 12  2  0  0  0  0
 11 12  2  0  0  0  0
  1 14  1  0  0  0  0
  2 15  1  0  0  0  0
  3 16  1  0  0  0  0
  6 17  1  0  0  0  0
  6 18  1  0  0  0  0
  7 19  1  0  0  0  0
  7 20  1  0  0  0  0
  9 21  1  0  0  0  0
  9 22  1  0  0  0  0
M  END
> <Mol Weight>
220,67

> <Formula>
C7H9ClN2O2S

> <ID>
EN300-7439787

> <name>
Sulfonamides

> <LogP>
0,24

> <ROCS_ShapeQuery>
x0310_0A_x0719_0A_x1080_0A_x0739_0A_x0929_0A_x0526_0A_x0911_0A

> <ROCS_TanimotoCombo>
0.376 

> <ROCS_ShapeTanimoto>
0.182 

> <ROCS_ColorTanimoto>
0.193 

> <ROCS_RefTversky>
0.172 

> <ROCS_RefColorTversky>
0.197 

> <ROCS_RefTverskyCombo>
0.369 

> <ROCS_FitTversky>
1.494 

> <ROCS_FitColorTversky>
0.912 

> <ROCS_FitTverskyCombo>
2.406 

> <ROCS_ColorScore>
-5.716

> <ROCS_Overlap>
1375.235

> <ROCS_Rank>
27                  

$$$$
untitled-dbase-2399_862
  -OEChem-02092407103D

 32 33  0     1  0  0  0  0  0999 V2000
    8.5329   12.1970   23.3970 C   0  0  0  0  0  0  0  0  0  0  0  0
    9.5442   10.4947   23.9961 C   0  0  0  0  0  0  0  0  0  0  0  0
    6.9199   14.0861   23.8706 C   0  0  0  0  0  0  0  0  0  0  0  0
    6.2309   15.0636   22.9498 C   0  0  0  0  0  0  0  0  0  0  0  0
    8.0387   13.5597   22.9836 C   0  0  2  0  0  0  0  0  0  0  0  0
    6.3429   14.3847   21.5932 C   0  0  2  0  0  0  0  0  0  0  0  0
   10.6335    9.6138   24.4319 C   0  0  0  0  0  0  0  0  0  0  0  0
    2.6687   12.8530   19.4753 C   0  0  0  0  0  0  0  0  0  0  0  0
    5.1448   13.5025   21.2701 C   0  0  0  0  0  0  0  0  0  0  0  0
    9.7373   11.8224   23.7474 N   0  0  0  0  0  0  0  0  0  0  0  0
    8.2985   10.0453   23.8170 N   0  0  0  0  0  0  0  0  0  0  0  0
    5.3076   12.9006   19.9855 N   0  0  0  0  0  0  0  0  0  0  0  0
    3.9424   10.7185   20.2950 O   0  0  0  0  0  0  0  0  0  0  0  0
    4.3559   11.5670   17.9571 O   0  0  0  0  0  0  0  0  0  0  0  0
    7.6128   11.1972   23.4115 O   0  0  0  0  0  0  0  0  0  0  0  0
    7.5195   13.5574   21.6400 O   0  0  0  0  0  0  0  0  0  0  0  0
    4.1100   11.8175   19.3643 S   0  0  0  0  0  0  0  0  0  0  0  0
    7.3520   14.6342   24.7117 H   0  0  0  0  0  0  0  0  0  0  0  0
    6.2544   13.3202   24.2659 H   0  0  0  0  0  0  0  0  0  0  0  0
    5.1767   15.1724   23.2481 H   0  0  0  0  0  0  0  0  0  0  0  0
    6.6847   16.0639   22.9611 H   0  0  0  0  0  0  0  0  0  0  0  0
    8.9106   14.2714   23.0182 H   0  0  0  0  0  0  0  0  0  0  0  0
    6.4822   15.1189   20.7995 H   0  0  0  0  0  0  0  0  0  0  0  0
   10.7168    9.5855   25.5340 H   0  0  0  0  0  0  0  0  0  0  0  0
   10.4976    8.5710   24.0869 H   0  0  0  0  0  0  0  0  0  0  0  0
   11.6175    9.9314   24.0371 H   0  0  0  0  0  0  0  0  0  0  0  0
    1.8101   12.2887   19.1078 H   0  0  0  0  0  0  0  0  0  0  0  0
    2.5244   13.1315   20.5203 H   0  0  0  0  0  0  0  0  0  0  0  0
    2.8341   13.7401   18.8621 H   0  0  0  0  0  0  0  0  0  0  0  0
    5.0800   12.7320   22.0413 H   0  0  0  0  0  0  0  0  0  0  0  0
    4.2534   14.1333   21.2799 H   0  0  0  0  0  0  0  0  0  0  0  0
    5.7667   13.4914   19.2520 H   0  0  0  0  0  0  0  0  0  0  0  0
  1  5  1  6  0  0  0
  1 10  2  0  0  0  0
  1 15  1  0  0  0  0
  2  7  1  0  0  0  0
  2 10  1  0  0  0  0
  2 11  2  0  0  0  0
  3  4  1  0  0  0  0
  3  5  1  0  0  0  0
  4  6  1  0  0  0  0
  5 16  1  0  0  0  0
  6  9  1  6  0  0  0
  6 16  1  0  0  0  0
  8 17  1  0  0  0  0
  9 12  1  0  0  0  0
 11 15  1  0  0  0  0
 12 17  1  0  0  0  0
 13 17  2  0  0  0  0
 14 17  2  0  0  0  0
  3 18  1  0  0  0  0
  3 19  1  0  0  0  0
  4 20  1  0  0  0  0
  4 21  1  0  0  0  0
  5 22  1  0  0  0  0
  6 23  1  0  0  0  0
  7 24  1  0  0  0  0
  7 25  1  0  0  0  0
  7 26  1  0  0  0  0
  8 27  1  0  0  0  0
  8 28  1  0  0  0  0
  8 29  1  0  0  0  0
  9 30  1  0  0  0  0
  9 31  1  0  0  0  0
 12 32  1  0  0  0  0
M  END
> <Mol Weight>
261,30

> <Formula>
C9H15N3O4S

> <ID>
EN300-314885

> <name>
Sulfonamides

> <LogP>
-0,40

> <ROCS_ShapeQuery>
x0310_0A_x0719_0A_x1080_0A_x0739_0A_x0929_0A_x0526_0A_x0911_0A

> <ROCS_TanimotoCombo>
0.375 

> <ROCS_ShapeTanimoto>
0.223 

> <ROCS_ColorTanimoto>
0.152 

> <ROCS_RefTversky>
0.207 

> <ROCS_RefColorTversky>
0.173 

> <ROCS_RefTverskyCombo>
0.381 

> <ROCS_FitTversky>
1.489 

> <ROCS_FitColorTversky>
0.554 

> <ROCS_FitTverskyCombo>
2.043 

> <ROCS_ColorScore>
-5.055

> <ROCS_Overlap>
1662.236

> <ROCS_Rank>
28                  

$$$$
untitled-dbase-2075_3823
  -OEChem-02092407103D

 29 29  0     1  0  0  0  0  0999 V2000
    9.0312   10.0323   22.9232 C   0  0  0  0  0  0  0  0  0  0  0  0
    8.2839    9.8195   24.0815 C   0  0  0  0  0  0  0  0  0  0  0  0
    9.6517   11.2633   22.7097 C   0  0  0  0  0  0  0  0  0  0  0  0
    8.1569   10.8377   25.0264 C   0  0  0  0  0  0  0  0  0  0  0  0
    9.5246   12.2815   23.6546 C   0  0  0  0  0  0  0  0  0  0  0  0
    8.7773   12.0687   24.8130 C   0  0  0  0  0  0  0  0  0  0  0  0
    7.7440   14.6506   24.2190 C   0  0  0  0  0  0  0  0  0  0  0  0
    7.9930   17.0169   23.4598 C   0  0  0  0  0  0  0  0  0  0  0  0
    8.6408   13.1645   25.8289 C   0  0  0  0  0  0  0  0  0  0  0  0
    8.2973   15.5618   23.1448 C   0  0  2  0  0  0  0  0  0  0  0  0
    6.1199   15.8840   21.6595 N   0  0  0  0  0  0  0  0  0  0  0  0
    6.6119   14.1859   24.2352 O   0  0  0  0  0  0  0  0  0  0  0  0
    8.4372   15.7965   20.5462 O   0  0  0  0  0  0  0  0  0  0  0  0
    7.4531   13.6878   21.5313 O   0  0  0  0  0  0  0  0  0  0  0  0
    8.7074   14.4297   25.1632 O   0  0  0  0  0  0  0  0  0  0  0  0
    7.6422   15.1257   21.5571 S   0  0  0  0  0  0  0  0  0  0  0  0
    9.1312    9.2389   22.1882 H   0  0  0  0  0  0  0  0  0  0  0  0
    7.8017    8.8608   24.2484 H   0  0  0  0  0  0  0  0  0  0  0  0
   10.2345   11.4289   21.8085 H   0  0  0  0  0  0  0  0  0  0  0  0
    7.5725   10.6630   25.9260 H   0  0  0  0  0  0  0  0  0  0  0  0
   10.0114   13.2373   23.4798 H   0  0  0  0  0  0  0  0  0  0  0  0
    6.9136   17.1834   23.5395 H   0  0  0  0  0  0  0  0  0  0  0  0
    8.4480   17.3199   24.4096 H   0  0  0  0  0  0  0  0  0  0  0  0
    8.3810   17.6807   22.6804 H   0  0  0  0  0  0  0  0  0  0  0  0
    7.6856   13.0900   26.3596 H   0  0  0  0  0  0  0  0  0  0  0  0
    9.4438   13.1068   26.5717 H   0  0  0  0  0  0  0  0  0  0  0  0
    9.3772   15.3955   23.0652 H   0  0  0  0  0  0  0  0  0  0  0  0
    5.4217   15.4743   22.2922 H   0  0  0  0  0  0  0  0  0  0  0  0
    6.0921   16.9103   21.6210 H   0  0  0  0  0  0  0  0  0  0  0  0
  1  2  1  0  0  0  0
  1  3  2  0  0  0  0
  2  4  2  0  0  0  0
  3  5  1  0  0  0  0
  4  6  1  0  0  0  0
  5  6  2  0  0  0  0
  6  9  1  0  0  0  0
  7 10  1  0  0  0  0
  7 12  2  0  0  0  0
  7 15  1  0  0  0  0
  8 10  1  0  0  0  0
  9 15  1  0  0  0  0
 10 16  1  0  0  0  0
 11 16  1  0  0  0  0
 13 16  2  0  0  0  0
 14 16  2  0  0  0  0
  1 17  1  0  0  0  0
  2 18  1  0  0  0  0
  3 19  1  0  0  0  0
  4 20  1  0  0  0  0
  5 21  1  0  0  0  0
  8 22  1  0  0  0  0
  8 23  1  0  0  0  0
  8 24  1  0  0  0  0
  9 25  1  0  0  0  0
  9 26  1  0  0  0  0
 10 27  1  0  0  0  0
 11 28  1  0  0  0  0
 11 29  1  0  0  0  0
M  END
> <Mol Weight>
243,28

> <Formula>
C10H13NO4S

> <ID>
EN300-131824

> <name>
Sulfonamides

> <LogP>
0,84

> <ROCS_ShapeQuery>
x0310_0A_x0719_0A_x1080_0A_x0739_0A_x0929_0A_x0526_0A_x0911_0A

> <ROCS_TanimotoCombo>
0.374 

> <ROCS_ShapeTanimoto>
0.194 

> <ROCS_ColorTanimoto>
0.179 

> <ROCS_RefTversky>
0.184 

> <ROCS_RefColorTversky>
0.185 

> <ROCS_RefTverskyCombo>
0.369 

> <ROCS_FitTversky>
1.398 

> <ROCS_FitColorTversky>
0.856 

> <ROCS_FitTverskyCombo>
2.254 

> <ROCS_ColorScore>
-5.363

> <ROCS_Overlap>
1475.435

> <ROCS_Rank>
29                  

$$$$
untitled-dbase-1658_46
  -OEChem-02092407103D

 32 32  0     1  0  0  0  0  0999 V2000
    9.0329   10.0821   23.2353 C   0  0  0  0  0  0  0  0  0  0  0  0
    8.1253   10.3584   24.2579 C   0  0  0  0  0  0  0  0  0  0  0  0
    9.7167   11.1242   22.6092 C   0  0  0  0  0  0  0  0  0  0  0  0
    7.9015   11.6770   24.6542 C   0  0  0  0  0  0  0  0  0  0  0  0
    9.4929   12.4427   23.0056 C   0  0  0  0  0  0  0  0  0  0  0  0
    8.5853   12.7191   24.0281 C   0  0  0  0  0  0  0  0  0  0  0  0
    8.1743   17.2105   24.0085 C   0  0  0  0  0  0  0  0  0  0  0  0
    4.8569   14.8310   21.1469 C   0  0  0  0  0  0  0  0  0  0  0  0
    8.3432   14.1476   24.4567 C   0  0  0  0  0  0  0  0  0  0  0  0
    6.9718   16.2843   24.1371 C   0  0  0  0  0  0  0  0  0  0  0  0
    7.2091   14.8356   23.6813 C   0  0  1  0  0  0  0  0  0  0  0  0
    6.1054   15.5861   21.3558 N   0  0  0  0  0  0  0  0  0  0  0  0
    8.6774   15.5434   21.6336 O   0  0  0  0  0  0  0  0  0  0  0  0
    7.3966   13.3744   21.5284 O   0  0  0  0  0  0  0  0  0  0  0  0
    7.4895   14.7658   21.9262 S   0  0  0  0  0  0  0  0  0  0  0  0
    9.2080    9.0553   22.9278 H   0  0  0  0  0  0  0  0  0  0  0  0
    7.5936    9.5471   24.7463 H   0  0  0  0  0  0  0  0  0  0  0  0
   10.4242   10.9093   21.8138 H   0  0  0  0  0  0  0  0  0  0  0  0
    7.1924   11.8829   25.4517 H   0  0  0  0  0  0  0  0  0  0  0  0
   10.0301   13.2482   22.5119 H   0  0  0  0  0  0  0  0  0  0  0  0
    8.5125   17.2368   22.9674 H   0  0  0  0  0  0  0  0  0  0  0  0
    7.9251   18.2353   24.2986 H   0  0  0  0  0  0  0  0  0  0  0  0
    9.0138   16.8701   24.6209 H   0  0  0  0  0  0  0  0  0  0  0  0
    4.7660   14.0514   21.9176 H   0  0  0  0  0  0  0  0  0  0  0  0
    3.9987   15.5156   21.2150 H   0  0  0  0  0  0  0  0  0  0  0  0
    4.8741   14.3624   20.1518 H   0  0  0  0  0  0  0  0  0  0  0  0
    8.1076   14.1355   25.5291 H   0  0  0  0  0  0  0  0  0  0  0  0
    9.2755   14.7178   24.3586 H   0  0  0  0  0  0  0  0  0  0  0  0
    6.6540   16.2763   25.1870 H   0  0  0  0  0  0  0  0  0  0  0  0
    6.1398   16.7132   23.5648 H   0  0  0  0  0  0  0  0  0  0  0  0
    6.2685   14.2898   23.8290 H   0  0  0  0  0  0  0  0  0  0  0  0
    6.2593   16.3360   20.6693 H   0  0  0  0  0  0  0  0  0  0  0  0
  1  2  1  0  0  0  0
  1  3  2  0  0  0  0
  2  4  2  0  0  0  0
  3  5  1  0  0  0  0
  4  6  1  0  0  0  0
  5  6  2  0  0  0  0
  6  9  1  0  0  0  0
  7 10  1  0  0  0  0
  8 12  1  0  0  0  0
  9 11  1  0  0  0  0
 10 11  1  0  0  0  0
 11 15  1  0  0  0  0
 12 15  1  0  0  0  0
 13 15  2  0  0  0  0
 14 15  2  0  0  0  0
  1 16  1  0  0  0  0
  2 17  1  0  0  0  0
  3 18  1  0  0  0  0
  4 19  1  0  0  0  0
  5 20  1  0  0  0  0
  7 21  1  0  0  0  0
  7 22  1  0  0  0  0
  7 23  1  0  0  0  0
  8 24  1  0  0  0  0
  8 25  1  0  0  0  0
  8 26  1  0  0  0  0
  9 27  1  0  0  0  0
  9 28  1  0  0  0  0
 10 29  1  0  0  0  0
 10 30  1  0  0  0  0
 11 31  1  0  0  0  0
 12 32  1  0  0  0  0
M  END
> <Mol Weight>
227,32

> <Formula>
C11H17NO2S

> <ID>
EN300-680152

> <name>
Sulfonamides

> <LogP>
1,95

> <ROCS_ShapeQuery>
x0310_0A_x0719_0A_x1080_0A_x0739_0A_x0929_0A_x0526_0A_x0911_0A

> <ROCS_TanimotoCombo>
0.373 

> <ROCS_ShapeTanimoto>
0.197 

> <ROCS_ColorTanimoto>
0.175 

> <ROCS_RefTversky>
0.185 

> <ROCS_RefColorTversky>
0.182 

> <ROCS_RefTverskyCombo>
0.367 

> <ROCS_FitTversky>
1.488 

> <ROCS_FitColorTversky>
0.840 

> <ROCS_FitTverskyCombo>
2.328 

> <ROCS_ColorScore>
-5.266

> <ROCS_Overlap>
1482.791

> <ROCS_Rank>
30                  

$$$$
untitled-dbase-1134_1660
  -OEChem-02092407103D

 28 28  0     1  0  0  0  0  0999 V2000
    9.5853   10.9467   22.5055 C   0  0  0  0  0  0  0  0  0  0  0  0
    9.7238   12.0677   23.5047 C   0  0  0  0  0  0  0  0  0  0  0  0
    8.1814   10.4524   22.7825 C   0  0  0  0  0  0  0  0  0  0  0  0
    8.9868   11.4970   24.7037 C   0  0  1  0  0  0  0  0  0  0  0  0
    8.4235   12.5581   25.6288 C   0  0  0  0  0  0  0  0  0  0  0  0
    6.6139   13.3154   24.3347 C   0  0  0  0  0  0  0  0  0  0  0  0
    6.0937   14.4609   23.4883 C   0  0  0  0  0  0  0  0  0  0  0  0
    6.0873   15.6527   21.1154 N   0  0  0  0  0  0  0  0  0  0  0  0
    8.1950   15.7263   22.5880 O   0  0  0  0  0  0  0  0  0  0  0  0
    7.5188   13.5498   21.4967 O   0  0  0  0  0  0  0  0  0  0  0  0
    7.9184   10.6954   24.1725 O   0  0  0  0  0  0  0  0  0  0  0  0
    7.9048   13.6221   24.8464 O   0  0  0  0  0  0  0  0  0  0  0  0
    7.1671   14.8088   22.1292 S   0  0  0  0  0  0  0  0  0  0  0  0
    9.7310   11.2600   21.4685 H   0  0  0  0  0  0  0  0  0  0  0  0
   10.3115   10.1564   22.7299 H   0  0  0  0  0  0  0  0  0  0  0  0
   10.7629   12.3254   23.7273 H   0  0  0  0  0  0  0  0  0  0  0  0
    9.2209   12.9645   23.1229 H   0  0  0  0  0  0  0  0  0  0  0  0
    7.4422   11.0138   22.2012 H   0  0  0  0  0  0  0  0  0  0  0  0
    8.0607    9.3875   22.5649 H   0  0  0  0  0  0  0  0  0  0  0  0
    9.6446   10.8257   25.2688 H   0  0  0  0  0  0  0  0  0  0  0  0
    9.2075   12.9490   26.2828 H   0  0  0  0  0  0  0  0  0  0  0  0
    7.6180   12.1427   26.2402 H   0  0  0  0  0  0  0  0  0  0  0  0
    5.9494   13.1364   25.1856 H   0  0  0  0  0  0  0  0  0  0  0  0
    6.6874   12.3894   23.7563 H   0  0  0  0  0  0  0  0  0  0  0  0
    6.0136   15.3869   24.0650 H   0  0  0  0  0  0  0  0  0  0  0  0
    5.1191   14.2142   23.0581 H   0  0  0  0  0  0  0  0  0  0  0  0
    6.2277   16.6643   21.0033 H   0  0  0  0  0  0  0  0  0  0  0  0
    5.7670   15.1819   20.2602 H   0  0  0  0  0  0  0  0  0  0  0  0
  1  2  1  0  0  0  0
  1  3  1  0  0  0  0
  2  4  1  0  0  0  0
  3 11  1  0  0  0  0
  4  5  1  0  0  0  0
  4 11  1  0  0  0  0
  5 12  1  0  0  0  0
  6  7  1  0  0  0  0
  6 12  1  0  0  0  0
  7 13  1  0  0  0  0
  8 13  1  0  0  0  0
  9 13  2  0  0  0  0
 10 13  2  0  0  0  0
  1 14  1  0  0  0  0
  1 15  1  0  0  0  0
  2 16  1  0  0  0  0
  2 17  1  0  0  0  0
  3 18  1  0  0  0  0
  3 19  1  0  0  0  0
  4 20  1  0  0  0  0
  5 21  1  0  0  0  0
  5 22  1  0  0  0  0
  6 23  1  0  0  0  0
  6 24  1  0  0  0  0
  7 25  1  0  0  0  0
  7 26  1  0  0  0  0
  8 27  1  0  0  0  0
  8 28  1  0  0  0  0
M  END
> <Mol Weight>
209,26

> <Formula>
C7H15NO4S

> <ID>
EN300-1120833

> <name>
Sulfonamides

> <LogP>
-1,01

> <ROCS_ShapeQuery>
x0310_0A_x0719_0A_x1080_0A_x0739_0A_x0929_0A_x0526_0A_x0911_0A

> <ROCS_TanimotoCombo>
0.369 

> <ROCS_ShapeTanimoto>
0.167 

> <ROCS_ColorTanimoto>
0.202 

> <ROCS_RefTversky>
0.159 

> <ROCS_RefColorTversky>
0.210 

> <ROCS_RefTverskyCombo>
0.369 

> <ROCS_FitTversky>
1.397 

> <ROCS_FitColorTversky>
0.844 

> <ROCS_FitTverskyCombo>
2.241 

> <ROCS_ColorScore>
-6.091

> <ROCS_Overlap>
1274.747

> <ROCS_Rank>
31                  

$$$$
untitled-dbase-1097_151
  -OEChem-02092407103D

 30 30  0     0  0  0  0  0  0999 V2000
    9.1441    9.9980   23.0802 C   0  0  0  0  0  0  0  0  0  0  0  0
    7.7869   10.1720   23.7558 C   0  0  0  0  0  0  0  0  0  0  0  0
    9.8595   11.3338   22.8999 C   0  0  0  0  0  0  0  0  0  0  0  0
    7.9104   10.9235   25.0815 C   0  0  0  0  0  0  0  0  0  0  0  0
    9.9849   12.0894   24.2234 C   0  0  0  0  0  0  0  0  0  0  0  0
    8.6350   12.2609   24.9199 C   0  0  0  0  0  0  0  0  0  0  0  0
    8.2230   14.5055   24.3498 C   0  0  0  0  0  0  0  0  0  0  0  0
    7.3449   15.4360   23.5362 C   0  0  0  0  0  0  0  0  0  0  0  0
    6.0311   15.8383   21.2639 N   0  0  0  0  0  0  0  0  0  0  0  0
    8.6033   15.8571   21.2853 O   0  0  0  0  0  0  0  0  0  0  0  0
    7.3753   13.6723   21.6084 O   0  0  0  0  0  0  0  0  0  0  0  0
    7.8335   13.1543   24.1497 O   0  0  0  0  0  0  0  0  0  0  0  0
    7.4731   15.1078   21.8053 S   0  0  0  0  0  0  0  0  0  0  0  0
    9.7684    9.3219   23.6748 H   0  0  0  0  0  0  0  0  0  0  0  0
    9.0046    9.5245   22.1005 H   0  0  0  0  0  0  0  0  0  0  0  0
    7.1072   10.7130   23.0883 H   0  0  0  0  0  0  0  0  0  0  0  0
    7.3406    9.1869   23.9381 H   0  0  0  0  0  0  0  0  0  0  0  0
   10.8602   11.1597   22.4860 H   0  0  0  0  0  0  0  0  0  0  0  0
    9.3157   11.9502   22.1756 H   0  0  0  0  0  0  0  0  0  0  0  0
    6.9102   11.0933   25.5060 H   0  0  0  0  0  0  0  0  0  0  0  0
    8.4382   10.3023   25.8179 H   0  0  0  0  0  0  0  0  0  0  0  0
   10.6834   11.5636   24.8889 H   0  0  0  0  0  0  0  0  0  0  0  0
   10.4374   13.0763   24.0464 H   0  0  0  0  0  0  0  0  0  0  0  0
    8.7870   12.7178   25.9064 H   0  0  0  0  0  0  0  0  0  0  0  0
    9.2692   14.6021   24.0434 H   0  0  0  0  0  0  0  0  0  0  0  0
    8.1575   14.7244   25.4200 H   0  0  0  0  0  0  0  0  0  0  0  0
    7.6271   16.4837   23.6749 H   0  0  0  0  0  0  0  0  0  0  0  0
    6.2916   15.3046   23.7993 H   0  0  0  0  0  0  0  0  0  0  0  0
    6.1091   16.7102   20.7259 H   0  0  0  0  0  0  0  0  0  0  0  0
    5.2727   15.2223   20.9462 H   0  0  0  0  0  0  0  0  0  0  0  0
  1  2  1  0  0  0  0
  1  3  1  0  0  0  0
  2  4  1  0  0  0  0
  3  5  1  0  0  0  0
  4  6  1  0  0  0  0
  5  6  1  0  0  0  0
  6 12  1  0  0  0  0
  7  8  1  0  0  0  0
  7 12  1  0  0  0  0
  8 13  1  0  0  0  0
  9 13  1  0  0  0  0
 10 13  2  0  0  0  0
 11 13  2  0  0  0  0
  1 14  1  0  0  0  0
  1 15  1  0  0  0  0
  2 16  1  0  0  0  0
  2 17  1  0  0  0  0
  3 18  1  0  0  0  0
  3 19  1  0  0  0  0
  4 20  1  0  0  0  0
  4 21  1  0  0  0  0
  5 22  1  0  0  0  0
  5 23  1  0  0  0  0
  6 24  1  0  0  0  0
  7 25  1  0  0  0  0
  7 26  1  0  0  0  0
  8 27  1  0  0  0  0
  8 28  1  0  0  0  0
  9 29  1  0  0  0  0
  9 30  1  0  0  0  0
M  END
> <Mol Weight>
207,29

> <Formula>
C8H17NO3S

> <ID>
EN300-1120848

> <name>
Sulfonamides

> <LogP>
0,37

> <ROCS_ShapeQuery>
x0310_0A_x0719_0A_x1080_0A_x0739_0A_x0929_0A_x0526_0A_x0911_0A

> <ROCS_TanimotoCombo>
0.369 

> <ROCS_ShapeTanimoto>
0.175 

> <ROCS_ColorTanimoto>
0.194 

> <ROCS_RefTversky>
0.166 

> <ROCS_RefColorTversky>
0.197 

> <ROCS_RefTverskyCombo>
0.363 

> <ROCS_FitTversky>
1.466 

> <ROCS_FitColorTversky>
0.913 

> <ROCS_FitTverskyCombo>
2.379 

> <ROCS_ColorScore>
-5.723

> <ROCS_Overlap>
1326.411

> <ROCS_Rank>
32                  

$$$$
untitled-dbase-2720_3652
  -OEChem-02092407103D

 36 36  0     0  0  0  0  0  0999 V2000
    4.2636   10.8985   18.0643 C   0  0  0  0  0  0  0  0  0  0  0  0
    4.8623   11.3093   19.2553 C   0  0  0  0  0  0  0  0  0  0  0  0
    2.9941   11.3660   17.7244 C   0  0  0  0  0  0  0  0  0  0  0  0
    2.9219   12.6550   19.7665 C   0  0  0  0  0  0  0  0  0  0  0  0
    4.1915   12.1875   20.1064 C   0  0  0  0  0  0  0  0  0  0  0  0
    2.3233   12.2442   18.5755 C   0  0  0  0  0  0  0  0  0  0  0  0
    7.0256   12.3341   22.0123 C   0  0  0  0  0  0  0  0  0  0  0  0
    7.4662   12.8909   24.5215 C   0  0  0  0  0  0  0  0  0  0  0  0
    8.7158   10.7228   24.7382 C   0  0  0  0  0  0  0  0  0  0  0  0
    9.7682   12.6575   23.5310 C   0  0  0  0  0  0  0  0  0  0  0  0
    5.6716   11.6847   21.8987 C   0  0  0  0  0  0  0  0  0  0  0  0
    8.4581   11.9401   23.8529 C   0  0  0  0  0  0  0  0  0  0  0  0
   -0.2562   11.6381   18.8647 N   0  0  0  0  0  0  0  0  0  0  0  0
    7.3008   13.4566   21.6108 O   0  0  0  0  0  0  0  0  0  0  0  0
    0.5145   14.0978   18.8320 O   0  0  0  0  0  0  0  0  0  0  0  0
    0.5875   12.7546   16.7017 O   0  0  0  0  0  0  0  0  0  0  0  0
    4.7807   12.5915   21.2801 O   0  0  0  0  0  0  0  0  0  0  0  0
    7.8850   11.4706   22.6320 O   0  0  0  0  0  0  0  0  0  0  0  0
    0.7350   12.8312   18.1484 S   0  0  0  0  0  0  0  0  0  0  0  0
    4.7858   10.2145   17.4020 H   0  0  0  0  0  0  0  0  0  0  0  0
    5.8512   10.9415   19.5146 H   0  0  0  0  0  0  0  0  0  0  0  0
    2.5373   11.0406   16.7937 H   0  0  0  0  0  0  0  0  0  0  0  0
    2.4030   13.3392   20.4335 H   0  0  0  0  0  0  0  0  0  0  0  0
    7.2786   13.7660   23.8891 H   0  0  0  0  0  0  0  0  0  0  0  0
    6.5101   12.3981   24.7258 H   0  0  0  0  0  0  0  0  0  0  0  0
    7.8676   13.2732   25.4670 H   0  0  0  0  0  0  0  0  0  0  0  0
    9.4269   10.0378   24.2624 H   0  0  0  0  0  0  0  0  0  0  0  0
    7.7937   10.1512   24.8939 H   0  0  0  0  0  0  0  0  0  0  0  0
    9.1141   11.0116   25.7163 H   0  0  0  0  0  0  0  0  0  0  0  0
   10.4798   11.9757   23.0515 H   0  0  0  0  0  0  0  0  0  0  0  0
    9.6072   13.5125   22.8664 H   0  0  0  0  0  0  0  0  0  0  0  0
   10.2520   13.0150   24.4473 H   0  0  0  0  0  0  0  0  0  0  0  0
    5.2961   11.4454   22.8972 H   0  0  0  0  0  0  0  0  0  0  0  0
    5.7478   10.7856   21.2812 H   0  0  0  0  0  0  0  0  0  0  0  0
   -0.2762   10.7058   18.4335 H   0  0  0  0  0  0  0  0  0  0  0  0
   -0.3286   11.6232   19.8893 H   0  0  0  0  0  0  0  0  0  0  0  0
  1  2  2  0  0  0  0
  1  3  1  0  0  0  0
  2  5  1  0  0  0  0
  3  6  2  0  0  0  0
  4  5  2  0  0  0  0
  4  6  1  0  0  0  0
  5 17  1  0  0  0  0
  6 19  1  0  0  0  0
  7 11  1  0  0  0  0
  7 14  2  0  0  0  0
  7 18  1  0  0  0  0
  8 12  1  0  0  0  0
  9 12  1  0  0  0  0
 10 12  1  0  0  0  0
 11 17  1  0  0  0  0
 12 18  1  0  0  0  0
 13 19  1  0  0  0  0
 15 19  2  0  0  0  0
 16 19  2  0  0  0  0
  1 20  1  0  0  0  0
  2 21  1  0  0  0  0
  3 22  1  0  0  0  0
  4 23  1  0  0  0  0
  8 24  1  0  0  0  0
  8 25  1  0  0  0  0
  8 26  1  0  0  0  0
  9 27  1  0  0  0  0
  9 28  1  0  0  0  0
  9 29  1  0  0  0  0
 10 30  1  0  0  0  0
 10 31  1  0  0  0  0
 10 32  1  0  0  0  0
 11 33  1  0  0  0  0
 11 34  1  0  0  0  0
 13 35  1  0  0  0  0
 13 36  1  0  0  0  0
M  END
> <Mol Weight>
287,33

> <Formula>
C12H17NO5S

> <ID>
EN300-45481960

> <name>
Sulfonamides

> <LogP>
1,10

> <ROCS_ShapeQuery>
x0310_0A_x0719_0A_x1080_0A_x0739_0A_x0929_0A_x0526_0A_x0911_0A

> <ROCS_TanimotoCombo>
0.368 

> <ROCS_ShapeTanimoto>
0.251 

> <ROCS_ColorTanimoto>
0.118 

> <ROCS_RefTversky>
0.230 

> <ROCS_RefColorTversky>
0.135 

> <ROCS_RefTverskyCombo>
0.365 

> <ROCS_FitTversky>
1.555 

> <ROCS_FitColorTversky>
0.480 

> <ROCS_FitTverskyCombo>
2.035 

> <ROCS_ColorScore>
-3.921

> <ROCS_Overlap>
1845.715

> <ROCS_Rank>
33                  

$$$$
untitled-dbase-2789_72
  -OEChem-02092407103D

 31 32  0     0  0  0  0  0  0999 V2000
    3.5994   10.8639   18.3429 C   0  0  0  0  0  0  0  0  0  0  0  0
    8.3217   12.6279   23.5782 C   0  0  0  0  0  0  0  0  0  0  0  0
    8.1214   10.4256   22.6052 C   0  0  0  0  0  0  0  0  0  0  0  0
    4.6627   10.7066   19.2318 C   0  0  0  0  0  0  0  0  0  0  0  0
    9.3060   12.1550   24.4460 C   0  0  0  0  0  0  0  0  0  0  0  0
    9.1057    9.9526   23.4730 C   0  0  0  0  0  0  0  0  0  0  0  0
    2.5757   11.7660   18.6327 C   0  0  0  0  0  0  0  0  0  0  0  0
    3.6787   12.3535   20.7004 C   0  0  0  0  0  0  0  0  0  0  0  0
    7.7293   11.7632   22.6578 C   0  0  0  0  0  0  0  0  0  0  0  0
    4.7024   11.4513   20.4105 C   0  0  0  0  0  0  0  0  0  0  0  0
    9.6980   10.8174   24.3934 C   0  0  0  0  0  0  0  0  0  0  0  0
    2.6154   12.5108   19.8114 C   0  0  0  0  0  0  0  0  0  0  0  0
    6.7032   12.2565   21.7530 C   0  0  0  0  0  0  0  0  0  0  0  0
    0.2515   12.6365   21.0365 N   0  0  0  0  0  0  0  0  0  0  0  0
    5.7833   11.2917   21.3140 N   0  0  0  0  0  0  0  0  0  0  0  0
    6.6777   13.4373   21.3790 O   0  0  0  0  0  0  0  0  0  0  0  0
    1.8563   14.6535   21.0786 O   0  0  0  0  0  0  0  0  0  0  0  0
    0.7030   14.0404   18.9242 O   0  0  0  0  0  0  0  0  0  0  0  0
   10.6433   10.3632   25.2267 F   0  0  0  0  0  0  0  0  0  0  0  0
    1.3335   13.6391   20.1741 S   0  0  0  0  0  0  0  0  0  0  0  0
    3.5685   10.2845   17.4248 H   0  0  0  0  0  0  0  0  0  0  0  0
    8.0239   13.6720   23.6277 H   0  0  0  0  0  0  0  0  0  0  0  0
    7.6669    9.7430   21.8914 H   0  0  0  0  0  0  0  0  0  0  0  0
    5.4551   10.0010   18.9950 H   0  0  0  0  0  0  0  0  0  0  0  0
    9.7674   12.8281   25.1625 H   0  0  0  0  0  0  0  0  0  0  0  0
    9.4108    8.9109   23.4325 H   0  0  0  0  0  0  0  0  0  0  0  0
    1.7517   11.8805   17.9336 H   0  0  0  0  0  0  0  0  0  0  0  0
    3.7090   12.9347   21.6194 H   0  0  0  0  0  0  0  0  0  0  0  0
    0.1601   12.7847   22.0490 H   0  0  0  0  0  0  0  0  0  0  0  0
   -0.6258   12.3654   20.5759 H   0  0  0  0  0  0  0  0  0  0  0  0
    5.9084   10.3564   21.6932 H   0  0  0  0  0  0  0  0  0  0  0  0
  1  4  1  0  0  0  0
  1  7  2  0  0  0  0
  2  5  2  0  0  0  0
  2  9  1  0  0  0  0
  3  6  1  0  0  0  0
  3  9  2  0  0  0  0
  4 10  2  0  0  0  0
  5 11  1  0  0  0  0
  6 11  2  0  0  0  0
  7 12  1  0  0  0  0
  8 10  1  0  0  0  0
  8 12  2  0  0  0  0
  9 13  1  0  0  0  0
 10 15  1  0  0  0  0
 11 19  1  0  0  0  0
 12 20  1  0  0  0  0
 13 15  1  0  0  0  0
 13 16  2  0  0  0  0
 14 20  1  0  0  0  0
 17 20  2  0  0  0  0
 18 20  2  0  0  0  0
  1 21  1  0  0  0  0
  2 22  1  0  0  0  0
  3 23  1  0  0  0  0
  4 24  1  0  0  0  0
  5 25  1  0  0  0  0
  6 26  1  0  0  0  0
  7 27  1  0  0  0  0
  8 28  1  0  0  0  0
 14 29  1  0  0  0  0
 14 30  1  0  0  0  0
 15 31  1  0  0  0  0
M  END
> <Mol Weight>
294,30

> <Formula>
C13H11FN2O3S

> <ID>
EN300-17944866

> <name>
Sulfonamides

> <LogP>
1,81

> <ROCS_ShapeQuery>
x0310_0A_x0719_0A_x1080_0A_x0739_0A_x0929_0A_x0526_0A_x0911_0A

> <ROCS_TanimotoCombo>
0.368 

> <ROCS_ShapeTanimoto>
0.225 

> <ROCS_ColorTanimoto>
0.142 

> <ROCS_RefTversky>
0.212 

> <ROCS_RefColorTversky>
0.160 

> <ROCS_RefTverskyCombo>
0.372 

> <ROCS_FitTversky>
1.359 

> <ROCS_FitColorTversky>
0.569 

> <ROCS_FitTverskyCombo>
1.928 

> <ROCS_ColorScore>
-4.647

> <ROCS_Overlap>
1704.512

> <ROCS_Rank>
34                  

$$$$
untitled-dbase-2120_552
  -OEChem-02092407103D

 30 31  0     0  0  0  0  0  0999 V2000
    9.1764   12.3618   22.6075 C   0  0  0  0  0  0  0  0  0  0  0  0
    7.3537   13.4350   22.0722 C   0  0  0  0  0  0  0  0  0  0  0  0
   10.0914   11.4225   23.3059 C   0  0  0  0  0  0  0  0  0  0  0  0
    7.1342   11.7785   23.9501 C   0  0  0  0  0  0  0  0  0  0  0  0
    9.5735    9.9875   23.2763 C   0  0  0  0  0  0  0  0  0  0  0  0
    7.2463   10.2666   23.7926 C   0  0  0  0  0  0  0  0  0  0  0  0
    5.8674   16.9233   24.7160 C   0  0  0  0  0  0  0  0  0  0  0  0
    5.9503   13.8879   22.0665 C   0  0  0  0  0  0  0  0  0  0  0  0
    9.4645   13.1817   21.6164 N   0  0  0  0  0  0  0  0  0  0  0  0
    8.3105   13.8599   21.2784 N   0  0  0  0  0  0  0  0  0  0  0  0
    7.8522   12.4982   22.9208 N   0  0  0  0  0  0  0  0  0  0  0  0
    5.7766   15.1953   22.6626 N   0  0  0  0  0  0  0  0  0  0  0  0
    7.9563   16.4872   23.2006 O   0  0  0  0  0  0  0  0  0  0  0  0
    7.1856   14.6728   24.7725 O   0  0  0  0  0  0  0  0  0  0  0  0
    8.5195    9.7792   24.2174 O   0  0  0  0  0  0  0  0  0  0  0  0
    6.8888   15.7527   23.8509 S   0  0  0  0  0  0  0  0  0  0  0  0
   11.0694   11.4590   22.8122 H   0  0  0  0  0  0  0  0  0  0  0  0
   10.2284   11.7572   24.3407 H   0  0  0  0  0  0  0  0  0  0  0  0
    6.0811   12.0722   23.9072 H   0  0  0  0  0  0  0  0  0  0  0  0
    7.5477   12.1088   24.9098 H   0  0  0  0  0  0  0  0  0  0  0  0
    9.2607    9.6735   22.2731 H   0  0  0  0  0  0  0  0  0  0  0  0
   10.3877    9.3218   23.5832 H   0  0  0  0  0  0  0  0  0  0  0  0
    6.5075    9.7955   24.4498 H   0  0  0  0  0  0  0  0  0  0  0  0
    7.0299    9.9350   22.7700 H   0  0  0  0  0  0  0  0  0  0  0  0
    6.4573   17.3676   25.5192 H   0  0  0  0  0  0  0  0  0  0  0  0
    5.5465   17.6893   24.0085 H   0  0  0  0  0  0  0  0  0  0  0  0
    5.0051   16.3930   25.1231 H   0  0  0  0  0  0  0  0  0  0  0  0
    5.5405   13.9493   21.0420 H   0  0  0  0  0  0  0  0  0  0  0  0
    5.2849   13.1996   22.6181 H   0  0  0  0  0  0  0  0  0  0  0  0
    5.4075   15.9284   22.0249 H   0  0  0  0  0  0  0  0  0  0  0  0
  1  3  1  0  0  0  0
  1  9  2  0  0  0  0
  1 11  1  0  0  0  0
  2  8  1  0  0  0  0
  2 10  2  0  0  0  0
  2 11  1  0  0  0  0
  3  5  1  0  0  0  0
  4  6  1  0  0  0  0
  4 11  1  0  0  0  0
  5 15  1  0  0  0  0
  6 15  1  0  0  0  0
  7 16  1  0  0  0  0
  8 12  1  0  0  0  0
  9 10  1  0  0  0  0
 12 16  1  0  0  0  0
 13 16  2  0  0  0  0
 14 16  2  0  0  0  0
  3 17  1  0  0  0  0
  3 18  1  0  0  0  0
  4 19  1  0  0  0  0
  4 20  1  0  0  0  0
  5 21  1  0  0  0  0
  5 22  1  0  0  0  0
  6 23  1  0  0  0  0
  6 24  1  0  0  0  0
  7 25  1  0  0  0  0
  7 26  1  0  0  0  0
  7 27  1  0  0  0  0
  8 28  1  0  0  0  0
  8 29  1  0  0  0  0
 12 30  1  0  0  0  0
M  END
> <Mol Weight>
246,29

> <Formula>
C8H14N4O3S

> <ID>
EN300-1663909

> <name>
Sulfonamides

> <LogP>
-2,35

> <ROCS_ShapeQuery>
x0310_0A_x0719_0A_x1080_0A_x0739_0A_x0929_0A_x0526_0A_x0911_0A

> <ROCS_TanimotoCombo>
0.367 

> <ROCS_ShapeTanimoto>
0.186 

> <ROCS_ColorTanimoto>
0.181 

> <ROCS_RefTversky>
0.178 

> <ROCS_RefColorTversky>
0.203 

> <ROCS_RefTverskyCombo>
0.381 

> <ROCS_FitTversky>
1.324 

> <ROCS_FitColorTversky>
0.630 

> <ROCS_FitTverskyCombo>
1.953 

> <ROCS_ColorScore>
-5.926

> <ROCS_Overlap>
1425.355

> <ROCS_Rank>
35                  

$$$$
untitled-dbase-2745_6825
  -OEChem-02092407103D

 36 36  0     0  0  0  0  0  0999 V2000
    4.3276   11.1989   18.6658 C   0  0  0  0  0  0  0  0  0  0  0  0
    3.1708   11.3990   17.8583 C   0  0  0  0  0  0  0  0  0  0  0  0
    4.2285   11.8419   19.8800 C   0  0  0  0  0  0  0  0  0  0  0  0
    2.2315   12.1872   18.4863 C   0  0  0  0  0  0  0  0  0  0  0  0
    7.2407   13.2510   22.8834 C   0  0  0  0  0  0  0  0  0  0  0  0
    9.6391   11.4532   23.4550 C   0  0  0  0  0  0  0  0  0  0  0  0
    7.5767   10.8668   24.7456 C   0  0  0  0  0  0  0  0  0  0  0  0
    5.2299   11.8779   21.0083 C   0  0  0  0  0  0  0  0  0  0  0  0
    8.0330   13.2723   24.1816 C   0  0  0  0  0  0  0  0  0  0  0  0
    4.9178   12.9520   22.0475 C   0  0  0  0  0  0  0  0  0  0  0  0
    8.6672   11.9204   24.5417 C   0  0  0  0  0  0  0  0  0  0  0  0
   -0.3435   11.5078   18.5979 N   0  0  0  0  0  0  0  0  0  0  0  0
    5.8957   12.9964   23.1097 N   0  0  0  0  0  0  0  0  0  0  0  0
    7.7432   13.4627   21.7830 O   0  0  0  0  0  0  0  0  0  0  0  0
    0.3666   13.9797   18.7735 O   0  0  0  0  0  0  0  0  0  0  0  0
    0.5811   12.7893   16.5633 O   0  0  0  0  0  0  0  0  0  0  0  0
    2.7456   12.6825   20.0428 S   0  0  0  0  0  0  0  0  0  0  0  0
    0.6428   12.7723   18.0146 S   0  0  0  0  0  0  0  0  0  0  0  0
    5.1869   10.6120   18.3672 H   0  0  0  0  0  0  0  0  0  0  0  0
    3.0360   10.9849   16.8674 H   0  0  0  0  0  0  0  0  0  0  0  0
    9.1223   11.3450   22.4953 H   0  0  0  0  0  0  0  0  0  0  0  0
   10.0794   10.4825   23.7029 H   0  0  0  0  0  0  0  0  0  0  0  0
   10.4564   12.1695   23.3183 H   0  0  0  0  0  0  0  0  0  0  0  0
    6.9892   10.7328   23.8310 H   0  0  0  0  0  0  0  0  0  0  0  0
    8.0158    9.8973   25.0039 H   0  0  0  0  0  0  0  0  0  0  0  0
    6.8910   11.1540   25.5502 H   0  0  0  0  0  0  0  0  0  0  0  0
    6.2253   12.0617   20.5845 H   0  0  0  0  0  0  0  0  0  0  0  0
    5.2836   10.8923   21.4883 H   0  0  0  0  0  0  0  0  0  0  0  0
    7.3805   13.6138   24.9949 H   0  0  0  0  0  0  0  0  0  0  0  0
    8.8192   14.0276   24.0533 H   0  0  0  0  0  0  0  0  0  0  0  0
    4.9196   13.9394   21.5752 H   0  0  0  0  0  0  0  0  0  0  0  0
    3.9368   12.7956   22.5080 H   0  0  0  0  0  0  0  0  0  0  0  0
    9.2234   12.0155   25.4827 H   0  0  0  0  0  0  0  0  0  0  0  0
   -0.9306   11.6969   19.4195 H   0  0  0  0  0  0  0  0  0  0  0  0
   -0.7816   10.8839   17.9093 H   0  0  0  0  0  0  0  0  0  0  0  0
    5.5855   12.8342   24.0632 H   0  0  0  0  0  0  0  0  0  0  0  0
  1  2  1  0  0  0  0
  1  3  2  0  0  0  0
  2  4  2  0  0  0  0
  3  8  1  0  0  0  0
  3 17  1  0  0  0  0
  4 17  1  0  0  0  0
  4 18  1  0  0  0  0
  5  9  1  0  0  0  0
  5 13  1  0  0  0  0
  5 14  2  0  0  0  0
  6 11  1  0  0  0  0
  7 11  1  0  0  0  0
  8 10  1  0  0  0  0
  9 11  1  0  0  0  0
 10 13  1  0  0  0  0
 12 18  1  0  0  0  0
 15 18  2  0  0  0  0
 16 18  2  0  0  0  0
  1 19  1  0  0  0  0
  2 20  1  0  0  0  0
  6 21  1  0  0  0  0
  6 22  1  0  0  0  0
  6 23  1  0  0  0  0
  7 24  1  0  0  0  0
  7 25  1  0  0  0  0
  7 26  1  0  0  0  0
  8 27  1  0  0  0  0
  8 28  1  0  0  0  0
  9 29  1  0  0  0  0
  9 30  1  0  0  0  0
 10 31  1  0  0  0  0
 10 32  1  0  0  0  0
 11 33  1  0  0  0  0
 12 34  1  0  0  0  0
 12 35  1  0  0  0  0
 13 36  1  0  0  0  0
M  END
> <Mol Weight>
290,40

> <Formula>
C11H18N2O3S2

> <ID>
EN300-125224

> <name>
Sulfonamides

> <LogP>
1,32

> <ROCS_ShapeQuery>
x0310_0A_x0719_0A_x1080_0A_x0739_0A_x0929_0A_x0526_0A_x0911_0A

> <ROCS_TanimotoCombo>
0.367 

> <ROCS_ShapeTanimoto>
0.250 

> <ROCS_ColorTanimoto>
0.117 

> <ROCS_RefTversky>
0.227 

> <ROCS_RefColorTversky>
0.134 

> <ROCS_RefTverskyCombo>
0.361 

> <ROCS_FitTversky>
1.654 

> <ROCS_FitColorTversky>
0.477 

> <ROCS_FitTverskyCombo>
2.131 

> <ROCS_ColorScore>
-3.897

> <ROCS_Overlap>
1822.869

> <ROCS_Rank>
36                  

$$$$
untitled-dbase-2771_21
  -OEChem-02092407103D

 33 34  0     1  0  0  0  0  0999 V2000
    3.9291   12.2715   20.9108 C   0  0  0  0  0  0  0  0  0  0  0  0
    4.5811   11.1191   18.8899 C   0  0  0  0  0  0  0  0  0  0  0  0
    2.7292   12.6492   20.3083 C   0  0  0  0  0  0  0  0  0  0  0  0
    3.3811   11.4968   18.2874 C   0  0  0  0  0  0  0  0  0  0  0  0
    4.8551   11.5065   20.2016 C   0  0  0  0  0  0  0  0  0  0  0  0
    2.4551   12.2619   18.9967 C   0  0  0  0  0  0  0  0  0  0  0  0
    8.7688   12.4498   22.9790 C   0  0  0  0  0  0  0  0  0  0  0  0
    9.4048   11.7087   24.1510 C   0  0  0  0  0  0  0  0  0  0  0  0
    7.6405   10.3845   23.4014 C   0  0  0  0  0  0  0  0  0  0  0  0
    7.8592   11.4209   22.3105 C   0  0  1  0  0  0  0  0  0  0  0  0
    6.5659   12.0108   21.7747 C   0  0  0  0  0  0  0  0  0  0  0  0
    8.9573   10.3213   24.0309 N   0  0  0  0  0  0  0  0  0  0  0  0
   -0.0529   11.4216   18.6672 N   0  0  0  0  0  0  0  0  0  0  0  0
    0.4644   13.9358   18.9056 O   0  0  0  0  0  0  0  0  0  0  0  0
    1.1405   12.7324   16.7979 O   0  0  0  0  0  0  0  0  0  0  0  0
    6.0353   11.1344   20.7943 O   0  0  0  0  0  0  0  0  0  0  0  0
    0.9533   12.7354   18.2419 S   0  0  0  0  0  0  0  0  0  0  0  0
    4.1368   12.5756   21.9332 H   0  0  0  0  0  0  0  0  0  0  0  0
    5.2985   10.5232   18.3324 H   0  0  0  0  0  0  0  0  0  0  0  0
    2.0150   13.2453   20.8700 H   0  0  0  0  0  0  0  0  0  0  0  0
    3.1777   11.1900   17.2650 H   0  0  0  0  0  0  0  0  0  0  0  0
    8.2080   13.3184   23.3426 H   0  0  0  0  0  0  0  0  0  0  0  0
    9.5255   12.8090   22.2731 H   0  0  0  0  0  0  0  0  0  0  0  0
   10.4970   11.7767   24.1335 H   0  0  0  0  0  0  0  0  0  0  0  0
    9.0597   12.1299   25.1021 H   0  0  0  0  0  0  0  0  0  0  0  0
    6.8861   10.7021   24.1307 H   0  0  0  0  0  0  0  0  0  0  0  0
    7.3408    9.4129   22.9965 H   0  0  0  0  0  0  0  0  0  0  0  0
    8.4053   10.9582   21.4765 H   0  0  0  0  0  0  0  0  0  0  0  0
    6.7549   12.9844   21.3171 H   0  0  0  0  0  0  0  0  0  0  0  0
    5.8386   12.1245   22.5817 H   0  0  0  0  0  0  0  0  0  0  0  0
    8.8492    9.9344   24.9696 H   0  0  0  0  0  0  0  0  0  0  0  0
   -0.7873   11.5839   19.3670 H   0  0  0  0  0  0  0  0  0  0  0  0
   -0.3230   10.7622   17.9273 H   0  0  0  0  0  0  0  0  0  0  0  0
  1  3  2  0  0  0  0
  1  5  1  0  0  0  0
  2  4  1  0  0  0  0
  2  5  2  0  0  0  0
  3  6  1  0  0  0  0
  4  6  2  0  0  0  0
  5 16  1  0  0  0  0
  6 17  1  0  0  0  0
  7  8  1  0  0  0  0
  7 10  1  0  0  0  0
  8 12  1  0  0  0  0
  9 10  1  0  0  0  0
  9 12  1  0  0  0  0
 10 11  1  0  0  0  0
 11 16  1  0  0  0  0
 13 17  1  0  0  0  0
 14 17  2  0  0  0  0
 15 17  2  0  0  0  0
  1 18  1  0  0  0  0
  2 19  1  0  0  0  0
  3 20  1  0  0  0  0
  4 21  1  0  0  0  0
  7 22  1  0  0  0  0
  7 23  1  0  0  0  0
  8 24  1  0  0  0  0
  8 25  1  0  0  0  0
  9 26  1  0  0  0  0
  9 27  1  0  0  0  0
 10 28  1  0  0  0  0
 11 29  1  0  0  0  0
 11 30  1  0  0  0  0
 12 31  1  0  0  0  0
 13 32  1  0  0  0  0
 13 33  1  0  0  0  0
M  END
> <Mol Weight>
292,78

> <Formula>
C11H17ClN2O3S

> <ID>
EN300-220530

> <name>
Sulfonamides

> <LogP>
-0,58

> <ROCS_ShapeQuery>
x0310_0A_x0719_0A_x1080_0A_x0739_0A_x0929_0A_x0526_0A_x0911_0A

> <ROCS_TanimotoCombo>
0.366 

> <ROCS_ShapeTanimoto>
0.222 

> <ROCS_ColorTanimoto>
0.144 

> <ROCS_RefTversky>
0.207 

> <ROCS_RefColorTversky>
0.166 

> <ROCS_RefTverskyCombo>
0.372 

> <ROCS_FitTversky>
1.496 

> <ROCS_FitColorTversky>
0.530 

> <ROCS_FitTverskyCombo>
2.026 

> <ROCS_ColorScore>
-4.828

> <ROCS_Overlap>
1656.342

> <ROCS_Rank>
37                  

$$$$
untitled-dbase-2748_446
  -OEChem-02092407103D

 33 33  0     1  0  0  0  0  0999 V2000
    4.4106   11.2405   18.9593 C   0  0  0  0  0  0  0  0  0  0  0  0
    3.6045   12.3166   20.9666 C   0  0  0  0  0  0  0  0  0  0  0  0
    3.2413   11.6073   18.2931 C   0  0  0  0  0  0  0  0  0  0  0  0
    2.4352   12.6835   20.3004 C   0  0  0  0  0  0  0  0  0  0  0  0
    4.5922   11.5951   20.2961 C   0  0  0  0  0  0  0  0  0  0  0  0
    2.2536   12.3288   18.9636 C   0  0  0  0  0  0  0  0  0  0  0  0
    8.0309   12.5579   23.8094 C   0  0  0  0  0  0  0  0  0  0  0  0
    9.0926   10.5085   24.8274 C   0  0  0  0  0  0  0  0  0  0  0  0
    5.8567   11.1978   21.0173 C   0  0  0  0  0  0  0  0  0  0  0  0
    6.2525   12.1847   22.1129 C   0  0  0  0  0  0  0  0  0  0  0  0
    9.3057   11.9375   24.3545 C   0  0  1  0  0  0  0  0  0  0  0  0
   -0.2066   11.4404   18.4508 N   0  0  0  0  0  0  0  0  0  0  0  0
    7.4778   11.8102   22.7800 N   0  0  0  0  0  0  0  0  0  0  0  0
    7.5534   13.5973   24.2593 O   0  0  0  0  0  0  0  0  0  0  0  0
    0.2307   13.9575   18.7953 O   0  0  0  0  0  0  0  0  0  0  0  0
    1.0683   12.8360   16.7004 O   0  0  0  0  0  0  0  0  0  0  0  0
    0.7909   12.7899   18.1293 S   0  0  0  0  0  0  0  0  0  0  0  0
   10.4961   11.9609   23.0266 Cl  0  0  0  0  0  0  0  0  0  0  0  0
    5.1744   10.6782   18.4288 H   0  0  0  0  0  0  0  0  0  0  0  0
    3.7372   12.5969   22.0082 H   0  0  0  0  0  0  0  0  0  0  0  0
    3.1096   11.3255   17.2517 H   0  0  0  0  0  0  0  0  0  0  0  0
    1.6720   13.2451   20.8325 H   0  0  0  0  0  0  0  0  0  0  0  0
    8.6938    9.8915   24.0147 H   0  0  0  0  0  0  0  0  0  0  0  0
   10.0273   10.0441   25.1616 H   0  0  0  0  0  0  0  0  0  0  0  0
    8.3798   10.4718   25.6580 H   0  0  0  0  0  0  0  0  0  0  0  0
    6.6687   11.1269   20.2826 H   0  0  0  0  0  0  0  0  0  0  0  0
    5.7426   10.1911   21.4391 H   0  0  0  0  0  0  0  0  0  0  0  0
    6.4193   13.1759   21.6795 H   0  0  0  0  0  0  0  0  0  0  0  0
    5.4738   12.2731   22.8776 H   0  0  0  0  0  0  0  0  0  0  0  0
    9.7040   12.5445   25.1740 H   0  0  0  0  0  0  0  0  0  0  0  0
   -0.9874   11.5637   19.1070 H   0  0  0  0  0  0  0  0  0  0  0  0
   -0.4128   10.7979   17.6762 H   0  0  0  0  0  0  0  0  0  0  0  0
    7.9544   10.9640   22.4829 H   0  0  0  0  0  0  0  0  0  0  0  0
  1  3  2  0  0  0  0
  1  5  1  0  0  0  0
  2  4  1  0  0  0  0
  2  5  2  0  0  0  0
  3  6  1  0  0  0  0
  4  6  2  0  0  0  0
  5  9  1  0  0  0  0
  6 17  1  0  0  0  0
  7 11  1  0  0  0  0
  7 13  1  0  0  0  0
  7 14  2  0  0  0  0
  8 11  1  0  0  0  0
  9 10  1  0  0  0  0
 10 13  1  0  0  0  0
 11 18  1  0  0  0  0
 12 17  1  0  0  0  0
 15 17  2  0  0  0  0
 16 17  2  0  0  0  0
  1 19  1  0  0  0  0
  2 20  1  0  0  0  0
  3 21  1  0  0  0  0
  4 22  1  0  0  0  0
  8 23  1  0  0  0  0
  8 24  1  0  0  0  0
  8 25  1  0  0  0  0
  9 26  1  0  0  0  0
  9 27  1  0  0  0  0
 10 28  1  0  0  0  0
 10 29  1  0  0  0  0
 11 30  1  0  0  0  0
 12 31  1  0  0  0  0
 12 32  1  0  0  0  0
 13 33  1  0  0  0  0
M  END
> <Mol Weight>
290,76

> <Formula>
C11H15ClN2O3S

> <ID>
EN300-23351

> <name>
Sulfonamides

> <LogP>
0,92

> <ROCS_ShapeQuery>
x0310_0A_x0719_0A_x1080_0A_x0739_0A_x0929_0A_x0526_0A_x0911_0A

> <ROCS_TanimotoCombo>
0.366 

> <ROCS_ShapeTanimoto>
0.242 

> <ROCS_ColorTanimoto>
0.124 

> <ROCS_RefTversky>
0.222 

> <ROCS_RefColorTversky>
0.138 

> <ROCS_RefTverskyCombo>
0.360 

> <ROCS_FitTversky>
1.587 

> <ROCS_FitColorTversky>
0.555 

> <ROCS_FitTverskyCombo>
2.142 

> <ROCS_ColorScore>
-4.008

> <ROCS_Overlap>
1779.040

> <ROCS_Rank>
38                  

$$$$
untitled-dbase-2770_18
  -OEChem-02092407103D

 33 34  0     1  0  0  0  0  0999 V2000
    3.9227   12.2806   20.9246 C   0  0  0  0  0  0  0  0  0  0  0  0
    4.5846   11.1258   18.9083 C   0  0  0  0  0  0  0  0  0  0  0  0
    2.7245   12.6552   20.3168 C   0  0  0  0  0  0  0  0  0  0  0  0
    3.3863   11.5004   18.3004 C   0  0  0  0  0  0  0  0  0  0  0  0
    4.8528   11.5159   20.2204 C   0  0  0  0  0  0  0  0  0  0  0  0
    2.4563   12.2650   19.0047 C   0  0  0  0  0  0  0  0  0  0  0  0
    8.9013   10.3799   24.2221 C   0  0  0  0  0  0  0  0  0  0  0  0
    7.6262   10.3595   23.3880 C   0  0  0  0  0  0  0  0  0  0  0  0
    9.6170   11.6660   23.8313 C   0  0  0  0  0  0  0  0  0  0  0  0
    7.8491   11.4388   22.3392 C   0  0  1  0  0  0  0  0  0  0  0  0
    6.5567   12.0256   21.7992 C   0  0  0  0  0  0  0  0  0  0  0  0
    8.6298   12.4339   23.0758 N   0  0  0  0  0  0  0  0  0  0  0  0
   -0.0490   11.4199   18.6668 N   0  0  0  0  0  0  0  0  0  0  0  0
    0.4630   13.9354   18.9029 O   0  0  0  0  0  0  0  0  0  0  0  0
    1.1495   12.7295   16.7999 O   0  0  0  0  0  0  0  0  0  0  0  0
    6.0315   11.1470   20.8184 O   0  0  0  0  0  0  0  0  0  0  0  0
    0.9566   12.7347   18.2433 S   0  0  0  0  0  0  0  0  0  0  0  0
    4.1258   12.5868   21.9472 H   0  0  0  0  0  0  0  0  0  0  0  0
    5.3053   10.5302   18.3547 H   0  0  0  0  0  0  0  0  0  0  0  0
    2.0071   13.2509   20.8745 H   0  0  0  0  0  0  0  0  0  0  0  0
    3.1876   11.1914   17.2778 H   0  0  0  0  0  0  0  0  0  0  0  0
    8.6572   10.3638   25.2898 H   0  0  0  0  0  0  0  0  0  0  0  0
    9.5277    9.5078   24.0057 H   0  0  0  0  0  0  0  0  0  0  0  0
    7.4501    9.3771   22.9386 H   0  0  0  0  0  0  0  0  0  0  0  0
    6.7668   10.5932   24.0291 H   0  0  0  0  0  0  0  0  0  0  0  0
    9.9758   12.2194   24.7045 H   0  0  0  0  0  0  0  0  0  0  0  0
   10.4830   11.4467   23.1964 H   0  0  0  0  0  0  0  0  0  0  0  0
    8.4477   11.0485   21.5080 H   0  0  0  0  0  0  0  0  0  0  0  0
    6.7462   12.9987   21.3415 H   0  0  0  0  0  0  0  0  0  0  0  0
    5.8276   12.1384   22.6042 H   0  0  0  0  0  0  0  0  0  0  0  0
    8.0169   12.9170   23.7341 H   0  0  0  0  0  0  0  0  0  0  0  0
   -0.7864   11.5821   19.3635 H   0  0  0  0  0  0  0  0  0  0  0  0
   -0.3150   10.7587   17.9270 H   0  0  0  0  0  0  0  0  0  0  0  0
  1  3  2  0  0  0  0
  1  5  1  0  0  0  0
  2  4  1  0  0  0  0
  2  5  2  0  0  0  0
  3  6  1  0  0  0  0
  4  6  2  0  0  0  0
  5 16  1  0  0  0  0
  6 17  1  0  0  0  0
  7  8  1  0  0  0  0
  7  9  1  0  0  0  0
  8 10  1  0  0  0  0
  9 12  1  0  0  0  0
 10 11  1  0  0  0  0
 10 12  1  0  0  0  0
 11 16  1  0  0  0  0
 13 17  1  0  0  0  0
 14 17  2  0  0  0  0
 15 17  2  0  0  0  0
  1 18  1  0  0  0  0
  2 19  1  0  0  0  0
  3 20  1  0  0  0  0
  4 21  1  0  0  0  0
  7 22  1  0  0  0  0
  7 23  1  0  0  0  0
  8 24  1  0  0  0  0
  8 25  1  0  0  0  0
  9 26  1  0  0  0  0
  9 27  1  0  0  0  0
 10 28  1  0  0  0  0
 11 29  1  0  0  0  0
 11 30  1  0  0  0  0
 12 31  1  0  0  0  0
 13 32  1  0  0  0  0
 13 33  1  0  0  0  0
M  END
> <Mol Weight>
292,78

> <Formula>
C11H17ClN2O3S

> <ID>
EN300-221227

> <name>
Sulfonamides

> <LogP>
-0,14

> <ROCS_ShapeQuery>
x0310_0A_x0719_0A_x1080_0A_x0739_0A_x0929_0A_x0526_0A_x0911_0A

> <ROCS_TanimotoCombo>
0.366 

> <ROCS_ShapeTanimoto>
0.222 

> <ROCS_ColorTanimoto>
0.144 

> <ROCS_RefTversky>
0.207 

> <ROCS_RefColorTversky>
0.165 

> <ROCS_RefTverskyCombo>
0.372 

> <ROCS_FitTversky>
1.493 

> <ROCS_FitColorTversky>
0.528 

> <ROCS_FitTverskyCombo>
2.021 

> <ROCS_ColorScore>
-4.812

> <ROCS_Overlap>
1656.385

> <ROCS_Rank>
39                  

$$$$
untitled-dbase-1176_49
  -OEChem-02092407103D

 27 28  0     0  0  0  0  0  0999 V2000
    9.3198   10.1209   23.2006 C   0  0  0  0  0  0  0  0  0  0  0  0
    8.0337   10.0860   23.7393 C   0  0  0  0  0  0  0  0  0  0  0  0
    9.9983   11.3349   23.0929 C   0  0  0  0  0  0  0  0  0  0  0  0
    7.4259   11.2652   24.1703 C   0  0  0  0  0  0  0  0  0  0  0  0
    9.3905   12.5141   23.5239 C   0  0  0  0  0  0  0  0  0  0  0  0
    8.1043   12.4793   24.0626 C   0  0  0  0  0  0  0  0  0  0  0  0
    7.7280   16.3517   24.3093 C   0  0  0  0  0  0  0  0  0  0  0  0
    9.1011   15.7460   24.1541 C   0  0  0  0  0  0  0  0  0  0  0  0
    7.8830   14.9604   23.7765 C   0  0  0  0  0  0  0  0  0  0  0  0
    7.4418   13.7662   24.5323 C   0  0  0  0  0  0  0  0  0  0  0  0
    6.0246   15.3973   21.9308 N   0  0  0  0  0  0  0  0  0  0  0  0
    8.5059   15.7920   21.3791 O   0  0  0  0  0  0  0  0  0  0  0  0
    7.6600   13.4288   21.6712 O   0  0  0  0  0  0  0  0  0  0  0  0
    7.6278   14.8336   22.0133 S   0  0  0  0  0  0  0  0  0  0  0  0
    9.7935    9.2024   22.8663 H   0  0  0  0  0  0  0  0  0  0  0  0
    7.5057    9.1407   23.8242 H   0  0  0  0  0  0  0  0  0  0  0  0
   11.0001   11.3622   22.6746 H   0  0  0  0  0  0  0  0  0  0  0  0
    6.4235   11.2286   24.5885 H   0  0  0  0  0  0  0  0  0  0  0  0
    9.9266   13.4554   23.4360 H   0  0  0  0  0  0  0  0  0  0  0  0
    7.3492   16.4784   25.3167 H   0  0  0  0  0  0  0  0  0  0  0  0
    7.4528   17.1524   23.6335 H   0  0  0  0  0  0  0  0  0  0  0  0
    9.7406   16.1433   23.3753 H   0  0  0  0  0  0  0  0  0  0  0  0
    9.6308   15.4720   25.0590 H   0  0  0  0  0  0  0  0  0  0  0  0
    6.3416   13.6241   24.4703 H   0  0  0  0  0  0  0  0  0  0  0  0
    7.6396   13.8725   25.6205 H   0  0  0  0  0  0  0  0  0  0  0  0
    5.2805   14.7883   22.2928 H   0  0  0  0  0  0  0  0  0  0  0  0
    5.8568   16.3978   22.0937 H   0  0  0  0  0  0  0  0  0  0  0  0
  1  2  1  0  0  0  0
  1  3  2  0  0  0  0
  2  4  2  0  0  0  0
  3  5  1  0  0  0  0
  4  6  1  0  0  0  0
  5  6  2  0  0  0  0
  6 10  1  0  0  0  0
  7  8  1  0  0  0  0
  7  9  1  0  0  0  0
  8  9  1  0  0  0  0
  9 10  1  0  0  0  0
  9 14  1  0  0  0  0
 11 14  1  0  0  0  0
 12 14  2  0  0  0  0
 13 14  2  0  0  0  0
  1 15  1  0  0  0  0
  2 16  1  0  0  0  0
  3 17  1  0  0  0  0
  4 18  1  0  0  0  0
  5 19  1  0  0  0  0
  7 20  1  0  0  0  0
  7 21  1  0  0  0  0
  8 22  1  0  0  0  0
  8 23  1  0  0  0  0
 10 24  1  0  0  0  0
 10 25  1  0  0  0  0
 11 26  1  0  0  0  0
 11 27  1  0  0  0  0
M  END
> <Mol Weight>
211,28

> <Formula>
C10H13NO2S

> <ID>
EN300-5134640

> <name>
Sulfonamides

> <LogP>
1,32

> <ROCS_ShapeQuery>
x0310_0A_x0719_0A_x1080_0A_x0739_0A_x0929_0A_x0526_0A_x0911_0A

> <ROCS_TanimotoCombo>
0.365 

> <ROCS_ShapeTanimoto>
0.192 

> <ROCS_ColorTanimoto>
0.173 

> <ROCS_RefTversky>
0.181 

> <ROCS_RefColorTversky>
0.175 

> <ROCS_RefTverskyCombo>
0.355 

> <ROCS_FitTversky>
1.479 

> <ROCS_FitColorTversky>
0.951 

> <ROCS_FitTverskyCombo>
2.430 

> <ROCS_ColorScore>
-5.055

> <ROCS_Overlap>
1448.937

> <ROCS_Rank>
40                  

$$$$
untitled-dbase-2774_169
  -OEChem-02092407103D

 35 36  0     0  0  0  0  0  0999 V2000
    6.3245   12.6230   21.3944 C   0  0  0  0  0  0  0  0  0  0  0  0
    6.4198   10.7275   22.8894 C   0  0  0  0  0  0  0  0  0  0  0  0
    6.9660   13.4098   22.3510 C   0  0  0  0  0  0  0  0  0  0  0  0
    7.0613   11.5142   23.8460 C   0  0  0  0  0  0  0  0  0  0  0  0
    3.3470   11.7282   20.8204 C   0  0  0  0  0  0  0  0  0  0  0  0
    4.1924   10.9258   18.7041 C   0  0  0  0  0  0  0  0  0  0  0  0
    2.2387   12.2723   20.1714 C   0  0  0  0  0  0  0  0  0  0  0  0
    3.0840   11.4699   18.0551 C   0  0  0  0  0  0  0  0  0  0  0  0
    6.0514   11.2818   21.6636 C   0  0  0  0  0  0  0  0  0  0  0  0
    4.3239   11.0550   20.0868 C   0  0  0  0  0  0  0  0  0  0  0  0
    7.3344   12.8554   23.5768 C   0  0  0  0  0  0  0  0  0  0  0  0
    2.1072   12.1431   18.7888 C   0  0  0  0  0  0  0  0  0  0  0  0
    6.1661   15.1909   24.7515 C   0  0  0  0  0  0  0  0  0  0  0  0
    7.6516   15.0162   24.5181 C   0  0  0  0  0  0  0  0  0  0  0  0
   -0.3714   11.5121   18.0384 N   0  0  0  0  0  0  0  0  0  0  0  0
    0.1968   13.9105   18.7933 O   0  0  0  0  0  0  0  0  0  0  0  0
    1.0746   13.0725   16.5855 O   0  0  0  0  0  0  0  0  0  0  0  0
    5.4240   10.5143   20.7311 O   0  0  0  0  0  0  0  0  0  0  0  0
    7.9602   13.6232   24.5103 O   0  0  0  0  0  0  0  0  0  0  0  0
    0.7201   12.8250   17.9760 S   0  0  0  0  0  0  0  0  0  0  0  0
    6.0377   13.0610   20.4423 H   0  0  0  0  0  0  0  0  0  0  0  0
    6.2088    9.6835   23.1048 H   0  0  0  0  0  0  0  0  0  0  0  0
    7.1773   14.4535   22.1353 H   0  0  0  0  0  0  0  0  0  0  0  0
    7.3458   11.0771   24.7992 H   0  0  0  0  0  0  0  0  0  0  0  0
    3.4436   11.8313   21.8978 H   0  0  0  0  0  0  0  0  0  0  0  0
    4.9501   10.4026   18.1273 H   0  0  0  0  0  0  0  0  0  0  0  0
    1.4837   12.7948   20.7526 H   0  0  0  0  0  0  0  0  0  0  0  0
    2.9916   11.3639   16.9776 H   0  0  0  0  0  0  0  0  0  0  0  0
    5.5873   14.7097   23.9582 H   0  0  0  0  0  0  0  0  0  0  0  0
    5.8732   14.7594   25.7143 H   0  0  0  0  0  0  0  0  0  0  0  0
    5.9032   16.2534   24.7857 H   0  0  0  0  0  0  0  0  0  0  0  0
    8.2247   15.4997   25.3149 H   0  0  0  0  0  0  0  0  0  0  0  0
    7.9424   15.4471   23.5554 H   0  0  0  0  0  0  0  0  0  0  0  0
   -1.1768   11.5847   18.6720 H   0  0  0  0  0  0  0  0  0  0  0  0
   -0.5747   11.0124   17.1641 H   0  0  0  0  0  0  0  0  0  0  0  0
  1  3  2  0  0  0  0
  1  9  1  0  0  0  0
  2  4  1  0  0  0  0
  2  9  2  0  0  0  0
  3 11  1  0  0  0  0
  4 11  2  0  0  0  0
  5  7  2  0  0  0  0
  5 10  1  0  0  0  0
  6  8  1  0  0  0  0
  6 10  2  0  0  0  0
  7 12  1  0  0  0  0
  8 12  2  0  0  0  0
  9 18  1  0  0  0  0
 10 18  1  0  0  0  0
 11 19  1  0  0  0  0
 12 20  1  0  0  0  0
 13 14  1  0  0  0  0
 14 19  1  0  0  0  0
 15 20  1  0  0  0  0
 16 20  2  0  0  0  0
 17 20  2  0  0  0  0
  1 21  1  0  0  0  0
  2 22  1  0  0  0  0
  3 23  1  0  0  0  0
  4 24  1  0  0  0  0
  5 25  1  0  0  0  0
  6 26  1  0  0  0  0
  7 27  1  0  0  0  0
  8 28  1  0  0  0  0
 13 29  1  0  0  0  0
 13 30  1  0  0  0  0
 13 31  1  0  0  0  0
 14 32  1  0  0  0  0
 14 33  1  0  0  0  0
 15 34  1  0  0  0  0
 15 35  1  0  0  0  0
M  END
> <Mol Weight>
293,34

> <Formula>
C14H15NO4S

> <ID>
EN300-91441

> <name>
Sulfonamides

> <LogP>
2,28

> <ROCS_ShapeQuery>
x0310_0A_x0719_0A_x1080_0A_x0739_0A_x0929_0A_x0526_0A_x0911_0A

> <ROCS_TanimotoCombo>
0.363 

> <ROCS_ShapeTanimoto>
0.237 

> <ROCS_ColorTanimoto>
0.125 

> <ROCS_RefTversky>
0.222 

> <ROCS_RefColorTversky>
0.143 

> <ROCS_RefTverskyCombo>
0.364 

> <ROCS_FitTversky>
1.425 

> <ROCS_FitColorTversky>
0.509 

> <ROCS_FitTverskyCombo>
1.934 

> <ROCS_ColorScore>
-4.156

> <ROCS_Overlap>
1777.800

> <ROCS_Rank>
41                  

$$$$
untitled-dbase-2747_2005
  -OEChem-02092407103D

 33 33  0     0  0  0  0  0  0999 V2000
    4.5142   11.3824   18.8725 C   0  0  0  0  0  0  0  0  0  0  0  0
    3.8658   12.6673   20.8130 C   0  0  0  0  0  0  0  0  0  0  0  0
    3.2845   11.6618   18.2765 C   0  0  0  0  0  0  0  0  0  0  0  0
    2.6361   12.9468   20.2170 C   0  0  0  0  0  0  0  0  0  0  0  0
    4.8049   11.8851   20.1408 C   0  0  0  0  0  0  0  0  0  0  0  0
    2.3454   12.4441   18.9487 C   0  0  0  0  0  0  0  0  0  0  0  0
    8.2442   12.8675   23.5733 C   0  0  0  0  0  0  0  0  0  0  0  0
    6.1349   11.5823   20.7861 C   0  0  0  0  0  0  0  0  0  0  0  0
    9.6559   12.4430   23.9441 C   0  0  0  0  0  0  0  0  0  0  0  0
    6.6058   12.6885   21.7272 C   0  0  0  0  0  0  0  0  0  0  0  0
    9.7242   11.1060   24.6676 C   0  0  0  0  0  0  0  0  0  0  0  0
   -0.1327   11.4811   18.7572 N   0  0  0  0  0  0  0  0  0  0  0  0
    7.8830   12.4039   22.3160 N   0  0  0  0  0  0  0  0  0  0  0  0
    7.5306   13.5534   24.3006 O   0  0  0  0  0  0  0  0  0  0  0  0
    0.2846   14.0249   18.7827 O   0  0  0  0  0  0  0  0  0  0  0  0
    0.9577   12.6854   16.7577 O   0  0  0  0  0  0  0  0  0  0  0  0
    0.8070   12.7958   18.2020 S   0  0  0  0  0  0  0  0  0  0  0  0
    9.0908    9.7886   23.6498 Cl  0  0  0  0  0  0  0  0  0  0  0  0
    5.2395   10.7718   18.3414 H   0  0  0  0  0  0  0  0  0  0  0  0
    4.0834   13.0629   21.8016 H   0  0  0  0  0  0  0  0  0  0  0  0
    3.0679   11.2648   17.2883 H   0  0  0  0  0  0  0  0  0  0  0  0
    1.9115   13.5570   20.7498 H   0  0  0  0  0  0  0  0  0  0  0  0
    6.8810   11.4378   19.9945 H   0  0  0  0  0  0  0  0  0  0  0  0
    6.0773   10.6276   21.3245 H   0  0  0  0  0  0  0  0  0  0  0  0
   10.2763   12.4226   23.0401 H   0  0  0  0  0  0  0  0  0  0  0  0
   10.0608   13.2217   24.6024 H   0  0  0  0  0  0  0  0  0  0  0  0
    6.7151   13.6269   21.1744 H   0  0  0  0  0  0  0  0  0  0  0  0
    5.8951   12.8540   22.5436 H   0  0  0  0  0  0  0  0  0  0  0  0
   10.7625   10.8575   24.9061 H   0  0  0  0  0  0  0  0  0  0  0  0
    9.1485   11.1162   25.5978 H   0  0  0  0  0  0  0  0  0  0  0  0
    0.0601   10.5514   18.3650 H   0  0  0  0  0  0  0  0  0  0  0  0
   -0.4022   11.4658   19.7483 H   0  0  0  0  0  0  0  0  0  0  0  0
    8.5362   11.8409   21.7778 H   0  0  0  0  0  0  0  0  0  0  0  0
  1  3  2  0  0  0  0
  1  5  1  0  0  0  0
  2  4  1  0  0  0  0
  2  5  2  0  0  0  0
  3  6  1  0  0  0  0
  4  6  2  0  0  0  0
  5  8  1  0  0  0  0
  6 17  1  0  0  0  0
  7  9  1  0  0  0  0
  7 13  1  0  0  0  0
  7 14  2  0  0  0  0
  8 10  1  0  0  0  0
  9 11  1  0  0  0  0
 10 13  1  0  0  0  0
 11 18  1  0  0  0  0
 12 17  1  0  0  0  0
 15 17  2  0  0  0  0
 16 17  2  0  0  0  0
  1 19  1  0  0  0  0
  2 20  1  0  0  0  0
  3 21  1  0  0  0  0
  4 22  1  0  0  0  0
  8 23  1  0  0  0  0
  8 24  1  0  0  0  0
  9 25  1  0  0  0  0
  9 26  1  0  0  0  0
 10 27  1  0  0  0  0
 10 28  1  0  0  0  0
 11 29  1  0  0  0  0
 11 30  1  0  0  0  0
 12 31  1  0  0  0  0
 12 32  1  0  0  0  0
 13 33  1  0  0  0  0
M  END
> <Mol Weight>
290,76

> <Formula>
C11H15ClN2O3S

> <ID>
EN300-25832

> <name>
Sulfonamides

> <LogP>
0,59

> <ROCS_ShapeQuery>
x0310_0A_x0719_0A_x1080_0A_x0739_0A_x0929_0A_x0526_0A_x0911_0A

> <ROCS_TanimotoCombo>
0.362 

> <ROCS_ShapeTanimoto>
0.243 

> <ROCS_ColorTanimoto>
0.119 

> <ROCS_RefTversky>
0.222 

> <ROCS_RefColorTversky>
0.133 

> <ROCS_RefTverskyCombo>
0.355 

> <ROCS_FitTversky>
1.595 

> <ROCS_FitColorTversky>
0.536 

> <ROCS_FitTverskyCombo>
2.130 

> <ROCS_ColorScore>
-3.867

> <ROCS_Overlap>
1782.851

> <ROCS_Rank>
42                  

$$$$
untitled-dbase-2827_333
  -OEChem-02092407103D

 28 28  0     0  0  0  0  0  0999 V2000
    4.5272   11.2394   18.7319 C   0  0  0  0  0  0  0  0  0  0  0  0
    3.8534   12.2977   20.7965 C   0  0  0  0  0  0  0  0  0  0  0  0
    3.3180   11.6131   18.1456 C   0  0  0  0  0  0  0  0  0  0  0  0
    2.6441   12.6715   20.2103 C   0  0  0  0  0  0  0  0  0  0  0  0
    4.7949   11.5816   20.0574 C   0  0  0  0  0  0  0  0  0  0  0  0
    2.3764   12.3291   18.8848 C   0  0  0  0  0  0  0  0  0  0  0  0
    6.9953   12.0222   21.1865 C   0  0  0  0  0  0  0  0  0  0  0  0
    9.1204   11.9361   22.2476 C   0  0  0  0  0  0  0  0  0  0  0  0
    8.8622   12.1053   23.7223 C   0  0  0  0  0  0  0  0  0  0  0  0
   -0.1123   11.4445   18.5263 N   0  0  0  0  0  0  0  0  0  0  0  0
    6.0044   11.2078   20.6437 N   0  0  0  0  0  0  0  0  0  0  0  0
    6.9934   13.2454   21.2529 O   0  0  0  0  0  0  0  0  0  0  0  0
    0.3475   13.9588   18.8612 O   0  0  0  0  0  0  0  0  0  0  0  0
    1.0465   12.8539   16.7076 O   0  0  0  0  0  0  0  0  0  0  0  0
    8.0170   11.2404   21.6559 O   0  0  0  0  0  0  0  0  0  0  0  0
    7.7255   12.8058   23.9288 F   0  0  0  0  0  0  0  0  0  0  0  0
    9.8707   12.7718   24.3227 F   0  0  0  0  0  0  0  0  0  0  0  0
    8.7254   10.9107   24.3356 F   0  0  0  0  0  0  0  0  0  0  0  0
    0.8627   12.7966   18.1511 S   0  0  0  0  0  0  0  0  0  0  0  0
    5.2536   10.6814   18.1464 H   0  0  0  0  0  0  0  0  0  0  0  0
    4.0513   12.5700   21.8302 H   0  0  0  0  0  0  0  0  0  0  0  0
    3.1195   11.3410   17.1124 H   0  0  0  0  0  0  0  0  0  0  0  0
    1.9176   13.2292   20.7952 H   0  0  0  0  0  0  0  0  0  0  0  0
    9.2236   12.9106   21.7614 H   0  0  0  0  0  0  0  0  0  0  0  0
   10.0328   11.3558   22.0814 H   0  0  0  0  0  0  0  0  0  0  0  0
    0.0742   10.5637   18.0314 H   0  0  0  0  0  0  0  0  0  0  0  0
   -0.4059   11.3180   19.5025 H   0  0  0  0  0  0  0  0  0  0  0  0
    6.1882   10.1997   20.6799 H   0  0  0  0  0  0  0  0  0  0  0  0
  1  3  2  0  0  0  0
  1  5  1  0  0  0  0
  2  4  1  0  0  0  0
  2  5  2  0  0  0  0
  3  6  1  0  0  0  0
  4  6  2  0  0  0  0
  5 11  1  0  0  0  0
  6 19  1  0  0  0  0
  7 11  1  0  0  0  0
  7 12  2  0  0  0  0
  7 15  1  0  0  0  0
  8  9  1  0  0  0  0
  8 15  1  0  0  0  0
  9 16  1  0  0  0  0
  9 17  1  0  0  0  0
  9 18  1  0  0  0  0
 10 19  1  0  0  0  0
 13 19  2  0  0  0  0
 14 19  2  0  0  0  0
  1 20  1  0  0  0  0
  2 21  1  0  0  0  0
  3 22  1  0  0  0  0
  4 23  1  0  0  0  0
  8 24  1  0  0  0  0
  8 25  1  0  0  0  0
 10 26  1  0  0  0  0
 10 27  1  0  0  0  0
 11 28  1  0  0  0  0
M  END
> <Mol Weight>
298,24

> <Formula>
C9H9F3N2O4S

> <ID>
EN300-21777

> <name>
Sulfonamides

> <LogP>
1,39

> <ROCS_ShapeQuery>
x0310_0A_x0719_0A_x1080_0A_x0739_0A_x0929_0A_x0526_0A_x0911_0A

> <ROCS_TanimotoCombo>
0.362 

> <ROCS_ShapeTanimoto>
0.247 

> <ROCS_ColorTanimoto>
0.114 

> <ROCS_RefTversky>
0.228 

> <ROCS_RefColorTversky>
0.128 

> <ROCS_RefTverskyCombo>
0.356 

> <ROCS_FitTversky>
1.517 

> <ROCS_FitColorTversky>
0.516 

> <ROCS_FitTverskyCombo>
2.033 

> <ROCS_ColorScore>
-3.721

> <ROCS_Overlap>
1829.714

> <ROCS_Rank>
43                  

$$$$
untitled-dbase-1722_1539
  -OEChem-02092407103D

 30 30  0     1  0  0  0  0  0999 V2000
    9.9206   10.1665   23.2001 C   0  0  0  0  0  0  0  0  0  0  0  0
    8.5875    9.8698   22.9165 C   0  0  0  0  0  0  0  0  0  0  0  0
   10.2397   11.3065   23.9379 C   0  0  0  0  0  0  0  0  0  0  0  0
    7.5735   10.7132   23.3706 C   0  0  0  0  0  0  0  0  0  0  0  0
    9.2258   12.1498   24.3919 C   0  0  0  0  0  0  0  0  0  0  0  0
    7.8926   11.8532   24.1083 C   0  0  0  0  0  0  0  0  0  0  0  0
    4.9745   16.5946   23.1223 C   0  0  0  0  0  0  0  0  0  0  0  0
    6.8024   12.7610   24.5969 C   0  0  0  0  0  0  0  0  0  0  0  0
    6.2502   15.0439   24.6774 C   0  0  0  0  0  0  0  0  0  0  0  0
    5.7187   15.2733   23.2648 C   0  0  2  0  0  0  0  0  0  0  0  0
    6.2528   15.8840   20.7364 N   0  0  0  0  0  0  0  0  0  0  0  0
    8.0928   16.0746   22.5239 O   0  0  0  0  0  0  0  0  0  0  0  0
    7.2948   13.7879   21.8029 O   0  0  0  0  0  0  0  0  0  0  0  0
    7.3030   14.0890   24.6713 O   0  0  0  0  0  0  0  0  0  0  0  0
    7.0370   15.1873   22.0781 S   0  0  0  0  0  0  0  0  0  0  0  0
   10.7100    9.5090   22.8476 H   0  0  0  0  0  0  0  0  0  0  0  0
    8.3388    8.9816   22.3430 H   0  0  0  0  0  0  0  0  0  0  0  0
   11.2775   11.5372   24.1598 H   0  0  0  0  0  0  0  0  0  0  0  0
    6.5376   10.4742   23.1447 H   0  0  0  0  0  0  0  0  0  0  0  0
    9.4838   13.0359   24.9659 H   0  0  0  0  0  0  0  0  0  0  0  0
    5.6248   17.4375   23.3774 H   0  0  0  0  0  0  0  0  0  0  0  0
    4.1077   16.6233   23.7915 H   0  0  0  0  0  0  0  0  0  0  0  0
    4.6024   16.7430   22.1030 H   0  0  0  0  0  0  0  0  0  0  0  0
    5.9425   12.7409   23.9186 H   0  0  0  0  0  0  0  0  0  0  0  0
    6.4557   12.4516   25.5888 H   0  0  0  0  0  0  0  0  0  0  0  0
    6.6444   15.9794   25.0880 H   0  0  0  0  0  0  0  0  0  0  0  0
    5.4580   14.6807   25.3405 H   0  0  0  0  0  0  0  0  0  0  0  0
    5.0444   14.4496   23.0036 H   0  0  0  0  0  0  0  0  0  0  0  0
    6.5450   16.8249   20.4448 H   0  0  0  0  0  0  0  0  0  0  0  0
    6.0014   15.2674   19.9539 H   0  0  0  0  0  0  0  0  0  0  0  0
  1  2  1  0  0  0  0
  1  3  2  0  0  0  0
  2  4  2  0  0  0  0
  3  5  1  0  0  0  0
  4  6  1  0  0  0  0
  5  6  2  0  0  0  0
  6  8  1  0  0  0  0
  7 10  1  6  0  0  0
  8 14  1  0  0  0  0
  9 10  1  0  0  0  0
  9 14  1  0  0  0  0
 10 15  1  0  0  0  0
 11 15  1  0  0  0  0
 12 15  2  0  0  0  0
 13 15  2  0  0  0  0
  1 16  1  0  0  0  0
  2 17  1  0  0  0  0
  3 18  1  0  0  0  0
  4 19  1  0  0  0  0
  5 20  1  0  0  0  0
  7 21  1  0  0  0  0
  7 22  1  0  0  0  0
  7 23  1  0  0  0  0
  8 24  1  0  0  0  0
  8 25  1  0  0  0  0
  9 26  1  0  0  0  0
  9 27  1  0  0  0  0
 10 28  1  0  0  0  0
 11 29  1  0  0  0  0
 11 30  1  0  0  0  0
M  END
> <Mol Weight>
229,29

> <Formula>
C10H15NO3S

> <ID>
EN300-37104684

> <name>
Sulfonamides

> <LogP>
0,86

> <ROCS_ShapeQuery>
x0310_0A_x0719_0A_x1080_0A_x0739_0A_x0929_0A_x0526_0A_x0911_0A

> <ROCS_TanimotoCombo>
0.361 

> <ROCS_ShapeTanimoto>
0.182 

> <ROCS_ColorTanimoto>
0.179 

> <ROCS_RefTversky>
0.173 

> <ROCS_RefColorTversky>
0.185 

> <ROCS_RefTverskyCombo>
0.358 

> <ROCS_FitTversky>
1.382 

> <ROCS_FitColorTversky>
0.855 

> <ROCS_FitTverskyCombo>
2.237 

> <ROCS_ColorScore>
-5.359

> <ROCS_Overlap>
1385.072

> <ROCS_Rank>
44                  

$$$$
untitled-dbase-2354_6813
  -OEChem-02092407103D

 32 32  0     0  0  0  0  0  0999 V2000
    8.6752   10.0106   23.3018 C   0  0  0  0  0  0  0  0  0  0  0  0
    9.8497   10.6931   22.9852 C   0  0  0  0  0  0  0  0  0  0  0  0
    7.7214   10.6086   24.1255 C   0  0  0  0  0  0  0  0  0  0  0  0
   10.0706   11.9736   23.4924 C   0  0  0  0  0  0  0  0  0  0  0  0
    7.9423   11.8891   24.6327 C   0  0  0  0  0  0  0  0  0  0  0  0
    9.1169   12.5716   24.3161 C   0  0  0  0  0  0  0  0  0  0  0  0
    7.6426   15.3165   23.9674 C   0  0  0  0  0  0  0  0  0  0  0  0
    4.7134   16.4653   20.7829 C   0  0  0  0  0  0  0  0  0  0  0  0
    9.3539   13.9489   24.8623 C   0  0  0  0  0  0  0  0  0  0  0  0
    6.1298   15.3363   23.9920 C   0  0  0  0  0  0  0  0  0  0  0  0
    5.5064   14.1857   23.2185 C   0  0  0  0  0  0  0  0  0  0  0  0
    5.9907   15.8332   21.1593 N   0  0  0  0  0  0  0  0  0  0  0  0
    8.3421   15.8722   23.1317 O   0  0  0  0  0  0  0  0  0  0  0  0
    7.3806   13.6724   21.4651 O   0  0  0  0  0  0  0  0  0  0  0  0
    4.9663   13.5144   20.7562 O   0  0  0  0  0  0  0  0  0  0  0  0
    8.0939   14.6035   25.0420 O   0  0  0  0  0  0  0  0  0  0  0  0
    6.0141   14.1640   21.5268 S   0  0  0  0  0  0  0  0  0  0  0  0
    8.5028    9.0141   22.9056 H   0  0  0  0  0  0  0  0  0  0  0  0
   10.5920   10.2281   22.3429 H   0  0  0  0  0  0  0  0  0  0  0  0
    6.8064   10.0779   24.3712 H   0  0  0  0  0  0  0  0  0  0  0  0
   10.9887   12.4978   23.2406 H   0  0  0  0  0  0  0  0  0  0  0  0
    7.1937   12.3470   25.2738 H   0  0  0  0  0  0  0  0  0  0  0  0
    4.1129   15.7569   20.1932 H   0  0  0  0  0  0  0  0  0  0  0  0
    4.1612   16.7456   21.6920 H   0  0  0  0  0  0  0  0  0  0  0  0
    4.9126   17.3653   20.1827 H   0  0  0  0  0  0  0  0  0  0  0  0
    9.8738   13.9044   25.8254 H   0  0  0  0  0  0  0  0  0  0  0  0
    9.9699   14.5381   24.1744 H   0  0  0  0  0  0  0  0  0  0  0  0
    5.8124   16.2850   23.5451 H   0  0  0  0  0  0  0  0  0  0  0  0
    5.7947   15.3084   25.0349 H   0  0  0  0  0  0  0  0  0  0  0  0
    5.8253   13.2286   23.6429 H   0  0  0  0  0  0  0  0  0  0  0  0
    4.4132   14.2238   23.2267 H   0  0  0  0  0  0  0  0  0  0  0  0
    6.6081   16.4390   21.7153 H   0  0  0  0  0  0  0  0  0  0  0  0
  1  2  1  0  0  0  0
  1  3  2  0  0  0  0
  2  4  2  0  0  0  0
  3  5  1  0  0  0  0
  4  6  1  0  0  0  0
  5  6  2  0  0  0  0
  6  9  1  0  0  0  0
  7 10  1  0  0  0  0
  7 13  2  0  0  0  0
  7 16  1  0  0  0  0
  8 12  1  0  0  0  0
  9 16  1  0  0  0  0
 10 11  1  0  0  0  0
 11 17  1  0  0  0  0
 12 17  1  0  0  0  0
 14 17  2  0  0  0  0
 15 17  2  0  0  0  0
  1 18  1  0  0  0  0
  2 19  1  0  0  0  0
  3 20  1  0  0  0  0
  4 21  1  0  0  0  0
  5 22  1  0  0  0  0
  8 23  1  0  0  0  0
  8 24  1  0  0  0  0
  8 25  1  0  0  0  0
  9 26  1  0  0  0  0
  9 27  1  0  0  0  0
 10 28  1  0  0  0  0
 10 29  1  0  0  0  0
 11 30  1  0  0  0  0
 11 31  1  0  0  0  0
 12 32  1  0  0  0  0
M  END
> <Mol Weight>
257,30

> <Formula>
C11H15NO4S

> <ID>
EN300-123188

> <name>
Sulfonamides

> <LogP>
0,43

> <ROCS_ShapeQuery>
x0310_0A_x0719_0A_x1080_0A_x0739_0A_x0929_0A_x0526_0A_x0911_0A

> <ROCS_TanimotoCombo>
0.360 

> <ROCS_ShapeTanimoto>
0.201 

> <ROCS_ColorTanimoto>
0.159 

> <ROCS_RefTversky>
0.190 

> <ROCS_RefColorTversky>
0.166 

> <ROCS_RefTverskyCombo>
0.357 

> <ROCS_FitTversky>
1.398 

> <ROCS_FitColorTversky>
0.771 

> <ROCS_FitTverskyCombo>
2.169 

> <ROCS_ColorScore>
-4.829

> <ROCS_Overlap>
1524.208

> <ROCS_Rank>
45                  

$$$$
untitled-dbase-1233_7
  -OEChem-02092407103D

 29 29  0     1  0  0  0  0  0999 V2000
    9.1701    9.8821   23.6229 C   0  0  0  0  0  0  0  0  0  0  0  0
    8.3606   10.2806   24.6865 C   0  0  0  0  0  0  0  0  0  0  0  0
    9.7069   10.8367   22.7590 C   0  0  0  0  0  0  0  0  0  0  0  0
    8.0877   11.6339   24.8863 C   0  0  0  0  0  0  0  0  0  0  0  0
    9.4340   12.1900   22.9588 C   0  0  0  0  0  0  0  0  0  0  0  0
    8.6244   12.5886   24.0225 C   0  0  0  0  0  0  0  0  0  0  0  0
    6.5700   15.8489   24.1153 C   0  0  0  0  0  0  0  0  0  0  0  0
    4.7849   15.1403   20.9805 C   0  0  0  0  0  0  0  0  0  0  0  0
    8.3292   14.0537   24.2380 C   0  0  0  0  0  0  0  0  0  0  0  0
    7.0740   14.5458   23.5031 C   0  0  2  0  0  0  0  0  0  0  0  0
    6.0633   15.7765   21.3459 N   0  0  0  0  0  0  0  0  0  0  0  0
    8.6229   15.5480   21.6465 O   0  0  0  0  0  0  0  0  0  0  0  0
    7.2407   13.5073   21.1158 O   0  0  0  0  0  0  0  0  0  0  0  0
    7.3919   14.7923   21.7710 S   0  0  0  0  0  0  0  0  0  0  0  0
    9.3836    8.8284   23.4682 H   0  0  0  0  0  0  0  0  0  0  0  0
    7.9435    9.5375   25.3599 H   0  0  0  0  0  0  0  0  0  0  0  0
   10.3381   10.5269   21.9314 H   0  0  0  0  0  0  0  0  0  0  0  0
    7.4557   11.9352   25.7176 H   0  0  0  0  0  0  0  0  0  0  0  0
    9.8564   12.9267   22.2806 H   0  0  0  0  0  0  0  0  0  0  0  0
    7.3449   16.6219   24.0831 H   0  0  0  0  0  0  0  0  0  0  0  0
    5.6893   16.2240   23.5823 H   0  0  0  0  0  0  0  0  0  0  0  0
    6.2845   15.7031   25.1627 H   0  0  0  0  0  0  0  0  0  0  0  0
    4.6377   14.2359   21.5892 H   0  0  0  0  0  0  0  0  0  0  0  0
    3.9596   15.8440   21.1641 H   0  0  0  0  0  0  0  0  0  0  0  0
    4.8031   14.8663   19.9154 H   0  0  0  0  0  0  0  0  0  0  0  0
    9.1985   14.6545   23.9402 H   0  0  0  0  0  0  0  0  0  0  0  0
    8.2140   14.2113   25.3188 H   0  0  0  0  0  0  0  0  0  0  0  0
    6.2731   13.7994   23.5536 H   0  0  0  0  0  0  0  0  0  0  0  0
    6.2699   16.6327   20.8152 H   0  0  0  0  0  0  0  0  0  0  0  0
  1  2  1  0  0  0  0
  1  3  2  0  0  0  0
  2  4  2  0  0  0  0
  3  5  1  0  0  0  0
  4  6  1  0  0  0  0
  5  6  2  0  0  0  0
  6  9  1  0  0  0  0
  7 10  1  0  0  0  0
  8 11  1  0  0  0  0
  9 10  1  0  0  0  0
 10 14  1  0  0  0  0
 11 14  1  0  0  0  0
 12 14  2  0  0  0  0
 13 14  2  0  0  0  0
  1 15  1  0  0  0  0
  2 16  1  0  0  0  0
  3 17  1  0  0  0  0
  4 18  1  0  0  0  0
  5 19  1  0  0  0  0
  7 20  1  0  0  0  0
  7 21  1  0  0  0  0
  7 22  1  0  0  0  0
  8 23  1  0  0  0  0
  8 24  1  0  0  0  0
  8 25  1  0  0  0  0
  9 26  1  0  0  0  0
  9 27  1  0  0  0  0
 10 28  1  0  0  0  0
 11 29  1  0  0  0  0
M  END
> <Mol Weight>
213,30

> <Formula>
C10H15NO2S

> <ID>
EN300-680111

> <name>
Sulfonamides

> <LogP>
1,42

> <ROCS_ShapeQuery>
x0310_0A_x0719_0A_x1080_0A_x0739_0A_x0929_0A_x0526_0A_x0911_0A

> <ROCS_TanimotoCombo>
0.360 

> <ROCS_ShapeTanimoto>
0.188 

> <ROCS_ColorTanimoto>
0.171 

> <ROCS_RefTversky>
0.177 

> <ROCS_RefColorTversky>
0.173 

> <ROCS_RefTverskyCombo>
0.350 

> <ROCS_FitTversky>
1.479 

> <ROCS_FitColorTversky>
0.943 

> <ROCS_FitTverskyCombo>
2.422 

> <ROCS_ColorScore>
-5.014

> <ROCS_Overlap>
1419.998

> <ROCS_Rank>
46                  

$$$$
untitled-dbase-2472_56
  -OEChem-02092407103D

 29 30  0     0  0  0  0  0  0999 V2000
    4.5027   11.3652   18.9836 C   0  0  0  0  0  0  0  0  0  0  0  0
    3.7710   12.6377   20.9026 C   0  0  0  0  0  0  0  0  0  0  0  0
    3.3011   11.6513   18.3357 C   0  0  0  0  0  0  0  0  0  0  0  0
    2.5694   12.9239   20.2546 C   0  0  0  0  0  0  0  0  0  0  0  0
    6.9346   11.6610   23.0914 C   0  0  0  0  0  0  0  0  0  0  0  0
    7.6824   12.3846   23.9978 C   0  0  0  0  0  0  0  0  0  0  0  0
    4.7377   11.8583   20.2671 C   0  0  0  0  0  0  0  0  0  0  0  0
    2.3345   12.4307   18.9712 C   0  0  0  0  0  0  0  0  0  0  0  0
    6.7137   12.2743   21.8752 C   0  0  0  0  0  0  0  0  0  0  0  0
    7.8971   14.1029   22.5254 C   0  0  0  0  0  0  0  0  0  0  0  0
    8.1811   13.6128   23.7471 N   0  0  0  0  0  0  0  0  0  0  0  0
    7.1816   13.4992   21.5573 N   0  0  0  0  0  0  0  0  0  0  0  0
    8.4019   15.3874   22.2282 N   0  0  0  0  0  0  0  0  0  0  0  0
   -0.1341   11.4720   18.6676 N   0  0  0  0  0  0  0  0  0  0  0  0
    5.9526   11.5692   20.9227 N   0  0  0  0  0  0  0  0  0  0  0  0
    0.2843   14.0151   18.7263 O   0  0  0  0  0  0  0  0  0  0  0  0
    1.0423   12.6868   16.7241 O   0  0  0  0  0  0  0  0  0  0  0  0
    0.8298   12.7888   18.1612 S   0  0  0  0  0  0  0  0  0  0  0  0
    5.2489   10.7566   18.4792 H   0  0  0  0  0  0  0  0  0  0  0  0
    3.9444   13.0279   21.9023 H   0  0  0  0  0  0  0  0  0  0  0  0
    3.1288   11.2617   17.3360 H   0  0  0  0  0  0  0  0  0  0  0  0
    1.8233   13.5319   20.7594 H   0  0  0  0  0  0  0  0  0  0  0  0
    6.5511   10.6775   23.3331 H   0  0  0  0  0  0  0  0  0  0  0  0
    7.9076   11.9855   24.9812 H   0  0  0  0  0  0  0  0  0  0  0  0
    8.8970   15.8911   22.9351 H   0  0  0  0  0  0  0  0  0  0  0  0
    8.1748   15.8081   21.3506 H   0  0  0  0  0  0  0  0  0  0  0  0
   -0.8863   11.6569   19.3424 H   0  0  0  0  0  0  0  0  0  0  0  0
   -0.3661   10.7499   17.9748 H   0  0  0  0  0  0  0  0  0  0  0  0
    6.3575   10.6774   20.6538 H   0  0  0  0  0  0  0  0  0  0  0  0
  1  3  2  0  0  0  0
  1  7  1  0  0  0  0
  2  4  1  0  0  0  0
  2  7  2  0  0  0  0
  3  8  1  0  0  0  0
  4  8  2  0  0  0  0
  5  6  1  0  0  0  0
  5  9  2  0  0  0  0
  6 11  2  0  0  0  0
  7 15  1  0  0  0  0
  8 18  1  0  0  0  0
  9 12  1  0  0  0  0
  9 15  1  0  0  0  0
 10 11  1  0  0  0  0
 10 12  2  0  0  0  0
 10 13  1  0  0  0  0
 14 18  1  0  0  0  0
 16 18  2  0  0  0  0
 17 18  2  0  0  0  0
  1 19  1  0  0  0  0
  2 20  1  0  0  0  0
  3 21  1  0  0  0  0
  4 22  1  0  0  0  0
  5 23  1  0  0  0  0
  6 24  1  0  0  0  0
 13 25  1  0  0  0  0
 13 26  1  0  0  0  0
 14 27  1  0  0  0  0
 14 28  1  0  0  0  0
 15 29  1  0  0  0  0
M  END
> <Mol Weight>
265,29

> <Formula>
C10H11N5O2S

> <ID>
EN300-24853

> <name>
Sulfonamides

> <LogP>
0,54

> <ROCS_ShapeQuery>
x0310_0A_x0719_0A_x1080_0A_x0739_0A_x0929_0A_x0526_0A_x0911_0A

> <ROCS_TanimotoCombo>
0.359 

> <ROCS_ShapeTanimoto>
0.220 

> <ROCS_ColorTanimoto>
0.139 

> <ROCS_RefTversky>
0.207 

> <ROCS_RefColorTversky>
0.168 

> <ROCS_RefTverskyCombo>
0.375 

> <ROCS_FitTversky>
1.414 

> <ROCS_FitColorTversky>
0.446 

> <ROCS_FitTverskyCombo>
1.860 

> <ROCS_ColorScore>
-4.919

> <ROCS_Overlap>
1659.033

> <ROCS_Rank>
47                  

$$$$
untitled-dbase-2752_72
  -OEChem-02092407103D

 33 34  0     0  0  0  0  0  0999 V2000
    3.6000   10.8636   18.3457 C   0  0  0  0  0  0  0  0  0  0  0  0
    8.3219   12.6272   23.5816 C   0  0  0  0  0  0  0  0  0  0  0  0
    8.1200   10.4245   22.6097 C   0  0  0  0  0  0  0  0  0  0  0  0
    4.6629   10.7060   19.2351 C   0  0  0  0  0  0  0  0  0  0  0  0
    9.3054   12.1538   24.4501 C   0  0  0  0  0  0  0  0  0  0  0  0
    9.1035    9.9511   23.4782 C   0  0  0  0  0  0  0  0  0  0  0  0
    2.5770   11.7668   18.6345 C   0  0  0  0  0  0  0  0  0  0  0  0
    3.6797   12.3547   20.7022 C   0  0  0  0  0  0  0  0  0  0  0  0
    7.7292   11.7625   22.6614 C   0  0  0  0  0  0  0  0  0  0  0  0
    9.6962   10.8158   24.3984 C   0  0  0  0  0  0  0  0  0  0  0  0
    4.7028   11.4516   20.4133 C   0  0  0  0  0  0  0  0  0  0  0  0
    2.6168   12.5123   19.8127 C   0  0  0  0  0  0  0  0  0  0  0  0
    6.7038   12.2561   21.7560 C   0  0  0  0  0  0  0  0  0  0  0  0
   10.6906   10.3372   25.2765 N   0  0  0  0  0  0  0  0  0  0  0  0
    0.2526   12.6408   21.0369 N   0  0  0  0  0  0  0  0  0  0  0  0
    5.7832   11.2917   21.3172 N   0  0  0  0  0  0  0  0  0  0  0  0
    6.6793   13.4367   21.3811 O   0  0  0  0  0  0  0  0  0  0  0  0
    1.8590   14.6565   21.0782 O   0  0  0  0  0  0  0  0  0  0  0  0
    0.7059   14.0429   18.9237 O   0  0  0  0  0  0  0  0  0  0  0  0
    1.3357   13.6419   20.1742 S   0  0  0  0  0  0  0  0  0  0  0  0
    3.5690   10.2836   17.4280 H   0  0  0  0  0  0  0  0  0  0  0  0
    8.0250   13.6717   23.6305 H   0  0  0  0  0  0  0  0  0  0  0  0
    7.6647    9.7420   21.8966 H   0  0  0  0  0  0  0  0  0  0  0  0
    5.4548    9.9997   18.9991 H   0  0  0  0  0  0  0  0  0  0  0  0
    9.7607   12.8362   25.1633 H   0  0  0  0  0  0  0  0  0  0  0  0
    9.4005    8.9066   23.4294 H   0  0  0  0  0  0  0  0  0  0  0  0
    1.7533   11.8815   17.9350 H   0  0  0  0  0  0  0  0  0  0  0  0
    3.7102   12.9366   21.6207 H   0  0  0  0  0  0  0  0  0  0  0  0
   10.9282    9.3659   25.2617 H   0  0  0  0  0  0  0  0  0  0  0  0
   11.0737   10.9554   25.9629 H   0  0  0  0  0  0  0  0  0  0  0  0
    0.1610   12.7897   22.0493 H   0  0  0  0  0  0  0  0  0  0  0  0
   -0.6247   12.3700   20.5761 H   0  0  0  0  0  0  0  0  0  0  0  0
    5.9074   10.3566   21.6972 H   0  0  0  0  0  0  0  0  0  0  0  0
  1  4  2  0  0  0  0
  1  7  1  0  0  0  0
  2  5  2  0  0  0  0
  2  9  1  0  0  0  0
  3  6  1  0  0  0  0
  3  9  2  0  0  0  0
  4 11  1  0  0  0  0
  5 10  1  0  0  0  0
  6 10  2  0  0  0  0
  7 12  2  0  0  0  0
  8 11  2  0  0  0  0
  8 12  1  0  0  0  0
  9 13  1  0  0  0  0
 10 14  1  0  0  0  0
 11 16  1  0  0  0  0
 12 20  1  0  0  0  0
 13 16  1  0  0  0  0
 13 17  2  0  0  0  0
 15 20  1  0  0  0  0
 18 20  2  0  0  0  0
 19 20  2  0  0  0  0
  1 21  1  0  0  0  0
  2 22  1  0  0  0  0
  3 23  1  0  0  0  0
  4 24  1  0  0  0  0
  5 25  1  0  0  0  0
  6 26  1  0  0  0  0
  7 27  1  0  0  0  0
  8 28  1  0  0  0  0
 14 29  1  0  0  0  0
 14 30  1  0  0  0  0
 15 31  1  0  0  0  0
 15 32  1  0  0  0  0
 16 33  1  0  0  0  0
M  END
> <Mol Weight>
291,33

> <Formula>
C13H13N3O3S

> <ID>
EN300-01190

> <name>
Sulfonamides

> <LogP>
0,84

> <ROCS_ShapeQuery>
x0310_0A_x0719_0A_x1080_0A_x0739_0A_x0929_0A_x0526_0A_x0911_0A

> <ROCS_TanimotoCombo>
0.359 

> <ROCS_ShapeTanimoto>
0.225 

> <ROCS_ColorTanimoto>
0.134 

> <ROCS_RefTversky>
0.212 

> <ROCS_RefColorTversky>
0.159 

> <ROCS_RefTverskyCombo>
0.371 

> <ROCS_FitTversky>
1.359 

> <ROCS_FitColorTversky>
0.462 

> <ROCS_FitTverskyCombo>
1.821 

> <ROCS_ColorScore>
-4.648

> <ROCS_Overlap>
1701.745

> <ROCS_Rank>
48                  

$$$$
untitled-dbase-2625_1047
  -OEChem-02092407103D

 31 31  0     0  0  0  0  0  0999 V2000
    4.4741   11.1060   18.6231 C   0  0  0  0  0  0  0  0  0  0  0  0
    4.0325   12.3794   20.6282 C   0  0  0  0  0  0  0  0  0  0  0  0
    3.2308   11.4789   18.1125 C   0  0  0  0  0  0  0  0  0  0  0  0
    2.7893   12.7524   20.1176 C   0  0  0  0  0  0  0  0  0  0  0  0
    4.8749   11.5562   19.8810 C   0  0  0  0  0  0  0  0  0  0  0  0
    2.3884   12.3021   18.8597 C   0  0  0  0  0  0  0  0  0  0  0  0
   10.1217   11.8771   23.6907 C   0  0  0  0  0  0  0  0  0  0  0  0
    6.2196   11.1523   20.4341 C   0  0  0  0  0  0  0  0  0  0  0  0
    6.8193   12.2014   21.3672 C   0  0  0  0  0  0  0  0  0  0  0  0
   -0.1546   11.5052   18.8047 N   0  0  0  0  0  0  0  0  0  0  0  0
    8.1441   11.8101   21.8811 N   0  0  0  0  0  0  0  0  0  0  0  0
    0.4294   14.0155   18.8590 O   0  0  0  0  0  0  0  0  0  0  0  0
    0.8867   12.6883   16.7668 O   0  0  0  0  0  0  0  0  0  0  0  0
    8.0759   10.2663   23.9564 O   0  0  0  0  0  0  0  0  0  0  0  0
    7.7230   12.7473   24.2334 O   0  0  0  0  0  0  0  0  0  0  0  0
    0.8331   12.7709   18.2198 S   0  0  0  0  0  0  0  0  0  0  0  0
    8.3650   11.6319   23.5646 S   0  0  0  0  0  0  0  0  0  0  0  0
    5.1235   10.4641   18.0339 H   0  0  0  0  0  0  0  0  0  0  0  0
    4.3363   12.7346   21.6094 H   0  0  0  0  0  0  0  0  0  0  0  0
    2.9279   11.1222   17.1316 H   0  0  0  0  0  0  0  0  0  0  0  0
    2.1406   13.3938   20.7084 H   0  0  0  0  0  0  0  0  0  0  0  0
   10.4074   11.7880   24.7400 H   0  0  0  0  0  0  0  0  0  0  0  0
   10.6198   11.1126   23.0925 H   0  0  0  0  0  0  0  0  0  0  0  0
   10.3583   12.8729   23.3130 H   0  0  0  0  0  0  0  0  0  0  0  0
    6.9042   10.9807   19.5938 H   0  0  0  0  0  0  0  0  0  0  0  0
    6.1329   10.1897   20.9541 H   0  0  0  0  0  0  0  0  0  0  0  0
    6.9555   13.1448   20.8291 H   0  0  0  0  0  0  0  0  0  0  0  0
    6.1729   12.3910   22.2304 H   0  0  0  0  0  0  0  0  0  0  0  0
   -0.0478   10.5754   18.3810 H   0  0  0  0  0  0  0  0  0  0  0  0
   -0.3628   11.4817   19.8104 H   0  0  0  0  0  0  0  0  0  0  0  0
    8.6496   11.1521   21.2738 H   0  0  0  0  0  0  0  0  0  0  0  0
  1  3  2  0  0  0  0
  1  5  1  0  0  0  0
  2  4  1  0  0  0  0
  2  5  2  0  0  0  0
  3  6  1  0  0  0  0
  4  6  2  0  0  0  0
  5  8  1  0  0  0  0
  6 16  1  0  0  0  0
  7 17  1  0  0  0  0
  8  9  1  0  0  0  0
  9 11  1  0  0  0  0
 10 16  1  0  0  0  0
 11 17  1  0  0  0  0
 12 16  2  0  0  0  0
 13 16  2  0  0  0  0
 14 17  2  0  0  0  0
 15 17  2  0  0  0  0
  1 18  1  0  0  0  0
  2 19  1  0  0  0  0
  3 20  1  0  0  0  0
  4 21  1  0  0  0  0
  7 22  1  0  0  0  0
  7 23  1  0  0  0  0
  7 24  1  0  0  0  0
  8 25  1  0  0  0  0
  8 26  1  0  0  0  0
  9 27  1  0  0  0  0
  9 28  1  0  0  0  0
 10 29  1  0  0  0  0
 10 30  1  0  0  0  0
 11 31  1  0  0  0  0
M  END
> <Mol Weight>
278,34

> <Formula>
C9H14N2O4S2

> <ID>
EN300-172749

> <name>
Sulfonamides

> <LogP>
-0,69

> <ROCS_ShapeQuery>
x0310_0A_x0719_0A_x1080_0A_x0739_0A_x0929_0A_x0526_0A_x0911_0A

> <ROCS_TanimotoCombo>
0.358 

> <ROCS_ShapeTanimoto>
0.231 

> <ROCS_ColorTanimoto>
0.128 

> <ROCS_RefTversky>
0.212 

> <ROCS_RefColorTversky>
0.145 

> <ROCS_RefTverskyCombo>
0.357 

> <ROCS_FitTversky>
1.590 

> <ROCS_FitColorTversky>
0.517 

> <ROCS_FitTverskyCombo>
2.106 

> <ROCS_ColorScore>
-4.220

> <ROCS_Overlap>
1701.555

> <ROCS_Rank>
49                  

$$$$
untitled-dbase-2421_166
  -OEChem-02092407103D

 31 32  0     0  0  0  0  0  0999 V2000
    9.9535   11.2349   23.7751 C   0  0  0  0  0  0  0  0  0  0  0  0
    9.3845   10.2512   22.9663 C   0  0  0  0  0  0  0  0  0  0  0  0
    9.1734   12.2946   24.2379 C   0  0  0  0  0  0  0  0  0  0  0  0
    3.6107   10.6114   18.9287 C   0  0  0  0  0  0  0  0  0  0  0  0
    8.0355   10.3272   22.6201 C   0  0  0  0  0  0  0  0  0  0  0  0
    7.8243   12.3706   23.8917 C   0  0  0  0  0  0  0  0  0  0  0  0
    4.7083   10.9204   19.7320 C   0  0  0  0  0  0  0  0  0  0  0  0
    2.4030   11.2860   19.1083 C   0  0  0  0  0  0  0  0  0  0  0  0
    3.3908   12.5786   20.8946 C   0  0  0  0  0  0  0  0  0  0  0  0
    7.2553   11.3869   23.0828 C   0  0  0  0  0  0  0  0  0  0  0  0
    4.5984   11.9040   20.7149 C   0  0  0  0  0  0  0  0  0  0  0  0
    2.2931   12.2696   20.0913 C   0  0  0  0  0  0  0  0  0  0  0  0
    5.8128   11.4690   22.7129 C   0  0  0  0  0  0  0  0  0  0  0  0
    1.1853   14.1698   21.5968 N   0  0  0  0  0  0  0  0  0  0  0  0
    0.5183   13.9070   19.1206 O   0  0  0  0  0  0  0  0  0  0  0  0
   -0.2149   12.1649   20.7865 O   0  0  0  0  0  0  0  0  0  0  0  0
    5.6763   12.2069   21.5046 O   0  0  0  0  0  0  0  0  0  0  0  0
    0.7818   13.1157   20.3142 S   0  0  0  0  0  0  0  0  0  0  0  0
   11.0037   11.1748   24.0457 H   0  0  0  0  0  0  0  0  0  0  0  0
    9.9916    9.4254   22.6068 H   0  0  0  0  0  0  0  0  0  0  0  0
    9.6158   13.0600   24.8685 H   0  0  0  0  0  0  0  0  0  0  0  0
    3.6963    9.8454   18.1637 H   0  0  0  0  0  0  0  0  0  0  0  0
    7.6007    9.5563   21.9893 H   0  0  0  0  0  0  0  0  0  0  0  0
    7.2243   13.1999   24.2568 H   0  0  0  0  0  0  0  0  0  0  0  0
    5.6462   10.3913   19.5873 H   0  0  0  0  0  0  0  0  0  0  0  0
    1.5545   11.0384   18.4764 H   0  0  0  0  0  0  0  0  0  0  0  0
    3.3101   13.3443   21.6625 H   0  0  0  0  0  0  0  0  0  0  0  0
    5.3795   10.4703   22.5650 H   0  0  0  0  0  0  0  0  0  0  0  0
    5.2294   11.9676   23.4989 H   0  0  0  0  0  0  0  0  0  0  0  0
    1.2832   15.1704   21.3856 H   0  0  0  0  0  0  0  0  0  0  0  0
    0.7834   13.9784   22.5226 H   0  0  0  0  0  0  0  0  0  0  0  0
  1  2  1  0  0  0  0
  1  3  2  0  0  0  0
  2  5  2  0  0  0  0
  3  6  1  0  0  0  0
  4  7  1  0  0  0  0
  4  8  2  0  0  0  0
  5 10  1  0  0  0  0
  6 10  2  0  0  0  0
  7 11  2  0  0  0  0
  8 12  1  0  0  0  0
  9 11  1  0  0  0  0
  9 12  2  0  0  0  0
 10 13  1  0  0  0  0
 11 17  1  0  0  0  0
 12 18  1  0  0  0  0
 13 17  1  0  0  0  0
 14 18  1  0  0  0  0
 15 18  2  0  0  0  0
 16 18  2  0  0  0  0
  1 19  1  0  0  0  0
  2 20  1  0  0  0  0
  3 21  1  0  0  0  0
  4 22  1  0  0  0  0
  5 23  1  0  0  0  0
  6 24  1  0  0  0  0
  7 25  1  0  0  0  0
  8 26  1  0  0  0  0
  9 27  1  0  0  0  0
 13 28  1  0  0  0  0
 13 29  1  0  0  0  0
 14 30  1  0  0  0  0
 14 31  1  0  0  0  0
M  END
> <Mol Weight>
263,31

> <Formula>
C13H13NO3S

> <ID>
EN300-1452980

> <name>
Sulfonamides

> <LogP>
2,15

> <ROCS_ShapeQuery>
x0310_0A_x0719_0A_x1080_0A_x0739_0A_x0929_0A_x0526_0A_x0911_0A

> <ROCS_TanimotoCombo>
0.358 

> <ROCS_ShapeTanimoto>
0.212 

> <ROCS_ColorTanimoto>
0.146 

> <ROCS_RefTversky>
0.200 

> <ROCS_RefColorTversky>
0.159 

> <ROCS_RefTverskyCombo>
0.359 

> <ROCS_FitTversky>
1.383 

> <ROCS_FitColorTversky>
0.641 

> <ROCS_FitTverskyCombo>
2.025 

> <ROCS_ColorScore>
-4.627

> <ROCS_Overlap>
1604.882

> <ROCS_Rank>
50                  

$$$$
untitled-dbase-2080_6792
  -OEChem-02092407103D

 29 29  0     0  0  0  0  0  0999 V2000
    8.6863    9.9923   22.7600 C   0  0  0  0  0  0  0  0  0  0  0  0
    8.1842    9.9768   24.0612 C   0  0  0  0  0  0  0  0  0  0  0  0
    9.2882   11.1464   22.2584 C   0  0  0  0  0  0  0  0  0  0  0  0
    8.2839   11.1153   24.8609 C   0  0  0  0  0  0  0  0  0  0  0  0
    9.3880   12.2849   23.0581 C   0  0  0  0  0  0  0  0  0  0  0  0
    8.8858   12.2694   24.3594 C   0  0  0  0  0  0  0  0  0  0  0  0
    7.7209   15.1717   24.1383 C   0  0  0  0  0  0  0  0  0  0  0  0
    8.9932   13.4945   25.2190 C   0  0  0  0  0  0  0  0  0  0  0  0
    7.8584   16.3674   23.2213 C   0  0  0  0  0  0  0  0  0  0  0  0
    8.5140   16.0267   21.8926 C   0  0  0  0  0  0  0  0  0  0  0  0
    5.9990   15.4412   21.2735 N   0  0  0  0  0  0  0  0  0  0  0  0
    6.6640   14.7291   24.5670 O   0  0  0  0  0  0  0  0  0  0  0  0
    7.8725   15.0540   19.5540 O   0  0  0  0  0  0  0  0  0  0  0  0
    7.7216   13.5560   21.5835 O   0  0  0  0  0  0  0  0  0  0  0  0
    8.9621   14.6559   24.3831 O   0  0  0  0  0  0  0  0  0  0  0  0
    7.5706   14.8594   20.9611 S   0  0  0  0  0  0  0  0  0  0  0  0
    8.6098    9.1053   22.1379 H   0  0  0  0  0  0  0  0  0  0  0  0
    7.7165    9.0779   24.4523 H   0  0  0  0  0  0  0  0  0  0  0  0
    9.6802   11.1585   21.2458 H   0  0  0  0  0  0  0  0  0  0  0  0
    7.8898   11.0940   25.8735 H   0  0  0  0  0  0  0  0  0  0  0  0
    9.8584   13.1796   22.6589 H   0  0  0  0  0  0  0  0  0  0  0  0
    8.1642   13.5461   25.9330 H   0  0  0  0  0  0  0  0  0  0  0  0
    9.9284   13.4873   25.7892 H   0  0  0  0  0  0  0  0  0  0  0  0
    8.4718   17.1078   23.7466 H   0  0  0  0  0  0  0  0  0  0  0  0
    6.8639   16.7932   23.0471 H   0  0  0  0  0  0  0  0  0  0  0  0
    8.5897   16.9223   21.2682 H   0  0  0  0  0  0  0  0  0  0  0  0
    9.5150   15.6045   22.0197 H   0  0  0  0  0  0  0  0  0  0  0  0
    5.6189   15.3086   22.2188 H   0  0  0  0  0  0  0  0  0  0  0  0
    5.7217   16.3286   20.8364 H   0  0  0  0  0  0  0  0  0  0  0  0
  1  2  1  0  0  0  0
  1  3  2  0  0  0  0
  2  4  2  0  0  0  0
  3  5  1  0  0  0  0
  4  6  1  0  0  0  0
  5  6  2  0  0  0  0
  6  8  1  0  0  0  0
  7  9  1  0  0  0  0
  7 12  2  0  0  0  0
  7 15  1  0  0  0  0
  8 15  1  0  0  0  0
  9 10  1  0  0  0  0
 10 16  1  0  0  0  0
 11 16  1  0  0  0  0
 13 16  2  0  0  0  0
 14 16  2  0  0  0  0
  1 17  1  0  0  0  0
  2 18  1  0  0  0  0
  3 19  1  0  0  0  0
  4 20  1  0  0  0  0
  5 21  1  0  0  0  0
  8 22  1  0  0  0  0
  8 23  1  0  0  0  0
  9 24  1  0  0  0  0
  9 25  1  0  0  0  0
 10 26  1  0  0  0  0
 10 27  1  0  0  0  0
 11 28  1  0  0  0  0
 11 29  1  0  0  0  0
M  END
> <Mol Weight>
243,28

> <Formula>
C10H13NO4S

> <ID>
EN300-111200

> <name>
Sulfonamides

> <LogP>
0,20

> <ROCS_ShapeQuery>
x0310_0A_x0719_0A_x1080_0A_x0739_0A_x0929_0A_x0526_0A_x0911_0A

> <ROCS_TanimotoCombo>
0.357 

> <ROCS_ShapeTanimoto>
0.191 

> <ROCS_ColorTanimoto>
0.166 

> <ROCS_RefTversky>
0.181 

> <ROCS_RefColorTversky>
0.173 

> <ROCS_RefTverskyCombo>
0.355 

> <ROCS_FitTversky>
1.378 

> <ROCS_FitColorTversky>
0.803 

> <ROCS_FitTverskyCombo>
2.181 

> <ROCS_ColorScore>
-5.031

> <ROCS_Overlap>
1450.789

> <ROCS_Rank>
51                  

$$$$
untitled-dbase-2284_88
  -OEChem-02092407103D

 28 29  0     0  0  0  0  0  0999 V2000
    9.5890   10.1489   23.6241 C   0  0  0  0  0  0  0  0  0  0  0  0
    9.7586   10.8758   24.8024 C   0  0  0  0  0  0  0  0  0  0  0  0
    8.7013   10.6007   22.6476 C   0  0  0  0  0  0  0  0  0  0  0  0
    9.0405   12.0544   25.0043 C   0  0  0  0  0  0  0  0  0  0  0  0
    6.2615   13.4713   20.4178 C   0  0  0  0  0  0  0  0  0  0  0  0
    6.0248   11.5221   21.4076 C   0  0  0  0  0  0  0  0  0  0  0  0
    7.9832   11.7794   22.8495 C   0  0  0  0  0  0  0  0  0  0  0  0
    8.1528   12.5063   24.0278 C   0  0  0  0  0  0  0  0  0  0  0  0
    5.4484   12.3226   20.4518 C   0  0  0  0  0  0  0  0  0  0  0  0
    8.0692   14.8729   23.8095 C   0  0  0  0  0  0  0  0  0  0  0  0
    7.2769   13.4101   21.2832 N   0  0  0  0  0  0  0  0  0  0  0  0
    7.1057   12.2133   21.8702 N   0  0  0  0  0  0  0  0  0  0  0  0
    3.5964   10.4413   20.0830 N   0  0  0  0  0  0  0  0  0  0  0  0
    2.9877   12.9371   19.8679 O   0  0  0  0  0  0  0  0  0  0  0  0
    4.4262   11.8622   18.1007 O   0  0  0  0  0  0  0  0  0  0  0  0
    7.4615   13.6606   24.2492 O   0  0  0  0  0  0  0  0  0  0  0  0
    4.0658   11.9963   19.5219 S   0  0  0  0  0  0  0  0  0  0  0  0
   10.1487    9.2315   23.4665 H   0  0  0  0  0  0  0  0  0  0  0  0
   10.4491   10.5236   25.5632 H   0  0  0  0  0  0  0  0  0  0  0  0
    8.5807   10.0246   21.7332 H   0  0  0  0  0  0  0  0  0  0  0  0
    9.1763   12.6144   25.9256 H   0  0  0  0  0  0  0  0  0  0  0  0
    6.1586   14.3518   19.7995 H   0  0  0  0  0  0  0  0  0  0  0  0
    5.7594   10.5432   21.7851 H   0  0  0  0  0  0  0  0  0  0  0  0
    7.4154   15.7159   24.0463 H   0  0  0  0  0  0  0  0  0  0  0  0
    8.2430   14.8244   22.7316 H   0  0  0  0  0  0  0  0  0  0  0  0
    9.0241   14.9993   24.3252 H   0  0  0  0  0  0  0  0  0  0  0  0
    4.1664    9.6305   19.8125 H   0  0  0  0  0  0  0  0  0  0  0  0
    3.1817   10.3633   21.0196 H   0  0  0  0  0  0  0  0  0  0  0  0
  1  2  1  0  0  0  0
  1  3  2  0  0  0  0
  2  4  2  0  0  0  0
  3  7  1  0  0  0  0
  4  8  1  0  0  0  0
  5  9  1  0  0  0  0
  5 11  2  0  0  0  0
  6  9  2  0  0  0  0
  6 12  1  0  0  0  0
  7  8  2  0  0  0  0
  7 12  1  0  0  0  0
  8 16  1  0  0  0  0
  9 17  1  0  0  0  0
 10 16  1  0  0  0  0
 11 12  1  0  0  0  0
 13 17  1  0  0  0  0
 14 17  2  0  0  0  0
 15 17  2  0  0  0  0
  1 18  1  0  0  0  0
  2 19  1  0  0  0  0
  3 20  1  0  0  0  0
  4 21  1  0  0  0  0
  5 22  1  0  0  0  0
  6 23  1  0  0  0  0
 10 24  1  0  0  0  0
 10 25  1  0  0  0  0
 10 26  1  0  0  0  0
 13 27  1  0  0  0  0
 13 28  1  0  0  0  0
M  END
> <Mol Weight>
253,28

> <Formula>
C10H11N3O3S

> <ID>
EN300-93384

> <name>
Sulfonamides

> <LogP>
0,51

> <ROCS_ShapeQuery>
x0310_0A_x0719_0A_x1080_0A_x0739_0A_x0929_0A_x0526_0A_x0911_0A

> <ROCS_TanimotoCombo>
0.356 

> <ROCS_ShapeTanimoto>
0.198 

> <ROCS_ColorTanimoto>
0.157 

> <ROCS_RefTversky>
0.189 

> <ROCS_RefColorTversky>
0.174 

> <ROCS_RefTverskyCombo>
0.363 

> <ROCS_FitTversky>
1.330 

> <ROCS_FitColorTversky>
0.621 

> <ROCS_FitTverskyCombo>
1.951 

> <ROCS_ColorScore>
-5.070

> <ROCS_Overlap>
1514.814

> <ROCS_Rank>
52                  

$$$$
untitled-dbase-1256_62
  -OEChem-02092407103D

 24 24  0     0  0  0  0  0  0999 V2000
   10.1213   10.9475   23.3309 C   0  0  0  0  0  0  0  0  0  0  0  0
    9.1622    9.9356   23.3697 C   0  0  0  0  0  0  0  0  0  0  0  0
    9.7688   12.2557   23.6627 C   0  0  0  0  0  0  0  0  0  0  0  0
    7.8504   10.2318   23.7402 C   0  0  0  0  0  0  0  0  0  0  0  0
    8.4570   12.5519   24.0332 C   0  0  0  0  0  0  0  0  0  0  0  0
    7.4978   11.5399   24.0720 C   0  0  0  0  0  0  0  0  0  0  0  0
    8.1204   13.9287   24.3735 C   0  0  0  0  0  0  0  0  0  0  0  0
    7.0533   14.6659   23.5643 C   0  0  0  0  0  0  0  0  0  0  0  0
    6.1634   11.8190   24.4425 N   0  0  0  0  0  0  0  0  0  0  0  0
    6.0606   15.6308   21.2983 N   0  0  0  0  0  0  0  0  0  0  0  0
    8.6937   14.5059   25.3171 O   0  0  0  0  0  0  0  0  0  0  0  0
    8.6031   15.6193   21.6891 O   0  0  0  0  0  0  0  0  0  0  0  0
    7.3995   13.4343   21.2859 O   0  0  0  0  0  0  0  0  0  0  0  0
    7.4306   14.7752   21.8448 S   0  0  0  0  0  0  0  0  0  0  0  0
   11.1429   10.7173   23.0432 H   0  0  0  0  0  0  0  0  0  0  0  0
    9.4368    8.9172   23.1107 H   0  0  0  0  0  0  0  0  0  0  0  0
   10.5257   13.0351   23.6271 H   0  0  0  0  0  0  0  0  0  0  0  0
    7.1119    9.4346   23.7667 H   0  0  0  0  0  0  0  0  0  0  0  0
    6.1013   14.1339   23.6377 H   0  0  0  0  0  0  0  0  0  0  0  0
    6.9601   15.6931   23.9258 H   0  0  0  0  0  0  0  0  0  0  0  0
    5.9218   12.7459   24.7255 H   0  0  0  0  0  0  0  0  0  0  0  0
    5.5097   11.0664   24.5054 H   0  0  0  0  0  0  0  0  0  0  0  0
    5.1615   15.1338   21.2826 H   0  0  0  0  0  0  0  0  0  0  0  0
    5.9815   16.6219   21.5571 H   0  0  0  0  0  0  0  0  0  0  0  0
  1  2  1  0  0  0  0
  1  3  2  0  0  0  0
  2  4  2  0  0  0  0
  3  5  1  0  0  0  0
  4  6  1  0  0  0  0
  5  6  2  0  0  0  0
  5  7  1  0  0  0  0
  6  9  1  0  0  0  0
  7  8  1  0  0  0  0
  7 11  2  0  0  0  0
  8 14  1  0  0  0  0
 10 14  1  0  0  0  0
 12 14  2  0  0  0  0
 13 14  2  0  0  0  0
  1 15  1  0  0  0  0
  2 16  1  0  0  0  0
  3 17  1  0  0  0  0
  4 18  1  0  0  0  0
  8 19  1  0  0  0  0
  8 20  1  0  0  0  0
  9 21  1  0  0  0  0
  9 22  1  0  0  0  0
 10 23  1  0  0  0  0
 10 24  1  0  0  0  0
M  END
> <Mol Weight>
214,24

> <Formula>
C8H10N2O3S

> <ID>
EN300-195374

> <name>
Sulfonamides

> <LogP>
-0,03

> <ROCS_ShapeQuery>
x0310_0A_x0719_0A_x1080_0A_x0739_0A_x0929_0A_x0526_0A_x0911_0A

> <ROCS_TanimotoCombo>
0.356 

> <ROCS_ShapeTanimoto>
0.188 

> <ROCS_ColorTanimoto>
0.168 

> <ROCS_RefTversky>
0.177 

> <ROCS_RefColorTversky>
0.184 

> <ROCS_RefTverskyCombo>
0.361 

> <ROCS_FitTversky>
1.454 

> <ROCS_FitColorTversky>
0.656 

> <ROCS_FitTverskyCombo>
2.110 

> <ROCS_ColorScore>
-5.356

> <ROCS_Overlap>
1421.141

> <ROCS_Rank>
53                  

$$$$
untitled-dbase-2591_13
  -OEChem-02092407103D

 28 30  0     0  0  0  0  0  0999 V2000
    9.7988   10.2887   23.8112 C   0  0  0  0  0  0  0  0  0  0  0  0
   10.0045   11.3603   22.9424 C   0  0  0  0  0  0  0  0  0  0  0  0
    8.5957   10.1770   24.5083 C   0  0  0  0  0  0  0  0  0  0  0  0
    9.0073   12.3204   22.7707 C   0  0  0  0  0  0  0  0  0  0  0  0
    7.5985   11.1370   24.3366 C   0  0  0  0  0  0  0  0  0  0  0  0
    5.2768   12.3642   21.3115 C   0  0  0  0  0  0  0  0  0  0  0  0
    3.5402   13.9825   20.9736 C   0  0  0  0  0  0  0  0  0  0  0  0
    5.7338   13.1885   22.3463 C   0  0  0  0  0  0  0  0  0  0  0  0
    7.8042   12.2087   23.4678 C   0  0  0  0  0  0  0  0  0  0  0  0
    4.1460   12.7845   20.6124 C   0  0  0  0  0  0  0  0  0  0  0  0
    6.7751   13.1993   23.2911 C   0  0  0  0  0  0  0  0  0  0  0  0
    5.0378   14.3593   22.6055 C   0  0  0  0  0  0  0  0  0  0  0  0
    3.9444   14.8121   21.9648 N   0  0  0  0  0  0  0  0  0  0  0  0
    6.7373   14.2810   24.0745 N   0  0  0  0  0  0  0  0  0  0  0  0
    2.1686   12.7725   18.8251 N   0  0  0  0  0  0  0  0  0  0  0  0
    4.4800   11.8009   18.2262 O   0  0  0  0  0  0  0  0  0  0  0  0
    3.0087   10.5664   19.8568 O   0  0  0  0  0  0  0  0  0  0  0  0
    5.6392   15.0119   23.6397 O   0  0  0  0  0  0  0  0  0  0  0  0
    3.5046   11.8222   19.3085 S   0  0  0  0  0  0  0  0  0  0  0  0
   10.5747    9.5405   23.9442 H   0  0  0  0  0  0  0  0  0  0  0  0
   10.9406   11.4468   22.3986 H   0  0  0  0  0  0  0  0  0  0  0  0
    8.4353    9.3418   25.1837 H   0  0  0  0  0  0  0  0  0  0  0  0
    9.1828   13.1500   22.0898 H   0  0  0  0  0  0  0  0  0  0  0  0
    6.6662   11.0356   24.8874 H   0  0  0  0  0  0  0  0  0  0  0  0
    5.7814   11.4360   21.0636 H   0  0  0  0  0  0  0  0  0  0  0  0
    2.6571   14.3312   20.4433 H   0  0  0  0  0  0  0  0  0  0  0  0
    1.3531   12.8109   19.4488 H   0  0  0  0  0  0  0  0  0  0  0  0
    2.3566   13.6543   18.3328 H   0  0  0  0  0  0  0  0  0  0  0  0
  1  2  1  0  0  0  0
  1  3  2  0  0  0  0
  2  4  2  0  0  0  0
  3  5  1  0  0  0  0
  4  9  1  0  0  0  0
  5  9  2  0  0  0  0
  6  8  1  0  0  0  0
  6 10  2  0  0  0  0
  7 10  1  0  0  0  0
  7 13  2  0  0  0  0
  8 11  1  0  0  0  0
  8 12  2  0  0  0  0
  9 11  1  0  0  0  0
 10 19  1  0  0  0  0
 11 14  2  0  0  0  0
 12 13  1  0  0  0  0
 12 18  1  0  0  0  0
 14 18  1  0  0  0  0
 15 19  1  0  0  0  0
 16 19  2  0  0  0  0
 17 19  2  0  0  0  0
  1 20  1  0  0  0  0
  2 21  1  0  0  0  0
  3 22  1  0  0  0  0
  4 23  1  0  0  0  0
  5 24  1  0  0  0  0
  6 25  1  0  0  0  0
  7 26  1  0  0  0  0
 15 27  1  0  0  0  0
 15 28  1  0  0  0  0
M  END
> <Mol Weight>
275,28

> <Formula>
C12H9N3O3S

> <ID>
EN300-173867

> <name>
Sulfonamides

> <LogP>
1,15

> <ROCS_ShapeQuery>
x0310_0A_x0719_0A_x1080_0A_x0739_0A_x0929_0A_x0526_0A_x0911_0A

> <ROCS_TanimotoCombo>
0.356 

> <ROCS_ShapeTanimoto>
0.235 

> <ROCS_ColorTanimoto>
0.120 

> <ROCS_RefTversky>
0.220 

> <ROCS_RefColorTversky>
0.141 

> <ROCS_RefTverskyCombo>
0.361 

> <ROCS_FitTversky>
1.419 

> <ROCS_FitColorTversky>
0.451 

> <ROCS_FitTverskyCombo>
1.870 

> <ROCS_ColorScore>
-4.118

> <ROCS_Overlap>
1763.829

> <ROCS_Rank>
54                  

$$$$
untitled-dbase-2744_1038
  -OEChem-02092407103D

 36 36  0     0  0  0  0  0  0999 V2000
    4.3323   11.1954   18.6827 C   0  0  0  0  0  0  0  0  0  0  0  0
    3.1767   11.3933   17.8730 C   0  0  0  0  0  0  0  0  0  0  0  0
    4.2330   11.8445   19.8936 C   0  0  0  0  0  0  0  0  0  0  0  0
    2.2380   12.1860   18.4962 C   0  0  0  0  0  0  0  0  0  0  0  0
    7.2421   13.2645   22.8838 C   0  0  0  0  0  0  0  0  0  0  0  0
    7.5245   12.3277   25.2104 C   0  0  0  0  0  0  0  0  0  0  0  0
    9.5351   12.7949   23.8050 C   0  0  0  0  0  0  0  0  0  0  0  0
    8.2070   14.7022   24.7193 C   0  0  0  0  0  0  0  0  0  0  0  0
    5.2332   11.8845   21.0228 C   0  0  0  0  0  0  0  0  0  0  0  0
    4.9217   12.9642   22.0563 C   0  0  0  0  0  0  0  0  0  0  0  0
    8.1155   13.2760   24.1560 C   0  0  0  0  0  0  0  0  0  0  0  0
   -0.3382   11.5111   18.6084 N   0  0  0  0  0  0  0  0  0  0  0  0
    5.8986   13.0123   23.1193 N   0  0  0  0  0  0  0  0  0  0  0  0
    7.7114   13.4662   21.7635 O   0  0  0  0  0  0  0  0  0  0  0  0
    0.3756   13.9828   18.7725 O   0  0  0  0  0  0  0  0  0  0  0  0
    0.5905   12.7812   16.5685 O   0  0  0  0  0  0  0  0  0  0  0  0
    2.7512   12.6882   20.0507 S   0  0  0  0  0  0  0  0  0  0  0  0
    0.6506   12.7712   18.0198 S   0  0  0  0  0  0  0  0  0  0  0  0
    5.1910   10.6057   18.3879 H   0  0  0  0  0  0  0  0  0  0  0  0
    3.0422   10.9746   16.8840 H   0  0  0  0  0  0  0  0  0  0  0  0
    8.1344   12.3249   26.1209 H   0  0  0  0  0  0  0  0  0  0  0  0
    6.5073   12.6277   25.4867 H   0  0  0  0  0  0  0  0  0  0  0  0
    7.4728   11.2946   24.8507 H   0  0  0  0  0  0  0  0  0  0  0  0
   10.1829   12.7913   24.6894 H   0  0  0  0  0  0  0  0  0  0  0  0
   10.0011   13.4419   23.0533 H   0  0  0  0  0  0  0  0  0  0  0  0
    9.5211   11.7747   23.4041 H   0  0  0  0  0  0  0  0  0  0  0  0
    8.8210   14.7477   25.6250 H   0  0  0  0  0  0  0  0  0  0  0  0
    8.6516   15.3879   23.9893 H   0  0  0  0  0  0  0  0  0  0  0  0
    7.2137   15.0850   24.9806 H   0  0  0  0  0  0  0  0  0  0  0  0
    6.2293   12.0648   20.5991 H   0  0  0  0  0  0  0  0  0  0  0  0
    5.2849   10.9013   21.5077 H   0  0  0  0  0  0  0  0  0  0  0  0
    4.9256   13.9493   21.5792 H   0  0  0  0  0  0  0  0  0  0  0  0
    3.9400   12.8116   22.5166 H   0  0  0  0  0  0  0  0  0  0  0  0
   -0.3068   10.6081   18.1195 H   0  0  0  0  0  0  0  0  0  0  0  0
   -0.4562   11.4286   19.6255 H   0  0  0  0  0  0  0  0  0  0  0  0
    5.5907   12.8560   24.0733 H   0  0  0  0  0  0  0  0  0  0  0  0
  1  2  1  0  0  0  0
  1  3  2  0  0  0  0
  2  4  2  0  0  0  0
  3  9  1  0  0  0  0
  3 17  1  0  0  0  0
  4 17  1  0  0  0  0
  4 18  1  0  0  0  0
  5 11  1  0  0  0  0
  5 13  1  0  0  0  0
  5 14  2  0  0  0  0
  6 11  1  0  0  0  0
  7 11  1  0  0  0  0
  8 11  1  0  0  0  0
  9 10  1  0  0  0  0
 10 13  1  0  0  0  0
 12 18  1  0  0  0  0
 15 18  2  0  0  0  0
 16 18  2  0  0  0  0
  1 19  1  0  0  0  0
  2 20  1  0  0  0  0
  6 21  1  0  0  0  0
  6 22  1  0  0  0  0
  6 23  1  0  0  0  0
  7 24  1  0  0  0  0
  7 25  1  0  0  0  0
  7 26  1  0  0  0  0
  8 27  1  0  0  0  0
  8 28  1  0  0  0  0
  8 29  1  0  0  0  0
  9 30  1  0  0  0  0
  9 31  1  0  0  0  0
 10 32  1  0  0  0  0
 10 33  1  0  0  0  0
 12 34  1  0  0  0  0
 12 35  1  0  0  0  0
 13 36  1  0  0  0  0
M  END
> <Mol Weight>
290,40

> <Formula>
C11H18N2O3S2

> <ID>
EN300-125547

> <name>
Sulfonamides

> <LogP>
1,69

> <ROCS_ShapeQuery>
x0310_0A_x0719_0A_x1080_0A_x0739_0A_x0929_0A_x0526_0A_x0911_0A

> <ROCS_TanimotoCombo>
0.355 

> <ROCS_ShapeTanimoto>
0.237 

> <ROCS_ColorTanimoto>
0.118 

> <ROCS_RefTversky>
0.218 

> <ROCS_RefColorTversky>
0.135 

> <ROCS_RefTverskyCombo>
0.354 

> <ROCS_FitTversky>
1.576 

> <ROCS_FitColorTversky>
0.483 

> <ROCS_FitTverskyCombo>
2.059 

> <ROCS_ColorScore>
-3.942

> <ROCS_Overlap>
1748.006

> <ROCS_Rank>
55                  

$$$$
untitled-dbase-1648_21
  -OEChem-02092407103D

 29 29  0     1  0  0  0  0  0999 V2000
   10.1630   10.7034   23.5557 C   0  0  0  0  0  0  0  0  0  0  0  0
    9.8164   11.9454   22.7406 C   0  0  0  0  0  0  0  0  0  0  0  0
    8.9370    9.8326   23.8380 C   0  0  0  0  0  0  0  0  0  0  0  0
    7.7707   12.0328   24.2912 C   0  0  0  0  0  0  0  0  0  0  0  0
    8.7859   12.8578   23.4567 C   0  0  1  0  0  0  0  0  0  0  0  0
    7.6275   10.6062   23.7886 C   0  0  0  0  0  0  0  0  0  0  0  0
    9.5155   13.8397   24.3941 C   0  0  0  0  0  0  0  0  0  0  0  0
    8.0415   13.6866   22.3919 C   0  0  0  0  0  0  0  0  0  0  0  0
    6.1191   15.4586   21.9278 N   0  0  0  0  0  0  0  0  0  0  0  0
    6.5935   14.6725   24.3306 O   0  0  0  0  0  0  0  0  0  0  0  0
    8.2586   16.1734   23.1643 O   0  0  0  0  0  0  0  0  0  0  0  0
    6.6929    9.9522   24.5229 F   0  0  0  0  0  0  0  0  0  0  0  0
    7.1612   10.6251   22.5128 F   0  0  0  0  0  0  0  0  0  0  0  0
    7.2851   15.0911   23.1191 S   0  0  0  0  0  0  0  0  0  0  0  0
   10.9249   10.1071   23.0339 H   0  0  0  0  0  0  0  0  0  0  0  0
   10.6161   11.0064   24.5105 H   0  0  0  0  0  0  0  0  0  0  0  0
   10.7367   12.5100   22.5641 H   0  0  0  0  0  0  0  0  0  0  0  0
    9.4364   11.6440   21.7616 H   0  0  0  0  0  0  0  0  0  0  0  0
    8.9034    9.0086   23.1080 H   0  0  0  0  0  0  0  0  0  0  0  0
    9.0418    9.3557   24.8260 H   0  0  0  0  0  0  0  0  0  0  0  0
    8.0951   11.9991   25.3338 H   0  0  0  0  0  0  0  0  0  0  0  0
    6.7948   12.5209   24.2802 H   0  0  0  0  0  0  0  0  0  0  0  0
    8.7842   14.4701   24.8871 H   0  0  0  0  0  0  0  0  0  0  0  0
   10.1935   14.4514   23.8097 H   0  0  0  0  0  0  0  0  0  0  0  0
   10.0735   13.2765   25.1337 H   0  0  0  0  0  0  0  0  0  0  0  0
    7.2673   13.0805   21.9361 H   0  0  0  0  0  0  0  0  0  0  0  0
    8.7442   14.0284   21.6413 H   0  0  0  0  0  0  0  0  0  0  0  0
    6.4545   15.8418   21.0354 H   0  0  0  0  0  0  0  0  0  0  0  0
    5.3205   14.8197   21.8300 H   0  0  0  0  0  0  0  0  0  0  0  0
  1  2  1  0  0  0  0
  1  3  1  0  0  0  0
  2  5  1  0  0  0  0
  3  6  1  0  0  0  0
  4  5  1  0  0  0  0
  4  6  1  0  0  0  0
  5  7  1  0  0  0  0
  5  8  1  0  0  0  0
  6 12  1  0  0  0  0
  6 13  1  0  0  0  0
  8 14  1  0  0  0  0
  9 14  1  0  0  0  0
 10 14  2  0  0  0  0
 11 14  2  0  0  0  0
  1 15  1  0  0  0  0
  1 16  1  0  0  0  0
  2 17  1  0  0  0  0
  2 18  1  0  0  0  0
  3 19  1  0  0  0  0
  3 20  1  0  0  0  0
  4 21  1  0  0  0  0
  4 22  1  0  0  0  0
  7 23  1  0  0  0  0
  7 24  1  0  0  0  0
  7 25  1  0  0  0  0
  8 26  1  0  0  0  0
  8 27  1  0  0  0  0
  9 28  1  0  0  0  0
  9 29  1  0  0  0  0
M  END
> <Mol Weight>
227,27

> <Formula>
C8H15F2NO2S

> <ID>
EN300-7542687

> <name>
Sulfonamides

> <LogP>
0,60

> <ROCS_ShapeQuery>
x0310_0A_x0719_0A_x1080_0A_x0739_0A_x0929_0A_x0526_0A_x0911_0A

> <ROCS_TanimotoCombo>
0.355 

> <ROCS_ShapeTanimoto>
0.183 

> <ROCS_ColorTanimoto>
0.172 

> <ROCS_RefTversky>
0.174 

> <ROCS_RefColorTversky>
0.173 

> <ROCS_RefTverskyCombo>
0.347 

> <ROCS_FitTversky>
1.436 

> <ROCS_FitColorTversky>
0.944 

> <ROCS_FitTverskyCombo>
2.381 

> <ROCS_ColorScore>
-5.021

> <ROCS_Overlap>
1391.503

> <ROCS_Rank>
56                  

$$$$
untitled-dbase-1344_26
  -OEChem-02092407103D

 27 27  0     0  0  0  0  0  0999 V2000
    8.5204    9.8799   24.0660 C   0  0  0  0  0  0  0  0  0  0  0  0
    9.3900   10.1487   23.0090 C   0  0  0  0  0  0  0  0  0  0  0  0
    7.9608   10.9305   24.7932 C   0  0  0  0  0  0  0  0  0  0  0  0
    9.7001   11.4681   22.6794 C   0  0  0  0  0  0  0  0  0  0  0  0
    8.2709   12.2499   24.4636 C   0  0  0  0  0  0  0  0  0  0  0  0
    9.1406   12.5187   23.4067 C   0  0  0  0  0  0  0  0  0  0  0  0
    6.2870   15.2601   25.0979 C   0  0  0  0  0  0  0  0  0  0  0  0
    7.6591   13.3587   25.2553 C   0  0  0  0  0  0  0  0  0  0  0  0
    9.4881   13.9231   23.0356 C   0  0  0  0  0  0  0  0  0  0  0  0
    9.6735   13.5593   20.4118 N   0  0  0  0  0  0  0  0  0  0  0  0
    7.3647   13.6159   21.5444 O   0  0  0  0  0  0  0  0  0  0  0  0
    8.7008   15.7512   21.3427 O   0  0  0  0  0  0  0  0  0  0  0  0
    6.8922   14.1864   24.3906 O   0  0  0  0  0  0  0  0  0  0  0  0
    8.6400   14.3126   21.5398 S   0  0  0  0  0  0  0  0  0  0  0  0
    8.2798    8.8526   24.3228 H   0  0  0  0  0  0  0  0  0  0  0  0
    9.8256    9.3302   22.4434 H   0  0  0  0  0  0  0  0  0  0  0  0
    7.2856   10.7104   25.6159 H   0  0  0  0  0  0  0  0  0  0  0  0
   10.3785   11.6674   21.8539 H   0  0  0  0  0  0  0  0  0  0  0  0
    5.7072   15.8737   24.4039 H   0  0  0  0  0  0  0  0  0  0  0  0
    7.0615   15.8650   25.5761 H   0  0  0  0  0  0  0  0  0  0  0  0
    5.6221   14.8520   25.8627 H   0  0  0  0  0  0  0  0  0  0  0  0
    7.0026   12.9699   26.0447 H   0  0  0  0  0  0  0  0  0  0  0  0
    8.4313   13.9709   25.7392 H   0  0  0  0  0  0  0  0  0  0  0  0
   10.5613   14.0512   22.8594 H   0  0  0  0  0  0  0  0  0  0  0  0
    9.1745   14.6427   23.7994 H   0  0  0  0  0  0  0  0  0  0  0  0
    9.3332   12.7099   19.9447 H   0  0  0  0  0  0  0  0  0  0  0  0
   10.2432   14.1641   19.8075 H   0  0  0  0  0  0  0  0  0  0  0  0
  1  2  1  0  0  0  0
  1  3  2  0  0  0  0
  2  4  2  0  0  0  0
  3  5  1  0  0  0  0
  4  6  1  0  0  0  0
  5  6  2  0  0  0  0
  5  8  1  0  0  0  0
  6  9  1  0  0  0  0
  7 13  1  0  0  0  0
  8 13  1  0  0  0  0
  9 14  1  0  0  0  0
 10 14  1  0  0  0  0
 11 14  2  0  0  0  0
 12 14  2  0  0  0  0
  1 15  1  0  0  0  0
  2 16  1  0  0  0  0
  3 17  1  0  0  0  0
  4 18  1  0  0  0  0
  7 19  1  0  0  0  0
  7 20  1  0  0  0  0
  7 21  1  0  0  0  0
  8 22  1  0  0  0  0
  8 23  1  0  0  0  0
  9 24  1  0  0  0  0
  9 25  1  0  0  0  0
 10 26  1  0  0  0  0
 10 27  1  0  0  0  0
M  END
> <Mol Weight>
215,27

> <Formula>
C9H13NO3S

> <ID>
EN300-213965

> <name>
Sulfonamides

> <LogP>
0,22

> <ROCS_ShapeQuery>
x0310_0A_x0719_0A_x1080_0A_x0739_0A_x0929_0A_x0526_0A_x0911_0A

> <ROCS_TanimotoCombo>
0.354 

> <ROCS_ShapeTanimoto>
0.177 

> <ROCS_ColorTanimoto>
0.177 

> <ROCS_RefTversky>
0.169 

> <ROCS_RefColorTversky>
0.183 

> <ROCS_RefTverskyCombo>
0.352 

> <ROCS_FitTversky>
1.392 

> <ROCS_FitColorTversky>
0.848 

> <ROCS_FitTverskyCombo>
2.240 

> <ROCS_ColorScore>
-5.315

> <ROCS_Overlap>
1349.978

> <ROCS_Rank>
57                  

$$$$
untitled-dbase-2551_96
  -OEChem-02092407103D

 27 28  0     0  0  0  0  0  0999 V2000
    9.0307    9.8786   23.4379 C   0  0  0  0  0  0  0  0  0  0  0  0
    8.3496   11.6916   24.2511 C   0  0  0  0  0  0  0  0  0  0  0  0
    8.5455   13.0995   22.2736 C   0  0  0  0  0  0  0  0  0  0  0  0
    7.7636   13.8730   24.3908 C   0  0  0  0  0  0  0  0  0  0  0  0
    8.0903   14.1439   22.9710 C   0  0  0  0  0  0  0  0  0  0  0  0
    9.4024    8.4989   23.3472 C   0  0  0  0  0  0  0  0  0  0  0  0
   12.6717    7.0406   22.4594 C   0  0  0  0  0  0  0  0  0  0  0  0
   11.2128    6.9937   22.8607 C   0  0  0  0  0  0  0  0  0  0  0  0
    8.5711   10.4369   24.5884 N   0  0  0  0  0  0  0  0  0  0  0  0
    9.1173   10.6931   22.3896 N   0  0  0  0  0  0  0  0  0  0  0  0
    7.8799   12.7321   25.0017 N   0  0  0  0  0  0  0  0  0  0  0  0
    8.6799   11.8677   22.9032 N   0  0  0  0  0  0  0  0  0  0  0  0
    6.3132   15.6754   21.5996 N   0  0  0  0  0  0  0  0  0  0  0  0
    8.6415    7.5296   23.5635 O   0  0  0  0  0  0  0  0  0  0  0  0
    7.9759   16.7093   23.2495 O   0  0  0  0  0  0  0  0  0  0  0  0
    8.8222   15.7495   21.0850 O   0  0  0  0  0  0  0  0  0  0  0  0
   10.7204    8.3321   22.9862 O   0  0  0  0  0  0  0  0  0  0  0  0
    7.9168   15.6665   22.2281 S   0  0  0  0  0  0  0  0  0  0  0  0
    8.8239   13.1500   21.2275 H   0  0  0  0  0  0  0  0  0  0  0  0
    7.3894   14.7366   24.9644 H   0  0  0  0  0  0  0  0  0  0  0  0
   12.7962    7.5496   21.4996 H   0  0  0  0  0  0  0  0  0  0  0  0
   13.2638    7.5645   23.2169 H   0  0  0  0  0  0  0  0  0  0  0  0
   13.0822    6.0286   22.3785 H   0  0  0  0  0  0  0  0  0  0  0  0
   11.0952    6.4834   23.8214 H   0  0  0  0  0  0  0  0  0  0  0  0
   10.6225    6.4706   22.1025 H   0  0  0  0  0  0  0  0  0  0  0  0
    5.5389   15.6908   22.2754 H   0  0  0  0  0  0  0  0  0  0  0  0
    6.1302   15.0490   20.8051 H   0  0  0  0  0  0  0  0  0  0  0  0
  1  6  1  0  0  0  0
  1  9  1  0  0  0  0
  1 10  2  0  0  0  0
  2  9  2  0  0  0  0
  2 11  1  0  0  0  0
  2 12  1  0  0  0  0
  3  5  2  0  0  0  0
  3 12  1  0  0  0  0
  4  5  1  0  0  0  0
  4 11  2  0  0  0  0
  5 18  1  0  0  0  0
  6 14  2  0  0  0  0
  6 17  1  0  0  0  0
  7  8  1  0  0  0  0
  8 17  1  0  0  0  0
 10 12  1  0  0  0  0
 13 18  1  0  0  0  0
 15 18  2  0  0  0  0
 16 18  2  0  0  0  0
  3 19  1  0  0  0  0
  4 20  1  0  0  0  0
  7 21  1  0  0  0  0
  7 22  1  0  0  0  0
  7 23  1  0  0  0  0
  8 24  1  0  0  0  0
  8 25  1  0  0  0  0
 13 26  1  0  0  0  0
 13 27  1  0  0  0  0
M  END
> <Mol Weight>
271,25

> <Formula>
C8H9N5O4S

> <ID>
EN300-366412

> <name>
Sulfonamides

> <LogP>
-0,24

> <ROCS_ShapeQuery>
x0310_0A_x0719_0A_x1080_0A_x0739_0A_x0929_0A_x0526_0A_x0911_0A

> <ROCS_TanimotoCombo>
0.354 

> <ROCS_ShapeTanimoto>
0.183 

> <ROCS_ColorTanimoto>
0.171 

> <ROCS_RefTversky>
0.178 

> <ROCS_RefColorTversky>
0.197 

> <ROCS_RefTverskyCombo>
0.374 

> <ROCS_FitTversky>
1.199 

> <ROCS_FitColorTversky>
0.569 

> <ROCS_FitTverskyCombo>
1.768 

> <ROCS_ColorScore>
-5.751

> <ROCS_Overlap>
1423.812

> <ROCS_Rank>
58                  

$$$$
untitled-dbase-810_35
  -OEChem-02092407103D

 26 26  0     1  0  0  0  0  0999 V2000
    8.9097   10.1965   23.3748 C   0  0  0  0  0  0  0  0  0  0  0  0
    9.9310   11.0801   23.0256 C   0  0  0  0  0  0  0  0  0  0  0  0
    7.7966   10.6594   24.0766 C   0  0  0  0  0  0  0  0  0  0  0  0
    9.8392   12.4265   23.3782 C   0  0  0  0  0  0  0  0  0  0  0  0
    7.7049   12.0059   24.4292 C   0  0  0  0  0  0  0  0  0  0  0  0
    8.7262   12.8894   24.0800 C   0  0  0  0  0  0  0  0  0  0  0  0
    7.8253   14.5205   25.7616 C   0  0  0  0  0  0  0  0  0  0  0  0
    8.0209   15.2237   23.3536 C   0  0  0  0  0  0  0  0  0  0  0  0
    8.6257   14.3562   24.4647 C   0  0  2  0  0  0  0  0  0  0  0  0
    6.3021   15.6232   21.3694 N   0  0  0  0  0  0  0  0  0  0  0  0
    7.2903   13.2816   21.7656 O   0  0  0  0  0  0  0  0  0  0  0  0
    5.6113   14.2144   23.4077 O   0  0  0  0  0  0  0  0  0  0  0  0
    6.7170   14.4042   22.4861 S   0  0  0  0  0  0  0  0  0  0  0  0
    8.9807    9.1484   23.0990 H   0  0  0  0  0  0  0  0  0  0  0  0
   10.7972   10.7201   22.4782 H   0  0  0  0  0  0  0  0  0  0  0  0
    7.0008    9.9720   24.3477 H   0  0  0  0  0  0  0  0  0  0  0  0
   10.6399   13.1077   23.1021 H   0  0  0  0  0  0  0  0  0  0  0  0
    6.8340   12.3575   24.9761 H   0  0  0  0  0  0  0  0  0  0  0  0
    6.7934   14.1695   25.6528 H   0  0  0  0  0  0  0  0  0  0  0  0
    7.7880   15.5739   26.0604 H   0  0  0  0  0  0  0  0  0  0  0  0
    8.2857   13.9574   26.5811 H   0  0  0  0  0  0  0  0  0  0  0  0
    8.7763   15.4587   22.5958 H   0  0  0  0  0  0  0  0  0  0  0  0
    7.6115   16.1670   23.7276 H   0  0  0  0  0  0  0  0  0  0  0  0
    9.6381   14.7310   24.6678 H   0  0  0  0  0  0  0  0  0  0  0  0
    6.5500   15.4738   20.3835 H   0  0  0  0  0  0  0  0  0  0  0  0
    5.4066   16.1092   21.5021 H   0  0  0  0  0  0  0  0  0  0  0  0
  1  2  1  0  0  0  0
  1  3  2  0  0  0  0
  2  4  2  0  0  0  0
  3  5  1  0  0  0  0
  4  6  1  0  0  0  0
  5  6  2  0  0  0  0
  6  9  1  0  0  0  0
  7  9  1  0  0  0  0
  8  9  1  0  0  0  0
  8 13  1  0  0  0  0
 10 13  1  0  0  0  0
 11 13  2  0  0  0  0
 12 13  2  0  0  0  0
  1 14  1  0  0  0  0
  2 15  1  0  0  0  0
  3 16  1  0  0  0  0
  4 17  1  0  0  0  0
  5 18  1  0  0  0  0
  7 19  1  0  0  0  0
  7 20  1  0  0  0  0
  7 21  1  0  0  0  0
  8 22  1  0  0  0  0
  8 23  1  0  0  0  0
  9 24  1  0  0  0  0
 10 25  1  0  0  0  0
 10 26  1  0  0  0  0
M  END
> <Mol Weight>
199,27

> <Formula>
C9H13NO2S

> <ID>
EN300-105700

> <name>
Sulfonamides

> <LogP>
1,00

> <ROCS_ShapeQuery>
x0310_0A_x0719_0A_x1080_0A_x0739_0A_x0929_0A_x0526_0A_x0911_0A

> <ROCS_TanimotoCombo>
0.354 

> <ROCS_ShapeTanimoto>
0.186 

> <ROCS_ColorTanimoto>
0.168 

> <ROCS_RefTversky>
0.175 

> <ROCS_RefColorTversky>
0.175 

> <ROCS_RefTverskyCombo>
0.350 

> <ROCS_FitTversky>
1.520 

> <ROCS_FitColorTversky>
0.809 

> <ROCS_FitTverskyCombo>
2.329 

> <ROCS_ColorScore>
-5.068

> <ROCS_Overlap>
1402.213

> <ROCS_Rank>
59                  

$$$$
untitled-dbase-2608_684
  -OEChem-02092407103D

 30 30  0     0  0  0  0  0  0999 V2000
    4.4129   11.2450   18.9682 C   0  0  0  0  0  0  0  0  0  0  0  0
    3.6040   12.3246   20.9725 C   0  0  0  0  0  0  0  0  0  0  0  0
    3.2440   11.6094   18.3001 C   0  0  0  0  0  0  0  0  0  0  0  0
    2.4350   12.6891   20.3043 C   0  0  0  0  0  0  0  0  0  0  0  0
    4.5929   11.6025   20.3045 C   0  0  0  0  0  0  0  0  0  0  0  0
    2.2551   12.3315   18.9681 C   0  0  0  0  0  0  0  0  0  0  0  0
    8.0309   12.5462   23.8105 C   0  0  0  0  0  0  0  0  0  0  0  0
    5.8422   11.2123   21.0194 C   0  0  0  0  0  0  0  0  0  0  0  0
    9.2936   11.9344   24.3613 C   0  0  0  0  0  0  0  0  0  0  0  0
    6.2509   12.1971   22.1218 C   0  0  0  0  0  0  0  0  0  0  0  0
   -0.2039   11.4402   18.4546 N   0  0  0  0  0  0  0  0  0  0  0  0
    7.4688   11.8063   22.7797 N   0  0  0  0  0  0  0  0  0  0  0  0
    7.5641   13.5896   24.2642 O   0  0  0  0  0  0  0  0  0  0  0  0
    0.2311   13.9583   18.7943 O   0  0  0  0  0  0  0  0  0  0  0  0
    1.0717   12.8331   16.7026 O   0  0  0  0  0  0  0  0  0  0  0  0
    0.7929   12.7897   18.1313 S   0  0  0  0  0  0  0  0  0  0  0  0
   10.0867   11.0486   23.0493 Cl  0  0  0  0  0  0  0  0  0  0  0  0
    5.1777   10.6821   18.4398 H   0  0  0  0  0  0  0  0  0  0  0  0
    3.7353   12.6072   22.0137 H   0  0  0  0  0  0  0  0  0  0  0  0
    3.1136   11.3253   17.2592 H   0  0  0  0  0  0  0  0  0  0  0  0
    1.6709   13.2513   20.8345 H   0  0  0  0  0  0  0  0  0  0  0  0
    6.6698   11.1359   20.2941 H   0  0  0  0  0  0  0  0  0  0  0  0
    5.7432   10.2017   21.4516 H   0  0  0  0  0  0  0  0  0  0  0  0
    9.9889   12.6834   24.7485 H   0  0  0  0  0  0  0  0  0  0  0  0
    9.0391   11.2354   25.1626 H   0  0  0  0  0  0  0  0  0  0  0  0
    6.4245   13.1928   21.7017 H   0  0  0  0  0  0  0  0  0  0  0  0
    5.4735   12.2807   22.8883 H   0  0  0  0  0  0  0  0  0  0  0  0
   -0.9855   11.5642   19.1097 H   0  0  0  0  0  0  0  0  0  0  0  0
   -0.4088   10.7959   17.6811 H   0  0  0  0  0  0  0  0  0  0  0  0
    7.9366   10.9539   22.4776 H   0  0  0  0  0  0  0  0  0  0  0  0
  1  3  2  0  0  0  0
  1  5  1  0  0  0  0
  2  4  1  0  0  0  0
  2  5  2  0  0  0  0
  3  6  1  0  0  0  0
  4  6  2  0  0  0  0
  5  8  1  0  0  0  0
  6 16  1  0  0  0  0
  7  9  1  0  0  0  0
  7 12  1  0  0  0  0
  7 13  2  0  0  0  0
  8 10  1  0  0  0  0
  9 17  1  0  0  0  0
 10 12  1  0  0  0  0
 11 16  1  0  0  0  0
 14 16  2  0  0  0  0
 15 16  2  0  0  0  0
  1 18  1  0  0  0  0
  2 19  1  0  0  0  0
  3 20  1  0  0  0  0
  4 21  1  0  0  0  0
  8 22  1  0  0  0  0
  8 23  1  0  0  0  0
  9 24  1  0  0  0  0
  9 25  1  0  0  0  0
 10 26  1  0  0  0  0
 10 27  1  0  0  0  0
 11 28  1  0  0  0  0
 11 29  1  0  0  0  0
 12 30  1  0  0  0  0
M  END
> <Mol Weight>
276,74

> <Formula>
C10H13ClN2O3S

> <ID>
EN300-01816

> <name>
Sulfonamides

> <LogP>
0,35

> <ROCS_ShapeQuery>
x0310_0A_x0719_0A_x1080_0A_x0739_0A_x0929_0A_x0526_0A_x0911_0A

> <ROCS_TanimotoCombo>
0.354 

> <ROCS_ShapeTanimoto>
0.230 

> <ROCS_ColorTanimoto>
0.124 

> <ROCS_RefTversky>
0.212 

> <ROCS_RefColorTversky>
0.138 

> <ROCS_RefTverskyCombo>
0.350 

> <ROCS_FitTversky>
1.571 

> <ROCS_FitColorTversky>
0.555 

> <ROCS_FitTverskyCombo>
2.126 

> <ROCS_ColorScore>
-4.003

> <ROCS_Overlap>
1701.034

> <ROCS_Rank>
60                  

$$$$
untitled-dbase-1723_1018
  -OEChem-02092407103D

 30 30  0     1  0  0  0  0  0999 V2000
    9.1197   10.1261   22.6100 C   0  0  0  0  0  0  0  0  0  0  0  0
    8.0260    9.9755   23.4625 C   0  0  0  0  0  0  0  0  0  0  0  0
    9.9306   11.2568   22.7088 C   0  0  0  0  0  0  0  0  0  0  0  0
    7.7431   10.9556   24.4137 C   0  0  0  0  0  0  0  0  0  0  0  0
    9.6476   12.2369   23.6601 C   0  0  0  0  0  0  0  0  0  0  0  0
    8.5539   12.0863   24.5126 C   0  0  0  0  0  0  0  0  0  0  0  0
    6.0444   16.5288   23.9002 C   0  0  0  0  0  0  0  0  0  0  0  0
    8.2499   13.1412   25.5355 C   0  0  0  0  0  0  0  0  0  0  0  0
    8.0815   15.0309   24.1487 C   0  0  0  0  0  0  0  0  0  0  0  0
    7.1321   15.7381   23.1848 C   0  0  1  0  0  0  0  0  0  0  0  0
    6.0490   15.6026   20.7641 N   0  0  0  0  0  0  0  0  0  0  0  0
    7.4357   13.6331   21.6669 O   0  0  0  0  0  0  0  0  0  0  0  0
    5.1601   14.1065   22.6585 O   0  0  0  0  0  0  0  0  0  0  0  0
    7.3756   14.1043   24.9630 O   0  0  0  0  0  0  0  0  0  0  0  0
    6.4017   14.5659   22.0685 S   0  0  0  0  0  0  0  0  0  0  0  0
    9.3407    9.3621   21.8702 H   0  0  0  0  0  0  0  0  0  0  0  0
    7.3952    9.0946   23.3864 H   0  0  0  0  0  0  0  0  0  0  0  0
   10.7828   11.3738   22.0460 H   0  0  0  0  0  0  0  0  0  0  0  0
    6.8887   10.8299   25.0736 H   0  0  0  0  0  0  0  0  0  0  0  0
   10.2848   13.1146   23.7298 H   0  0  0  0  0  0  0  0  0  0  0  0
    5.4463   15.8750   24.5430 H   0  0  0  0  0  0  0  0  0  0  0  0
    5.3695   16.9985   23.1764 H   0  0  0  0  0  0  0  0  0  0  0  0
    6.4646   17.3290   24.5187 H   0  0  0  0  0  0  0  0  0  0  0  0
    7.7711   12.7043   26.4184 H   0  0  0  0  0  0  0  0  0  0  0  0
    9.1686   13.6398   25.8630 H   0  0  0  0  0  0  0  0  0  0  0  0
    8.8431   14.4779   23.5890 H   0  0  0  0  0  0  0  0  0  0  0  0
    8.5856   15.7510   24.8018 H   0  0  0  0  0  0  0  0  0  0  0  0
    7.7132   16.4171   22.5502 H   0  0  0  0  0  0  0  0  0  0  0  0
    5.2860   16.2804   20.8822 H   0  0  0  0  0  0  0  0  0  0  0  0
    6.8358   15.9577   20.2070 H   0  0  0  0  0  0  0  0  0  0  0  0
  1  2  1  0  0  0  0
  1  3  2  0  0  0  0
  2  4  2  0  0  0  0
  3  5  1  0  0  0  0
  4  6  1  0  0  0  0
  5  6  2  0  0  0  0
  6  8  1  0  0  0  0
  7 10  1  1  0  0  0
  8 14  1  0  0  0  0
  9 10  1  0  0  0  0
  9 14  1  0  0  0  0
 10 15  1  0  0  0  0
 11 15  1  0  0  0  0
 12 15  2  0  0  0  0
 13 15  2  0  0  0  0
  1 16  1  0  0  0  0
  2 17  1  0  0  0  0
  3 18  1  0  0  0  0
  4 19  1  0  0  0  0
  5 20  1  0  0  0  0
  7 21  1  0  0  0  0
  7 22  1  0  0  0  0
  7 23  1  0  0  0  0
  8 24  1  0  0  0  0
  8 25  1  0  0  0  0
  9 26  1  0  0  0  0
  9 27  1  0  0  0  0
 10 28  1  0  0  0  0
 11 29  1  0  0  0  0
 11 30  1  0  0  0  0
M  END
> <Mol Weight>
229,29

> <Formula>
C10H15NO3S

> <ID>
EN300-37104690

> <name>
Sulfonamides

> <LogP>
0,86

> <ROCS_ShapeQuery>
x0310_0A_x0719_0A_x1080_0A_x0739_0A_x0929_0A_x0526_0A_x0911_0A

> <ROCS_TanimotoCombo>
0.353 

> <ROCS_ShapeTanimoto>
0.196 

> <ROCS_ColorTanimoto>
0.157 

> <ROCS_RefTversky>
0.185 

> <ROCS_RefColorTversky>
0.165 

> <ROCS_RefTverskyCombo>
0.349 

> <ROCS_FitTversky>
1.475 

> <ROCS_FitColorTversky>
0.762 

> <ROCS_FitTverskyCombo>
2.237 

> <ROCS_ColorScore>
-4.776

> <ROCS_Overlap>
1478.863

> <ROCS_Rank>
61                  

$$$$
untitled-dbase-360_80
  -OEChem-02092407103D

 19 19  0     0  0  0  0  0  0999 V2000
    9.5180   10.6884   23.1583 C   0  0  0  0  0  0  0  0  0  0  0  0
    9.5399   12.0322   23.4357 C   0  0  0  0  0  0  0  0  0  0  0  0
    7.8813   13.4894   24.6751 C   0  0  0  0  0  0  0  0  0  0  0  0
    8.2873   14.7139   23.8674 C   0  0  0  0  0  0  0  0  0  0  0  0
    8.3810   10.1312   23.6741 N   0  0  0  0  0  0  0  0  0  0  0  0
    7.6873   11.0956   24.2689 N   0  0  0  0  0  0  0  0  0  0  0  0
    8.3838   12.2346   24.1247 N   0  0  0  0  0  0  0  0  0  0  0  0
    6.0617   15.2098   22.5067 N   0  0  0  0  0  0  0  0  0  0  0  0
    8.3545   15.7008   21.4490 O   0  0  0  0  0  0  0  0  0  0  0  0
    7.6237   13.3033   21.7704 O   0  0  0  0  0  0  0  0  0  0  0  0
    7.6579   14.6846   22.2188 S   0  0  0  0  0  0  0  0  0  0  0  0
   10.2498   10.1022   22.6235 H   0  0  0  0  0  0  0  0  0  0  0  0
   10.2428   12.8220   23.2128 H   0  0  0  0  0  0  0  0  0  0  0  0
    8.2771   13.5646   25.6952 H   0  0  0  0  0  0  0  0  0  0  0  0
    6.7908   13.4148   24.7575 H   0  0  0  0  0  0  0  0  0  0  0  0
    7.8810   15.6185   24.3304 H   0  0  0  0  0  0  0  0  0  0  0  0
    9.3736   14.8203   23.7928 H   0  0  0  0  0  0  0  0  0  0  0  0
    5.4237   14.5614   22.9843 H   0  0  0  0  0  0  0  0  0  0  0  0
    5.9215   16.1943   22.7652 H   0  0  0  0  0  0  0  0  0  0  0  0
  1  2  2  0  0  0  0
  1  5  1  0  0  0  0
  2  7  1  0  0  0  0
  3  4  1  0  0  0  0
  3  7  1  0  0  0  0
  4 11  1  0  0  0  0
  5  6  2  0  0  0  0
  6  7  1  0  0  0  0
  8 11  1  0  0  0  0
  9 11  2  0  0  0  0
 10 11  2  0  0  0  0
  1 12  1  0  0  0  0
  2 13  1  0  0  0  0
  3 14  1  0  0  0  0
  3 15  1  0  0  0  0
  4 16  1  0  0  0  0
  4 17  1  0  0  0  0
  8 18  1  0  0  0  0
  8 19  1  0  0  0  0
M  END
> <Mol Weight>
176,19

> <Formula>
C4H8N4O2S

> <ID>
EN300-202469

> <name>
Sulfonamides

> <LogP>
-1,53

> <ROCS_ShapeQuery>
x0310_0A_x0719_0A_x1080_0A_x0739_0A_x0929_0A_x0526_0A_x0911_0A

> <ROCS_TanimotoCombo>
0.353 

> <ROCS_ShapeTanimoto>
0.168 

> <ROCS_ColorTanimoto>
0.184 

> <ROCS_RefTversky>
0.159 

> <ROCS_RefColorTversky>
0.196 

> <ROCS_RefTverskyCombo>
0.355 

> <ROCS_FitTversky>
1.490 

> <ROCS_FitColorTversky>
0.756 

> <ROCS_FitTverskyCombo>
2.246 

> <ROCS_ColorScore>
-5.702

> <ROCS_Overlap>
1274.497

> <ROCS_Rank>
62                  

$$$$
untitled-dbase-990_26
  -OEChem-02092407103D

 23 23  0     0  0  0  0  0  0999 V2000
    9.8920   12.1276   24.1004 C   0  0  0  0  0  0  0  0  0  0  0  0
    7.5366   11.9305   23.6002 C   0  0  0  0  0  0  0  0  0  0  0  0
   10.0801   10.7933   23.7404 C   0  0  0  0  0  0  0  0  0  0  0  0
    7.7247   10.5961   23.2400 C   0  0  0  0  0  0  0  0  0  0  0  0
    8.6202   12.6962   24.0304 C   0  0  0  0  0  0  0  0  0  0  0  0
    8.9966   10.0275   23.3102 C   0  0  0  0  0  0  0  0  0  0  0  0
    8.4184   14.1231   24.4145 C   0  0  0  0  0  0  0  0  0  0  0  0
    7.2756   14.8066   23.6586 C   0  0  0  0  0  0  0  0  0  0  0  0
    6.0886   15.5955   21.4181 N   0  0  0  0  0  0  0  0  0  0  0  0
    8.6556   15.5944   21.5844 O   0  0  0  0  0  0  0  0  0  0  0  0
    7.4186   13.3941   21.4649 O   0  0  0  0  0  0  0  0  0  0  0  0
    9.1776    8.7468   22.9618 F   0  0  0  0  0  0  0  0  0  0  0  0
    7.5006   14.7750   21.9078 S   0  0  0  0  0  0  0  0  0  0  0  0
   10.7422   12.7161   24.4352 H   0  0  0  0  0  0  0  0  0  0  0  0
    6.5421   12.3651   23.5421 H   0  0  0  0  0  0  0  0  0  0  0  0
   11.0702   10.3507   23.7942 H   0  0  0  0  0  0  0  0  0  0  0  0
    6.8813    9.9995   22.9055 H   0  0  0  0  0  0  0  0  0  0  0  0
    9.3443   14.6906   24.2167 H   0  0  0  0  0  0  0  0  0  0  0  0
    8.2435   14.2226   25.4998 H   0  0  0  0  0  0  0  0  0  0  0  0
    6.3286   14.2912   23.8482 H   0  0  0  0  0  0  0  0  0  0  0  0
    7.1611   15.8552   23.9493 H   0  0  0  0  0  0  0  0  0  0  0  0
    6.1939   16.5450   21.0402 H   0  0  0  0  0  0  0  0  0  0  0  0
    5.3515   15.0465   20.9590 H   0  0  0  0  0  0  0  0  0  0  0  0
  1  3  2  0  0  0  0
  1  5  1  0  0  0  0
  2  4  1  0  0  0  0
  2  5  2  0  0  0  0
  3  6  1  0  0  0  0
  4  6  2  0  0  0  0
  5  7  1  0  0  0  0
  6 12  1  0  0  0  0
  7  8  1  0  0  0  0
  8 13  1  0  0  0  0
  9 13  1  0  0  0  0
 10 13  2  0  0  0  0
 11 13  2  0  0  0  0
  1 14  1  0  0  0  0
  2 15  1  0  0  0  0
  3 16  1  0  0  0  0
  4 17  1  0  0  0  0
  7 18  1  0  0  0  0
  7 19  1  0  0  0  0
  8 20  1  0  0  0  0
  8 21  1  0  0  0  0
  9 22  1  0  0  0  0
  9 23  1  0  0  0  0
M  END
> <Mol Weight>
203,23

> <Formula>
C8H10FNO2S

> <ID>
EN300-278361

> <name>
Sulfonamides

> <LogP>
0,77

> <ROCS_ShapeQuery>
x0310_0A_x0719_0A_x1080_0A_x0739_0A_x0929_0A_x0526_0A_x0911_0A

> <ROCS_TanimotoCombo>
0.352 

> <ROCS_ShapeTanimoto>
0.169 

> <ROCS_ColorTanimoto>
0.183 

> <ROCS_RefTversky>
0.162 

> <ROCS_RefColorTversky>
0.183 

> <ROCS_RefTverskyCombo>
0.345 

> <ROCS_FitTversky>
1.395 

> <ROCS_FitColorTversky>
1.000 

> <ROCS_FitTverskyCombo>
2.395 

> <ROCS_ColorScore>
-5.299

> <ROCS_Overlap>
1293.166

> <ROCS_Rank>
63                  

$$$$
untitled-dbase-2677_999
  -OEChem-02092407103D

 30 30  0     0  0  0  0  0  0999 V2000
    9.3116   11.3976   22.3034 C   0  0  0  0  0  0  0  0  0  0  0  0
    9.3187   10.1833   22.9896 C   0  0  0  0  0  0  0  0  0  0  0  0
    8.7741   12.5356   22.9050 C   0  0  0  0  0  0  0  0  0  0  0  0
    8.2507   11.2448   24.8790 C   0  0  0  0  0  0  0  0  0  0  0  0
    8.7882   10.1068   24.2774 C   0  0  0  0  0  0  0  0  0  0  0  0
    8.2437   12.4591   24.1928 C   0  0  0  0  0  0  0  0  0  0  0  0
    7.8670   15.8694   24.1103 C   0  0  0  0  0  0  0  0  0  0  0  0
    7.1387   14.5475   23.9211 C   0  0  0  0  0  0  0  0  0  0  0  0
    7.3088   16.9515   23.2027 C   0  0  0  0  0  0  0  0  0  0  0  0
    8.7955    8.8083   25.0107 C   0  0  0  0  0  0  0  0  0  0  0  0
    6.1535   15.4595   21.3344 N   0  0  0  0  0  0  0  0  0  0  0  0
    7.2379   17.7046   20.7017 O   0  0  0  0  0  0  0  0  0  0  0  0
    8.7088   15.7546   21.3493 O   0  0  0  0  0  0  0  0  0  0  0  0
    7.7161   13.5776   24.7841 O   0  0  0  0  0  0  0  0  0  0  0  0
    9.3511    7.7818   24.3012 F   0  0  0  0  0  0  0  0  0  0  0  0
    9.4922    8.8473   26.1849 F   0  0  0  0  0  0  0  0  0  0  0  0
    7.5408    8.3861   25.3435 F   0  0  0  0  0  0  0  0  0  0  0  0
    7.4810   16.5163   21.5014 S   0  0  0  0  0  0  0  0  0  0  0  0
    9.7250   11.4572   21.3010 H   0  0  0  0  0  0  0  0  0  0  0  0
    9.7392    9.3020   22.5125 H   0  0  0  0  0  0  0  0  0  0  0  0
    8.7716   13.4784   22.3652 H   0  0  0  0  0  0  0  0  0  0  0  0
    7.8362   11.1881   25.8828 H   0  0  0  0  0  0  0  0  0  0  0  0
    7.7974   16.1797   25.1606 H   0  0  0  0  0  0  0  0  0  0  0  0
    8.9387   15.7281   23.9205 H   0  0  0  0  0  0  0  0  0  0  0  0
    7.2316   14.1945   22.8891 H   0  0  0  0  0  0  0  0  0  0  0  0
    6.0772   14.6470   24.1697 H   0  0  0  0  0  0  0  0  0  0  0  0
    7.8360   17.8998   23.3429 H   0  0  0  0  0  0  0  0  0  0  0  0
    6.2415   17.1111   23.3832 H   0  0  0  0  0  0  0  0  0  0  0  0
    5.3493   15.7853   20.7842 H   0  0  0  0  0  0  0  0  0  0  0  0
    6.3511   14.4572   21.2254 H   0  0  0  0  0  0  0  0  0  0  0  0
  1  2  1  0  0  0  0
  1  3  2  0  0  0  0
  2  5  2  0  0  0  0
  3  6  1  0  0  0  0
  4  5  1  0  0  0  0
  4  6  2  0  0  0  0
  5 10  1  0  0  0  0
  6 14  1  0  0  0  0
  7  8  1  0  0  0  0
  7  9  1  0  0  0  0
  8 14  1  0  0  0  0
  9 18  1  0  0  0  0
 10 15  1  0  0  0  0
 10 16  1  0  0  0  0
 10 17  1  0  0  0  0
 11 18  1  0  0  0  0
 12 18  2  0  0  0  0
 13 18  2  0  0  0  0
  1 19  1  0  0  0  0
  2 20  1  0  0  0  0
  3 21  1  0  0  0  0
  4 22  1  0  0  0  0
  7 23  1  0  0  0  0
  7 24  1  0  0  0  0
  8 25  1  0  0  0  0
  8 26  1  0  0  0  0
  9 27  1  0  0  0  0
  9 28  1  0  0  0  0
 11 29  1  0  0  0  0
 11 30  1  0  0  0  0
M  END
> <Mol Weight>
283,27

> <Formula>
C10H12F3NO3S

> <ID>
EN300-14975404

> <name>
Sulfonamides

> <LogP>
1,20

> <ROCS_ShapeQuery>
x0310_0A_x0719_0A_x1080_0A_x0739_0A_x0929_0A_x0526_0A_x0911_0A

> <ROCS_TanimotoCombo>
0.352 

> <ROCS_ShapeTanimoto>
0.175 

> <ROCS_ColorTanimoto>
0.177 

> <ROCS_RefTversky>
0.170 

> <ROCS_RefColorTversky>
0.183 

> <ROCS_RefTverskyCombo>
0.353 

> <ROCS_FitTversky>
1.192 

> <ROCS_FitColorTversky>
0.845 

> <ROCS_FitTverskyCombo>
2.037 

> <ROCS_ColorScore>
-5.298

> <ROCS_Overlap>
1365.333

> <ROCS_Rank>
64                  

$$$$
untitled-dbase-812_27
  -OEChem-02092407103D

 26 26  0     0  0  0  0  0  0999 V2000
   10.0810   10.7929   23.7440 C   0  0  0  0  0  0  0  0  0  0  0  0
    7.7265   10.5942   23.2403 C   0  0  0  0  0  0  0  0  0  0  0  0
    9.8918   12.1276   24.1021 C   0  0  0  0  0  0  0  0  0  0  0  0
    7.5372   11.9289   23.5984 C   0  0  0  0  0  0  0  0  0  0  0  0
    8.9984   10.0261   23.3131 C   0  0  0  0  0  0  0  0  0  0  0  0
    8.6199   12.6957   24.0293 C   0  0  0  0  0  0  0  0  0  0  0  0
    9.1998    8.5990   22.9301 C   0  0  0  0  0  0  0  0  0  0  0  0
    8.4181   14.1224   24.4140 C   0  0  0  0  0  0  0  0  0  0  0  0
    7.2755   14.8062   23.6582 C   0  0  0  0  0  0  0  0  0  0  0  0
    6.0887   15.5958   21.4179 N   0  0  0  0  0  0  0  0  0  0  0  0
    8.6556   15.5948   21.5844 O   0  0  0  0  0  0  0  0  0  0  0  0
    7.4187   13.3945   21.4640 O   0  0  0  0  0  0  0  0  0  0  0  0
    7.5006   14.7753   21.9075 S   0  0  0  0  0  0  0  0  0  0  0  0
   11.0757   10.3588   23.8032 H   0  0  0  0  0  0  0  0  0  0  0  0
    6.8772   10.0036   22.9068 H   0  0  0  0  0  0  0  0  0  0  0  0
   10.7407   12.7170   24.4381 H   0  0  0  0  0  0  0  0  0  0  0  0
    6.5430   12.3637   23.5386 H   0  0  0  0  0  0  0  0  0  0  0  0
    9.0680    7.9471   23.8023 H   0  0  0  0  0  0  0  0  0  0  0  0
    8.4873    8.2902   22.1541 H   0  0  0  0  0  0  0  0  0  0  0  0
   10.2054    8.4342   22.5214 H   0  0  0  0  0  0  0  0  0  0  0  0
    9.3440   14.6900   24.2166 H   0  0  0  0  0  0  0  0  0  0  0  0
    8.2431   14.2214   25.4994 H   0  0  0  0  0  0  0  0  0  0  0  0
    6.3285   14.2906   23.8476 H   0  0  0  0  0  0  0  0  0  0  0  0
    7.1608   15.8547   23.9493 H   0  0  0  0  0  0  0  0  0  0  0  0
    6.1940   16.5455   21.0403 H   0  0  0  0  0  0  0  0  0  0  0  0
    5.3516   15.0470   20.9585 H   0  0  0  0  0  0  0  0  0  0  0  0
  1  3  2  0  0  0  0
  1  5  1  0  0  0  0
  2  4  1  0  0  0  0
  2  5  2  0  0  0  0
  3  6  1  0  0  0  0
  4  6  2  0  0  0  0
  5  7  1  0  0  0  0
  6  8  1  0  0  0  0
  8  9  1  0  0  0  0
  9 13  1  0  0  0  0
 10 13  1  0  0  0  0
 11 13  2  0  0  0  0
 12 13  2  0  0  0  0
  1 14  1  0  0  0  0
  2 15  1  0  0  0  0
  3 16  1  0  0  0  0
  4 17  1  0  0  0  0
  7 18  1  0  0  0  0
  7 19  1  0  0  0  0
  7 20  1  0  0  0  0
  8 21  1  0  0  0  0
  8 22  1  0  0  0  0
  9 23  1  0  0  0  0
  9 24  1  0  0  0  0
 10 25  1  0  0  0  0
 10 26  1  0  0  0  0
M  END
> <Mol Weight>
199,27

> <Formula>
C9H13NO2S

> <ID>
EN300-277231

> <name>
Sulfonamides

> <LogP>
1,14

> <ROCS_ShapeQuery>
x0310_0A_x0719_0A_x1080_0A_x0739_0A_x0929_0A_x0526_0A_x0911_0A

> <ROCS_TanimotoCombo>
0.351 

> <ROCS_ShapeTanimoto>
0.168 

> <ROCS_ColorTanimoto>
0.183 

> <ROCS_RefTversky>
0.161 

> <ROCS_RefColorTversky>
0.183 

> <ROCS_RefTverskyCombo>
0.344 

> <ROCS_FitTversky>
1.395 

> <ROCS_FitColorTversky>
1.000 

> <ROCS_FitTverskyCombo>
2.395 

> <ROCS_ColorScore>
-5.299

> <ROCS_Overlap>
1285.969

> <ROCS_Rank>
65                  

$$$$
untitled-dbase-2565_1077
  -OEChem-02092407103D

 34 34  0     0  0  0  0  0  0999 V2000
    4.0429   10.7909   18.7017 C   0  0  0  0  0  0  0  0  0  0  0  0
    3.4135   11.8669   20.7712 C   0  0  0  0  0  0  0  0  0  0  0  0
    3.1518   11.6078   18.0059 C   0  0  0  0  0  0  0  0  0  0  0  0
    2.5224   12.6839   20.0754 C   0  0  0  0  0  0  0  0  0  0  0  0
    4.1737   10.9204   20.0844 C   0  0  0  0  0  0  0  0  0  0  0  0
    2.3916   12.5544   18.6927 C   0  0  0  0  0  0  0  0  0  0  0  0
    7.7104   10.3448   23.5218 C   0  0  0  0  0  0  0  0  0  0  0  0
    8.6319   13.8532   24.0492 C   0  0  0  0  0  0  0  0  0  0  0  0
    5.1371   10.0362   20.8375 C   0  0  0  0  0  0  0  0  0  0  0  0
    5.7087   10.7053   22.0850 C   0  0  0  0  0  0  0  0  0  0  0  0
    8.7711   12.3537   24.2029 C   0  0  0  0  0  0  0  0  0  0  0  0
    2.2853   14.9047   17.4400 N   0  0  0  0  0  0  0  0  0  0  0  0
    6.6496    9.8615   22.7850 N   0  0  0  0  0  0  0  0  0  0  0  0
    8.5299    9.6638   24.1295 O   0  0  0  0  0  0  0  0  0  0  0  0
    0.9020   12.9034   16.5873 O   0  0  0  0  0  0  0  0  0  0  0  0
    0.2441   14.0274   18.7441 O   0  0  0  0  0  0  0  0  0  0  0  0
    7.7174   11.7106   23.4770 O   0  0  0  0  0  0  0  0  0  0  0  0
    1.2778   13.5785   17.8217 S   0  0  0  0  0  0  0  0  0  0  0  0
    4.6307   10.0560   18.1582 H   0  0  0  0  0  0  0  0  0  0  0  0
    3.5085   11.9746   21.8485 H   0  0  0  0  0  0  0  0  0  0  0  0
    3.0572   11.4983   16.9287 H   0  0  0  0  0  0  0  0  0  0  0  0
    1.9348   13.4178   20.6205 H   0  0  0  0  0  0  0  0  0  0  0  0
    8.7031   14.1460   22.9980 H   0  0  0  0  0  0  0  0  0  0  0  0
    7.6705   14.1944   24.4469 H   0  0  0  0  0  0  0  0  0  0  0  0
    9.4126   14.3731   24.6144 H   0  0  0  0  0  0  0  0  0  0  0  0
    5.9590    9.7636   20.1634 H   0  0  0  0  0  0  0  0  0  0  0  0
    4.6428    9.0941   21.1071 H   0  0  0  0  0  0  0  0  0  0  0  0
    6.2483   11.6158   21.8058 H   0  0  0  0  0  0  0  0  0  0  0  0
    4.9203   10.9795   22.7936 H   0  0  0  0  0  0  0  0  0  0  0  0
    8.6990   12.0675   25.2564 H   0  0  0  0  0  0  0  0  0  0  0  0
    9.7318   12.0143   23.8043 H   0  0  0  0  0  0  0  0  0  0  0  0
    2.5751   15.0239   16.4616 H   0  0  0  0  0  0  0  0  0  0  0  0
    2.1259   15.7898   17.9365 H   0  0  0  0  0  0  0  0  0  0  0  0
    6.5227    8.8556   22.7314 H   0  0  0  0  0  0  0  0  0  0  0  0
  1  3  2  0  0  0  0
  1  5  1  0  0  0  0
  2  4  1  0  0  0  0
  2  5  2  0  0  0  0
  3  6  1  0  0  0  0
  4  6  2  0  0  0  0
  5  9  1  0  0  0  0
  6 18  1  0  0  0  0
  7 13  1  0  0  0  0
  7 14  2  0  0  0  0
  7 17  1  0  0  0  0
  8 11  1  0  0  0  0
  9 10  1  0  0  0  0
 10 13  1  0  0  0  0
 11 17  1  0  0  0  0
 12 18  1  0  0  0  0
 15 18  2  0  0  0  0
 16 18  2  0  0  0  0
  1 19  1  0  0  0  0
  2 20  1  0  0  0  0
  3 21  1  0  0  0  0
  4 22  1  0  0  0  0
  8 23  1  0  0  0  0
  8 24  1  0  0  0  0
  8 25  1  0  0  0  0
  9 26  1  0  0  0  0
  9 27  1  0  0  0  0
 10 28  1  0  0  0  0
 10 29  1  0  0  0  0
 11 30  1  0  0  0  0
 11 31  1  0  0  0  0
 12 32  1  0  0  0  0
 12 33  1  0  0  0  0
 13 34  1  0  0  0  0
M  END
> <Mol Weight>
272,32

> <Formula>
C11H16N2O4S

> <ID>
EN300-23741027

> <name>
Sulfonamides

> <LogP>
0,79

> <ROCS_ShapeQuery>
x0310_0A_x0719_0A_x1080_0A_x0739_0A_x0929_0A_x0526_0A_x0911_0A

> <ROCS_TanimotoCombo>
0.350 

> <ROCS_ShapeTanimoto>
0.223 

> <ROCS_ColorTanimoto>
0.127 

> <ROCS_RefTversky>
0.208 

> <ROCS_RefColorTversky>
0.141 

> <ROCS_RefTverskyCombo>
0.349 

> <ROCS_FitTversky>
1.474 

> <ROCS_FitColorTversky>
0.566 

> <ROCS_FitTverskyCombo>
2.041 

> <ROCS_ColorScore>
-4.087

> <ROCS_Overlap>
1670.064

> <ROCS_Rank>
66                  

$$$$
untitled-dbase-2679_185
  -OEChem-02092407103D

 40 41  0     0  0  0  0  0  0999 V2000
    3.5040   12.2001   21.0434 C   0  0  0  0  0  0  0  0  0  0  0  0
    4.3903   11.2119   19.0247 C   0  0  0  0  0  0  0  0  0  0  0  0
    2.3615   12.5960   20.3480 C   0  0  0  0  0  0  0  0  0  0  0  0
    3.2478   11.6078   18.3293 C   0  0  0  0  0  0  0  0  0  0  0  0
    4.5184   11.5080   20.3817 C   0  0  0  0  0  0  0  0  0  0  0  0
    2.2334   12.2999   18.9910 C   0  0  0  0  0  0  0  0  0  0  0  0
    6.8707   14.2432   22.7730 C   0  0  0  0  0  0  0  0  0  0  0  0
    7.8359   12.2031   23.9145 C   0  0  0  0  0  0  0  0  0  0  0  0
    6.3182   13.3559   21.6616 C   0  0  0  0  0  0  0  0  0  0  0  0
    7.2808   11.3215   22.7998 C   0  0  0  0  0  0  0  0  0  0  0  0
    8.1197   13.6283   23.4198 C   0  0  0  0  0  0  0  0  0  0  0  0
    6.0410   11.9381   22.1573 C   0  0  0  0  0  0  0  0  0  0  0  0
    7.6044   14.6325   25.6502 C   0  0  0  0  0  0  0  0  0  0  0  0
    8.6219   14.5064   24.5644 C   0  0  0  0  0  0  0  0  0  0  0  0
   -0.2036   11.4346   18.3451 N   0  0  0  0  0  0  0  0  0  0  0  0
    0.2163   13.9348   18.8124 O   0  0  0  0  0  0  0  0  0  0  0  0
    1.1369   12.9025   16.7065 O   0  0  0  0  0  0  0  0  0  0  0  0
    5.6401   11.1188   21.0646 O   0  0  0  0  0  0  0  0  0  0  0  0
    0.8035   12.7963   18.1200 S   0  0  0  0  0  0  0  0  0  0  0  0
    3.5979   12.4330   22.1006 H   0  0  0  0  0  0  0  0  0  0  0  0
    5.1771   10.6731   18.5039 H   0  0  0  0  0  0  0  0  0  0  0  0
    1.5775   13.1347   20.8732 H   0  0  0  0  0  0  0  0  0  0  0  0
    3.1582   11.3723   17.2722 H   0  0  0  0  0  0  0  0  0  0  0  0
    7.1102   15.2310   22.3619 H   0  0  0  0  0  0  0  0  0  0  0  0
    6.0933   14.3961   23.5325 H   0  0  0  0  0  0  0  0  0  0  0  0
    7.1172   12.2317   24.7437 H   0  0  0  0  0  0  0  0  0  0  0  0
    8.7557   11.7538   24.3072 H   0  0  0  0  0  0  0  0  0  0  0  0
    5.3979   13.7922   21.2549 H   0  0  0  0  0  0  0  0  0  0  0  0
    7.0262   13.3240   20.8229 H   0  0  0  0  0  0  0  0  0  0  0  0
    8.0511   11.1569   22.0351 H   0  0  0  0  0  0  0  0  0  0  0  0
    7.0392   10.3274   23.1946 H   0  0  0  0  0  0  0  0  0  0  0  0
    8.9119   13.5782   22.6606 H   0  0  0  0  0  0  0  0  0  0  0  0
    5.2189   11.9537   22.8829 H   0  0  0  0  0  0  0  0  0  0  0  0
    6.6839   15.0668   25.2427 H   0  0  0  0  0  0  0  0  0  0  0  0
    7.9647   15.2891   26.4493 H   0  0  0  0  0  0  0  0  0  0  0  0
    7.3596   13.6520   26.0721 H   0  0  0  0  0  0  0  0  0  0  0  0
    9.5399   14.0734   24.9701 H   0  0  0  0  0  0  0  0  0  0  0  0
    8.8661   15.4974   24.1734 H   0  0  0  0  0  0  0  0  0  0  0  0
   -1.0097   11.5302   18.9748 H   0  0  0  0  0  0  0  0  0  0  0  0
   -0.3784   10.8255   17.5366 H   0  0  0  0  0  0  0  0  0  0  0  0
  1  3  2  0  0  0  0
  1  5  1  0  0  0  0
  2  4  1  0  0  0  0
  2  5  2  0  0  0  0
  3  6  1  0  0  0  0
  4  6  2  0  0  0  0
  5 18  1  0  0  0  0
  6 19  1  0  0  0  0
  7  9  1  0  0  0  0
  7 11  1  0  0  0  0
  8 10  1  0  0  0  0
  8 11  1  0  0  0  0
  9 12  1  0  0  0  0
 10 12  1  0  0  0  0
 11 14  1  0  0  0  0
 12 18  1  0  0  0  0
 13 14  1  0  0  0  0
 15 19  1  0  0  0  0
 16 19  2  0  0  0  0
 17 19  2  0  0  0  0
  1 20  1  0  0  0  0
  2 21  1  0  0  0  0
  3 22  1  0  0  0  0
  4 23  1  0  0  0  0
  7 24  1  0  0  0  0
  7 25  1  0  0  0  0
  8 26  1  0  0  0  0
  8 27  1  0  0  0  0
  9 28  1  0  0  0  0
  9 29  1  0  0  0  0
 10 30  1  0  0  0  0
 10 31  1  0  0  0  0
 11 32  1  0  0  0  0
 12 33  1  0  0  0  0
 13 34  1  0  0  0  0
 13 35  1  0  0  0  0
 13 36  1  0  0  0  0
 14 37  1  0  0  0  0
 14 38  1  0  0  0  0
 15 39  1  0  0  0  0
 15 40  1  0  0  0  0
M  END
> <Mol Weight>
283,39

> <Formula>
C14H21NO3S

> <ID>
EN300-306412

> <name>
Sulfonamides

> <LogP>
2,95

> <ROCS_ShapeQuery>
x0310_0A_x0719_0A_x1080_0A_x0739_0A_x0929_0A_x0526_0A_x0911_0A

> <ROCS_TanimotoCombo>
0.350 

> <ROCS_ShapeTanimoto>
0.236 

> <ROCS_ColorTanimoto>
0.114 

> <ROCS_RefTversky>
0.219 

> <ROCS_RefColorTversky>
0.131 

> <ROCS_RefTverskyCombo>
0.350 

> <ROCS_FitTversky>
1.491 

> <ROCS_FitColorTversky>
0.467 

> <ROCS_FitTverskyCombo>
1.958 

> <ROCS_ColorScore>
-3.811

> <ROCS_Overlap>
1757.394

> <ROCS_Rank>
67                  

$$$$
untitled-dbase-2836_83
  -OEChem-02092407103D

 37 38  0     0  0  0  0  0  0999 V2000
    7.6762   11.9516   20.2335 C   0  0  0  0  0  0  0  0  0  0  0  0
    6.5352   11.9102   19.4322 C   0  0  0  0  0  0  0  0  0  0  0  0
    5.6175   13.7896   20.6417 C   0  0  0  0  0  0  0  0  0  0  0  0
    7.7878   12.9120   21.2389 C   0  0  0  0  0  0  0  0  0  0  0  0
    5.5059   12.8291   19.6363 C   0  0  0  0  0  0  0  0  0  0  0  0
    6.7585   13.8310   21.4430 C   0  0  0  0  0  0  0  0  0  0  0  0
    9.0993    9.6112   24.7274 C   0  0  0  0  0  0  0  0  0  0  0  0
    7.9077   10.5599   24.8209 C   0  0  0  0  0  0  0  0  0  0  0  0
   10.3928   10.3603   24.4194 C   0  0  0  0  0  0  0  0  0  0  0  0
    7.7724   11.4203   23.5657 C   0  0  0  0  0  0  0  0  0  0  0  0
   10.2605   11.2198   23.1633 C   0  0  0  0  0  0  0  0  0  0  0  0
    9.0699   12.1794   23.2666 C   0  0  0  0  0  0  0  0  0  0  0  0
    5.3699   15.8559   22.4805 N   0  0  0  0  0  0  0  0  0  0  0  0
    8.9292   12.9322   22.0216 N   0  0  0  0  0  0  0  0  0  0  0  0
    4.3445   12.7878   18.8202 N   0  3  0  0  0  0  0  0  0  0  0  0
    4.2640   11.9166   17.9208 O   0  5  0  0  0  0  0  0  0  0  0  0
    3.4306   13.6241   19.0205 O   0  0  0  0  0  0  0  0  0  0  0  0
    6.8543   14.3800   23.9852 O   0  0  0  0  0  0  0  0  0  0  0  0
    7.9408   15.9649   22.3556 O   0  0  0  0  0  0  0  0  0  0  0  0
    6.8609   15.0513   22.6948 S   0  0  0  0  0  0  0  0  0  0  0  0
    8.4709   11.2293   20.0652 H   0  0  0  0  0  0  0  0  0  0  0  0
    6.4604   11.1576   18.6510 H   0  0  0  0  0  0  0  0  0  0  0  0
    4.8148   14.5063   20.8021 H   0  0  0  0  0  0  0  0  0  0  0  0
    9.2064    9.0601   25.6685 H   0  0  0  0  0  0  0  0  0  0  0  0
    8.9125    8.8693   23.9413 H   0  0  0  0  0  0  0  0  0  0  0  0
    6.9881    9.9835   24.9729 H   0  0  0  0  0  0  0  0  0  0  0  0
    8.0260   11.2097   25.6968 H   0  0  0  0  0  0  0  0  0  0  0  0
   10.6575   10.9983   25.2718 H   0  0  0  0  0  0  0  0  0  0  0  0
   11.2114    9.6433   24.2914 H   0  0  0  0  0  0  0  0  0  0  0  0
    7.5099   10.7729   22.7186 H   0  0  0  0  0  0  0  0  0  0  0  0
    6.9450   12.1276   23.6995 H   0  0  0  0  0  0  0  0  0  0  0  0
   11.1881   11.7851   23.0134 H   0  0  0  0  0  0  0  0  0  0  0  0
   10.1396   10.5621   22.2926 H   0  0  0  0  0  0  0  0  0  0  0  0
    9.2565   12.8980   24.0770 H   0  0  0  0  0  0  0  0  0  0  0  0
    4.6433   15.7204   23.1940 H   0  0  0  0  0  0  0  0  0  0  0  0
    5.3868   16.8015   22.0794 H   0  0  0  0  0  0  0  0  0  0  0  0
    9.7115   13.4994   21.7192 H   0  0  0  0  0  0  0  0  0  0  0  0
  1  2  2  0  0  0  0
  1  4  1  0  0  0  0
  2  5  1  0  0  0  0
  3  5  2  0  0  0  0
  3  6  1  0  0  0  0
  4  6  2  0  0  0  0
  4 14  1  0  0  0  0
  5 15  1  0  0  0  0
  6 20  1  0  0  0  0
  7  8  1  0  0  0  0
  7  9  1  0  0  0  0
  8 10  1  0  0  0  0
  9 11  1  0  0  0  0
 10 12  1  0  0  0  0
 11 12  1  0  0  0  0
 12 14  1  0  0  0  0
 13 20  1  0  0  0  0
 15 16  1  0  0  0  0
 15 17  2  0  0  0  0
 18 20  2  0  0  0  0
 19 20  2  0  0  0  0
  1 21  1  0  0  0  0
  2 22  1  0  0  0  0
  3 23  1  0  0  0  0
  7 24  1  0  0  0  0
  7 25  1  0  0  0  0
  8 26  1  0  0  0  0
  8 27  1  0  0  0  0
  9 28  1  0  0  0  0
  9 29  1  0  0  0  0
 10 30  1  0  0  0  0
 10 31  1  0  0  0  0
 11 32  1  0  0  0  0
 11 33  1  0  0  0  0
 12 34  1  0  0  0  0
 13 35  1  0  0  0  0
 13 36  1  0  0  0  0
 14 37  1  0  0  0  0
M  CHG  2  15   1  16  -1
M  END
> <Mol Weight>
299,35

> <Formula>
C12H17N3O4S

> <ID>
EN300-256324

> <name>
Sulfonamides

> <LogP>
1,79

> <ROCS_ShapeQuery>
x0310_0A_x0719_0A_x1080_0A_x0739_0A_x0929_0A_x0526_0A_x0911_0A

> <ROCS_TanimotoCombo>
0.350 

> <ROCS_ShapeTanimoto>
0.198 

> <ROCS_ColorTanimoto>
0.152 

> <ROCS_RefTversky>
0.191 

> <ROCS_RefColorTversky>
0.173 

> <ROCS_RefTverskyCombo>
0.364 

> <ROCS_FitTversky>
1.235 

> <ROCS_FitColorTversky>
0.552 

> <ROCS_FitTverskyCombo>
1.788 

> <ROCS_ColorScore>
-5.043

> <ROCS_Overlap>
1532.952

> <ROCS_Rank>
68                  

$$$$
untitled-dbase-2511_103
  -OEChem-02092407103D

 30 31  0     0  0  0  0  0  0999 V2000
    9.4022   10.8342   24.8597 C   0  0  0  0  0  0  0  0  0  0  0  0
    9.6293   10.1114   23.6707 C   0  0  0  0  0  0  0  0  0  0  0  0
    8.5923   11.9734   24.8647 C   0  0  0  0  0  0  0  0  0  0  0  0
    9.0506   10.5134   22.4634 C   0  0  0  0  0  0  0  0  0  0  0  0
    8.0316   12.3514   23.6621 C   0  0  0  0  0  0  0  0  0  0  0  0
    8.2547   11.6401   22.4922 C   0  0  0  0  0  0  0  0  0  0  0  0
    7.1546   13.4782   23.3469 C   0  0  0  0  0  0  0  0  0  0  0  0
    7.5233   12.3021   21.4122 C   0  0  0  0  0  0  0  0  0  0  0  0
    5.2914   13.6407   20.1293 C   0  0  0  0  0  0  0  0  0  0  0  0
    6.0495   14.3090   21.2705 C   0  0  0  0  0  0  0  0  0  0  0  0
    4.3954   12.5076   20.6109 C   0  0  0  0  0  0  0  0  0  0  0  0
    6.8933   13.3804   21.9961 N   0  0  0  0  0  0  0  0  0  0  0  0
    2.2919   12.8613   19.0294 N   0  0  0  0  0  0  0  0  0  0  0  0
    6.7732   14.2966   24.1628 O   0  0  0  0  0  0  0  0  0  0  0  0
    7.5208   11.9181   20.2573 O   0  0  0  0  0  0  0  0  0  0  0  0
    4.4301   11.7708   18.1043 O   0  0  0  0  0  0  0  0  0  0  0  0
    2.9881   10.4877   19.7352 O   0  0  0  0  0  0  0  0  0  0  0  0
    3.5540   11.7392   19.2625 S   0  0  0  0  0  0  0  0  0  0  0  0
    9.8649   10.4987   25.7844 H   0  0  0  0  0  0  0  0  0  0  0  0
   10.2640    9.2294   23.6955 H   0  0  0  0  0  0  0  0  0  0  0  0
    8.4184   12.5290   25.7788 H   0  0  0  0  0  0  0  0  0  0  0  0
    9.2255    9.9577   21.5498 H   0  0  0  0  0  0  0  0  0  0  0  0
    6.0168   13.2460   19.4074 H   0  0  0  0  0  0  0  0  0  0  0  0
    4.6890   14.3848   19.5931 H   0  0  0  0  0  0  0  0  0  0  0  0
    6.6856   15.1189   20.8993 H   0  0  0  0  0  0  0  0  0  0  0  0
    5.3448   14.7313   21.9935 H   0  0  0  0  0  0  0  0  0  0  0  0
    4.9764   11.7257   21.1090 H   0  0  0  0  0  0  0  0  0  0  0  0
    3.6239   12.8665   21.2982 H   0  0  0  0  0  0  0  0  0  0  0  0
    2.3244   13.4496   18.1877 H   0  0  0  0  0  0  0  0  0  0  0  0
    1.3424   12.5758   19.2986 H   0  0  0  0  0  0  0  0  0  0  0  0
  1  2  1  0  0  0  0
  1  3  2  0  0  0  0
  2  4  2  0  0  0  0
  3  5  1  0  0  0  0
  4  6  1  0  0  0  0
  5  6  2  0  0  0  0
  5  7  1  0  0  0  0
  6  8  1  0  0  0  0
  7 12  1  0  0  0  0
  7 14  2  0  0  0  0
  8 12  1  0  0  0  0
  8 15  2  0  0  0  0
  9 10  1  0  0  0  0
  9 11  1  0  0  0  0
 10 12  1  0  0  0  0
 11 18  1  0  0  0  0
 13 18  1  0  0  0  0
 16 18  2  0  0  0  0
 17 18  2  0  0  0  0
  1 19  1  0  0  0  0
  2 20  1  0  0  0  0
  3 21  1  0  0  0  0
  4 22  1  0  0  0  0
  9 23  1  0  0  0  0
  9 24  1  0  0  0  0
 10 25  1  0  0  0  0
 10 26  1  0  0  0  0
 11 27  1  0  0  0  0
 11 28  1  0  0  0  0
 13 29  1  0  0  0  0
 13 30  1  0  0  0  0
M  END
> <Mol Weight>
268,29

> <Formula>
C11H12N2O4S

> <ID>
EN300-123321

> <name>
Sulfonamides

> <LogP>
-0,58

> <ROCS_ShapeQuery>
x0310_0A_x0719_0A_x1080_0A_x0739_0A_x0929_0A_x0526_0A_x0911_0A

> <ROCS_TanimotoCombo>
0.348 

> <ROCS_ShapeTanimoto>
0.218 

> <ROCS_ColorTanimoto>
0.130 

> <ROCS_RefTversky>
0.205 

> <ROCS_RefColorTversky>
0.148 

> <ROCS_RefTverskyCombo>
0.353 

> <ROCS_FitTversky>
1.404 

> <ROCS_FitColorTversky>
0.526 

> <ROCS_FitTverskyCombo>
1.930 

> <ROCS_ColorScore>
-4.302

> <ROCS_Overlap>
1645.174

> <ROCS_Rank>
69                  

$$$$
untitled-dbase-1912_0
  -OEChem-02092407103D

 27 28  0     0  0  0  0  0  0999 V2000
    6.5665   14.7913   26.1565 C   0  0  0  0  0  0  0  0  0  0  0  0
    5.7198   15.5158   25.3177 C   0  0  0  0  0  0  0  0  0  0  0  0
    7.6626   14.1127   25.6237 C   0  0  0  0  0  0  0  0  0  0  0  0
    5.9690   15.5617   23.9461 C   0  0  0  0  0  0  0  0  0  0  0  0
    9.3059   10.0137   24.8733 C   0  0  0  0  0  0  0  0  0  0  0  0
    9.7012   11.3254   24.9907 C   0  0  0  0  0  0  0  0  0  0  0  0
    8.2534   11.0637   23.3500 C   0  0  0  0  0  0  0  0  0  0  0  0
    7.9118   14.1586   24.2521 C   0  0  0  0  0  0  0  0  0  0  0  0
    7.0650   14.8831   23.4132 C   0  0  0  0  0  0  0  0  0  0  0  0
    9.0930   13.4196   23.7132 C   0  0  0  0  0  0  0  0  0  0  0  0
    8.4048    9.8574   23.8499 N   0  0  0  0  0  0  0  0  0  0  0  0
    9.0190   11.9857   24.0080 N   0  0  0  0  0  0  0  0  0  0  0  0
    6.0437   15.9468   21.1928 N   0  0  0  0  0  0  0  0  0  0  0  0
    8.5933   15.6768   21.4619 O   0  0  0  0  0  0  0  0  0  0  0  0
    7.1644   13.6279   21.1331 O   0  0  0  0  0  0  0  0  0  0  0  0
    7.3472   14.9605   21.6879 S   0  0  0  0  0  0  0  0  0  0  0  0
    6.3715   14.7553   27.2245 H   0  0  0  0  0  0  0  0  0  0  0  0
    4.8658   16.0433   25.7327 H   0  0  0  0  0  0  0  0  0  0  0  0
    8.3160   13.5511   26.2861 H   0  0  0  0  0  0  0  0  0  0  0  0
    5.3012   16.1295   23.3032 H   0  0  0  0  0  0  0  0  0  0  0  0
    9.6244    9.1740   25.4735 H   0  0  0  0  0  0  0  0  0  0  0  0
   10.3834   11.8265   25.6632 H   0  0  0  0  0  0  0  0  0  0  0  0
    7.6109   11.3276   22.5211 H   0  0  0  0  0  0  0  0  0  0  0  0
    9.1809   13.5333   22.6218 H   0  0  0  0  0  0  0  0  0  0  0  0
   10.0370   13.7993   24.1332 H   0  0  0  0  0  0  0  0  0  0  0  0
    6.2535   16.9064   20.8917 H   0  0  0  0  0  0  0  0  0  0  0  0
    5.2780   15.5055   20.6692 H   0  0  0  0  0  0  0  0  0  0  0  0
  1  2  1  0  0  0  0
  1  3  2  0  0  0  0
  2  4  2  0  0  0  0
  3  8  1  0  0  0  0
  4  9  1  0  0  0  0
  5  6  2  0  0  0  0
  5 11  1  0  0  0  0
  6 12  1  0  0  0  0
  7 11  2  0  0  0  0
  7 12  1  0  0  0  0
  8  9  2  0  0  0  0
  8 10  1  0  0  0  0
  9 16  1  0  0  0  0
 10 12  1  0  0  0  0
 13 16  1  0  0  0  0
 14 16  2  0  0  0  0
 15 16  2  0  0  0  0
  1 17  1  0  0  0  0
  2 18  1  0  0  0  0
  3 19  1  0  0  0  0
  4 20  1  0  0  0  0
  5 21  1  0  0  0  0
  6 22  1  0  0  0  0
  7 23  1  0  0  0  0
 10 24  1  0  0  0  0
 10 25  1  0  0  0  0
 13 26  1  0  0  0  0
 13 27  1  0  0  0  0
M  END
> <Mol Weight>
237,28

> <Formula>
C10H11N3O2S

> <ID>
EN300-125404

> <name>
Sulfonamides

> <LogP>
0,41

> <ROCS_ShapeQuery>
x0310_0A_x0719_0A_x1080_0A_x0739_0A_x0929_0A_x0526_0A_x0911_0A

> <ROCS_TanimotoCombo>
0.348 

> <ROCS_ShapeTanimoto>
0.187 

> <ROCS_ColorTanimoto>
0.161 

> <ROCS_RefTversky>
0.179 

> <ROCS_RefColorTversky>
0.178 

> <ROCS_RefTverskyCombo>
0.357 

> <ROCS_FitTversky>
1.320 

> <ROCS_FitColorTversky>
0.633 

> <ROCS_FitTverskyCombo>
1.953 

> <ROCS_ColorScore>
-5.171

> <ROCS_Overlap>
1434.792

> <ROCS_Rank>
70                  

$$$$
untitled-dbase-1186_5
  -OEChem-02092407103D

 22 23  0     0  0  0  0  0  0999 V2000
    7.8282   10.3445   24.4096 C   0  0  0  0  0  0  0  0  0  0  0  0
    9.1470    9.8832   24.4771 C   0  0  0  0  0  0  0  0  0  0  0  0
    7.5002   11.4990   23.6848 C   0  0  0  0  0  0  0  0  0  0  0  0
   10.1863   10.5553   23.8255 C   0  0  0  0  0  0  0  0  0  0  0  0
    8.5326   12.1832   23.0265 C   0  0  0  0  0  0  0  0  0  0  0  0
    9.8252   11.6968   23.1160 C   0  0  0  0  0  0  0  0  0  0  0  0
    8.6664   13.3310   22.2214 C   0  0  0  0  0  0  0  0  0  0  0  0
    7.6101   14.2607   21.7867 C   0  0  0  0  0  0  0  0  0  0  0  0
    9.9303   13.5425   21.8424 N   0  0  0  0  0  0  0  0  0  0  0  0
    5.6068   15.7848   22.6321 N   0  0  0  0  0  0  0  0  0  0  0  0
    6.9568   14.3825   24.3136 O   0  0  0  0  0  0  0  0  0  0  0  0
    8.0324   16.3967   23.2312 O   0  0  0  0  0  0  0  0  0  0  0  0
   10.6615   12.5065   22.4104 O   0  0  0  0  0  0  0  0  0  0  0  0
    7.1355   15.2574   23.1696 S   0  0  0  0  0  0  0  0  0  0  0  0
    7.0438    9.7984   24.9279 H   0  0  0  0  0  0  0  0  0  0  0  0
    9.3690    8.9845   25.0473 H   0  0  0  0  0  0  0  0  0  0  0  0
    6.4727   11.8457   23.6413 H   0  0  0  0  0  0  0  0  0  0  0  0
   11.2108   10.2064   23.8727 H   0  0  0  0  0  0  0  0  0  0  0  0
    6.7015   13.7488   21.4270 H   0  0  0  0  0  0  0  0  0  0  0  0
    7.9373   14.9473   20.9875 H   0  0  0  0  0  0  0  0  0  0  0  0
    4.7760   15.3990   23.0975 H   0  0  0  0  0  0  0  0  0  0  0  0
    5.5087   16.7707   22.3601 H   0  0  0  0  0  0  0  0  0  0  0  0
  1  2  1  0  0  0  0
  1  3  2  0  0  0  0
  2  4  2  0  0  0  0
  3  5  1  0  0  0  0
  4  6  1  0  0  0  0
  5  6  2  0  0  0  0
  5  7  1  0  0  0  0
  6 13  1  0  0  0  0
  7  8  1  0  0  0  0
  7  9  2  0  0  0  0
  8 14  1  0  0  0  0
  9 13  1  0  0  0  0
 10 14  1  0  0  0  0
 11 14  2  0  0  0  0
 12 14  2  0  0  0  0
  1 15  1  0  0  0  0
  2 16  1  0  0  0  0
  3 17  1  0  0  0  0
  4 18  1  0  0  0  0
  8 19  1  0  0  0  0
  8 20  1  0  0  0  0
 10 21  1  0  0  0  0
 10 22  1  0  0  0  0
M  END
> <Mol Weight>
212,22

> <Formula>
C8H8N2O3S

> <ID>
EN300-50288

> <name>
Sulfonamides

> <LogP>
0,11

> <ROCS_ShapeQuery>
x0310_0A_x0719_0A_x1080_0A_x0739_0A_x0929_0A_x0526_0A_x0911_0A

> <ROCS_TanimotoCombo>
0.347 

> <ROCS_ShapeTanimoto>
0.178 

> <ROCS_ColorTanimoto>
0.169 

> <ROCS_RefTversky>
0.170 

> <ROCS_RefColorTversky>
0.181 

> <ROCS_RefTverskyCombo>
0.351 

> <ROCS_FitTversky>
1.354 

> <ROCS_FitColorTversky>
0.726 

> <ROCS_FitTverskyCombo>
2.080 

> <ROCS_ColorScore>
-5.253

> <ROCS_Overlap>
1363.428

> <ROCS_Rank>
71                  

$$$$
untitled-dbase-2401_1603
  -OEChem-02092407103D

 36 37  0     1  0  0  0  0  0999 V2000
    6.6950   13.7753   23.0163 C   0  0  0  0  0  0  0  0  0  0  0  0
    8.9023   10.1829   23.3535 C   0  0  0  0  0  0  0  0  0  0  0  0
    3.7393   15.4074   21.6399 C   0  0  0  0  0  0  0  0  0  0  0  0
    9.7191   11.4657   23.0965 C   0  0  0  0  0  0  0  0  0  0  0  0
    8.1274   10.9633   24.4347 C   0  0  0  0  0  0  0  0  0  0  0  0
    3.2061   14.1450   20.9542 C   0  0  0  0  0  0  0  0  0  0  0  0
    5.2647   15.4559   21.7100 C   0  0  0  0  0  0  0  0  0  0  0  0
    5.4931   13.0959   20.9810 C   0  0  0  0  0  0  0  0  0  0  0  0
    8.5690   12.2690   23.7401 C   0  0  0  0  0  0  0  0  0  0  0  0
    4.2810   13.4552   20.1179 C   0  0  1  0  0  0  0  0  0  0  0  0
    5.8225   14.1249   21.9729 N   0  0  0  0  0  0  0  0  0  0  0  0
    2.0998   12.6041   18.8717 N   0  0  0  0  0  0  0  0  0  0  0  0
    7.5840   12.7412   22.7459 N   0  0  0  0  0  0  0  0  0  0  0  0
    6.6877   14.3517   24.1097 O   0  0  0  0  0  0  0  0  0  0  0  0
    4.4180   11.7774   18.1239 O   0  0  0  0  0  0  0  0  0  0  0  0
    3.4686   10.9841   20.3273 O   0  0  0  0  0  0  0  0  0  0  0  0
    3.6332   12.0133   19.3197 S   0  0  0  0  0  0  0  0  0  0  0  0
    8.3072    9.8189   22.5091 H   0  0  0  0  0  0  0  0  0  0  0  0
    9.4988    9.3503   23.7506 H   0  0  0  0  0  0  0  0  0  0  0  0
    3.3691   16.2960   21.1042 H   0  0  0  0  0  0  0  0  0  0  0  0
    3.3256   15.4765   22.6592 H   0  0  0  0  0  0  0  0  0  0  0  0
   10.6857   11.5197   23.6139 H   0  0  0  0  0  0  0  0  0  0  0  0
    9.8861   11.6738   22.0284 H   0  0  0  0  0  0  0  0  0  0  0  0
    7.0427   10.7763   24.4192 H   0  0  0  0  0  0  0  0  0  0  0  0
    8.4866   10.8262   25.4629 H   0  0  0  0  0  0  0  0  0  0  0  0
    2.7977   13.4658   21.7054 H   0  0  0  0  0  0  0  0  0  0  0  0
    2.3816   14.4353   20.2966 H   0  0  0  0  0  0  0  0  0  0  0  0
    5.6828   15.8053   20.7566 H   0  0  0  0  0  0  0  0  0  0  0  0
    5.5733   16.1726   22.4799 H   0  0  0  0  0  0  0  0  0  0  0  0
    5.3619   12.1000   21.4321 H   0  0  0  0  0  0  0  0  0  0  0  0
    6.3838   12.9937   20.3323 H   0  0  0  0  0  0  0  0  0  0  0  0
    8.9003   13.0398   24.4231 H   0  0  0  0  0  0  0  0  0  0  0  0
    4.5895   14.1124   19.3108 H   0  0  0  0  0  0  0  0  0  0  0  0
    1.9270   12.7833   17.8749 H   0  0  0  0  0  0  0  0  0  0  0  0
    1.2805   12.2431   19.3756 H   0  0  0  0  0  0  0  0  0  0  0  0
    7.5736   12.2856   21.8503 H   0  0  0  0  0  0  0  0  0  0  0  0
  1 11  1  0  0  0  0
  1 13  1  0  0  0  0
  1 14  2  0  0  0  0
  2  4  1  0  0  0  0
  2  5  1  0  0  0  0
  3  6  1  0  0  0  0
  3  7  1  0  0  0  0
  4  9  1  0  0  0  0
  5  9  1  0  0  0  0
  6 10  1  0  0  0  0
  7 11  1  0  0  0  0
  8 10  1  0  0  0  0
  8 11  1  0  0  0  0
  9 13  1  0  0  0  0
 10 17  1  0  0  0  0
 12 17  1  0  0  0  0
 15 17  2  0  0  0  0
 16 17  2  0  0  0  0
  2 18  1  0  0  0  0
  2 19  1  0  0  0  0
  3 20  1  0  0  0  0
  3 21  1  0  0  0  0
  4 22  1  0  0  0  0
  4 23  1  0  0  0  0
  5 24  1  0  0  0  0
  5 25  1  0  0  0  0
  6 26  1  0  0  0  0
  6 27  1  0  0  0  0
  7 28  1  0  0  0  0
  7 29  1  0  0  0  0
  8 30  1  0  0  0  0
  8 31  1  0  0  0  0
  9 32  1  0  0  0  0
 10 33  1  0  0  0  0
 12 34  1  0  0  0  0
 12 35  1  0  0  0  0
 13 36  1  0  0  0  0
M  END
> <Mol Weight>
261,34

> <Formula>
C10H19N3O3S

> <ID>
EN300-396127

> <name>
Sulfonamides

> <LogP>
-0,72

> <ROCS_ShapeQuery>
x0310_0A_x0719_0A_x1080_0A_x0739_0A_x0929_0A_x0526_0A_x0911_0A

> <ROCS_TanimotoCombo>
0.346 

> <ROCS_ShapeTanimoto>
0.219 

> <ROCS_ColorTanimoto>
0.127 

> <ROCS_RefTversky>
0.204 

> <ROCS_RefColorTversky>
0.144 

> <ROCS_RefTverskyCombo>
0.349 

> <ROCS_FitTversky>
1.496 

> <ROCS_FitColorTversky>
0.514 

> <ROCS_FitTverskyCombo>
2.010 

> <ROCS_ColorScore>
-4.195

> <ROCS_Overlap>
1638.128

> <ROCS_Rank>
72                  

$$$$
untitled-dbase-2518_18
  -OEChem-02092407103D

 28 29  0     0  0  0  0  0  0999 V2000
    3.7170   12.1948   20.5631 C   0  0  0  0  0  0  0  0  0  0  0  0
    4.1440   10.8877   18.5765 C   0  0  0  0  0  0  0  0  0  0  0  0
    2.5235   12.6528   20.0052 C   0  0  0  0  0  0  0  0  0  0  0  0
    2.9504   11.3457   18.0186 C   0  0  0  0  0  0  0  0  0  0  0  0
    6.9011   13.1213   21.0680 C   0  0  0  0  0  0  0  0  0  0  0  0
    4.5273   11.3122   19.8487 C   0  0  0  0  0  0  0  0  0  0  0  0
    2.1402   12.2283   18.7330 C   0  0  0  0  0  0  0  0  0  0  0  0
    6.4909   11.8332   21.3413 C   0  0  0  0  0  0  0  0  0  0  0  0
    7.5400   13.0093   23.1630 C   0  0  0  0  0  0  0  0  0  0  0  0
    5.8039   10.8229   20.4446 C   0  0  0  0  0  0  0  0  0  0  0  0
    7.5025   13.7974   22.1115 N   0  0  0  0  0  0  0  0  0  0  0  0
    8.0671   13.3617   24.3657 N   0  0  0  0  0  0  0  0  0  0  0  0
   -0.4474   11.6063   18.5843 N   0  0  0  0  0  0  0  0  0  0  0  0
    0.3040   14.0711   18.6582 O   0  0  0  0  0  0  0  0  0  0  0  0
    0.7467   12.7088   16.5855 O   0  0  0  0  0  0  0  0  0  0  0  0
    6.8702   11.4415   22.9673 S   0  0  0  0  0  0  0  0  0  0  0  0
    0.6452   12.7997   18.0354 S   0  0  0  0  0  0  0  0  0  0  0  0
    4.0077   12.5312   21.5547 H   0  0  0  0  0  0  0  0  0  0  0  0
    4.7692   10.2006   18.0124 H   0  0  0  0  0  0  0  0  0  0  0  0
    1.8998   13.3406   20.5700 H   0  0  0  0  0  0  0  0  0  0  0  0
    2.6616   11.0089   17.0265 H   0  0  0  0  0  0  0  0  0  0  0  0
    6.7823   13.6231   20.1168 H   0  0  0  0  0  0  0  0  0  0  0  0
    5.6323    9.8951   21.0183 H   0  0  0  0  0  0  0  0  0  0  0  0
    6.5075   10.5132   19.6518 H   0  0  0  0  0  0  0  0  0  0  0  0
    8.0331   12.7314   25.1742 H   0  0  0  0  0  0  0  0  0  0  0  0
    8.4336   14.3041   24.5376 H   0  0  0  0  0  0  0  0  0  0  0  0
   -1.1225   11.8693   19.3127 H   0  0  0  0  0  0  0  0  0  0  0  0
   -0.8176   10.9388   17.8967 H   0  0  0  0  0  0  0  0  0  0  0  0
  1  3  2  0  0  0  0
  1  6  1  0  0  0  0
  2  4  1  0  0  0  0
  2  6  2  0  0  0  0
  3  7  1  0  0  0  0
  4  7  2  0  0  0  0
  5  8  2  0  0  0  0
  5 11  1  0  0  0  0
  6 10  1  0  0  0  0
  7 17  1  0  0  0  0
  8 10  1  0  0  0  0
  8 16  1  0  0  0  0
  9 11  2  0  0  0  0
  9 12  1  0  0  0  0
  9 16  1  0  0  0  0
 13 17  1  0  0  0  0
 14 17  2  0  0  0  0
 15 17  2  0  0  0  0
  1 18  1  0  0  0  0
  2 19  1  0  0  0  0
  3 20  1  0  0  0  0
  4 21  1  0  0  0  0
  5 22  1  0  0  0  0
 10 23  1  0  0  0  0
 10 24  1  0  0  0  0
 12 25  1  0  0  0  0
 12 26  1  0  0  0  0
 13 27  1  0  0  0  0
 13 28  1  0  0  0  0
M  END
> <Mol Weight>
269,34

> <Formula>
C10H11N3O2S2

> <ID>
EN300-12486

> <name>
Sulfonamides

> <LogP>
1,32

> <ROCS_ShapeQuery>
x0310_0A_x0719_0A_x1080_0A_x0739_0A_x0929_0A_x0526_0A_x0911_0A

> <ROCS_TanimotoCombo>
0.346 

> <ROCS_ShapeTanimoto>
0.205 

> <ROCS_ColorTanimoto>
0.141 

> <ROCS_RefTversky>
0.193 

> <ROCS_RefColorTversky>
0.162 

> <ROCS_RefTverskyCombo>
0.356 

> <ROCS_FitTversky>
1.407 

> <ROCS_FitColorTversky>
0.518 

> <ROCS_FitTverskyCombo>
1.925 

> <ROCS_ColorScore>
-4.729

> <ROCS_Overlap>
1550.459

> <ROCS_Rank>
73                  

$$$$
untitled-dbase-2280_28
  -OEChem-02092407103D

 26 26  0     0  0  0  0  0  0999 V2000
    9.9954   11.8407   23.7248 C   0  0  0  0  0  0  0  0  0  0  0  0
    7.5960   12.0907   23.8572 C   0  0  0  0  0  0  0  0  0  0  0  0
    9.8381   10.4863   23.4304 C   0  0  0  0  0  0  0  0  0  0  0  0
    7.4386   10.7363   23.5628 C   0  0  0  0  0  0  0  0  0  0  0  0
    8.8744   12.6428   23.9382 C   0  0  0  0  0  0  0  0  0  0  0  0
    8.5597    9.9342   23.3494 C   0  0  0  0  0  0  0  0  0  0  0  0
    9.0417   14.0909   24.2530 C   0  0  0  0  0  0  0  0  0  0  0  0
    7.8821   14.9633   23.7645 C   0  0  0  0  0  0  0  0  0  0  0  0
    8.3923    8.4864   23.0328 C   0  0  0  0  0  0  0  0  0  0  0  0
    6.0201   15.4081   21.9244 N   0  0  0  0  0  0  0  0  0  0  0  0
    8.5003   15.8043   21.3692 O   0  0  0  0  0  0  0  0  0  0  0  0
    7.6544   13.4402   21.6536 O   0  0  0  0  0  0  0  0  0  0  0  0
    9.5737    7.8263   22.8474 F   0  0  0  0  0  0  0  0  0  0  0  0
    7.7420    7.7852   24.0081 F   0  0  0  0  0  0  0  0  0  0  0  0
    7.6737    8.2781   21.8913 F   0  0  0  0  0  0  0  0  0  0  0  0
    7.6263   14.8450   22.0217 S   0  0  0  0  0  0  0  0  0  0  0  0
   10.9952   12.2622   23.7865 H   0  0  0  0  0  0  0  0  0  0  0  0
    6.7171   12.7088   24.0209 H   0  0  0  0  0  0  0  0  0  0  0  0
   10.7170    9.8693   23.2641 H   0  0  0  0  0  0  0  0  0  0  0  0
    6.4391   10.3141   23.5017 H   0  0  0  0  0  0  0  0  0  0  0  0
    9.9687   14.4636   23.7838 H   0  0  0  0  0  0  0  0  0  0  0  0
    9.1811   14.2495   25.3365 H   0  0  0  0  0  0  0  0  0  0  0  0
    6.9422   14.6457   24.2274 H   0  0  0  0  0  0  0  0  0  0  0  0
    8.0393   16.0213   23.9954 H   0  0  0  0  0  0  0  0  0  0  0  0
    5.2765   14.7979   22.2855 H   0  0  0  0  0  0  0  0  0  0  0  0
    5.8528   16.4079   22.0916 H   0  0  0  0  0  0  0  0  0  0  0  0
  1  3  2  0  0  0  0
  1  5  1  0  0  0  0
  2  4  1  0  0  0  0
  2  5  2  0  0  0  0
  3  6  1  0  0  0  0
  4  6  2  0  0  0  0
  5  7  1  0  0  0  0
  6  9  1  0  0  0  0
  7  8  1  0  0  0  0
  8 16  1  0  0  0  0
  9 13  1  0  0  0  0
  9 14  1  0  0  0  0
  9 15  1  0  0  0  0
 10 16  1  0  0  0  0
 11 16  2  0  0  0  0
 12 16  2  0  0  0  0
  1 17  1  0  0  0  0
  2 18  1  0  0  0  0
  3 19  1  0  0  0  0
  4 20  1  0  0  0  0
  7 21  1  0  0  0  0
  7 22  1  0  0  0  0
  8 23  1  0  0  0  0
  8 24  1  0  0  0  0
 10 25  1  0  0  0  0
 10 26  1  0  0  0  0
M  END
> <Mol Weight>
253,24

> <Formula>
C9H10F3NO2S

> <ID>
EN300-283872

> <name>
Sulfonamides

> <LogP>
1,51

> <ROCS_ShapeQuery>
x0310_0A_x0719_0A_x1080_0A_x0739_0A_x0929_0A_x0526_0A_x0911_0A

> <ROCS_TanimotoCombo>
0.345 

> <ROCS_ShapeTanimoto>
0.172 

> <ROCS_ColorTanimoto>
0.173 

> <ROCS_RefTversky>
0.166 

> <ROCS_RefColorTversky>
0.175 

> <ROCS_RefTverskyCombo>
0.341 

> <ROCS_FitTversky>
1.251 

> <ROCS_FitColorTversky>
0.953 

> <ROCS_FitTverskyCombo>
2.203 

> <ROCS_ColorScore>
-5.065

> <ROCS_Overlap>
1329.497

> <ROCS_Rank>
74                  

$$$$
untitled-dbase-2640_67
  -OEChem-02092407103D

 32 33  0     0  0  0  0  0  0999 V2000
    6.3778   13.1699   21.3531 C   0  0  0  0  0  0  0  0  0  0  0  0
    7.1805   11.0034   22.0597 C   0  0  0  0  0  0  0  0  0  0  0  0
    6.8436   13.7304   22.5424 C   0  0  0  0  0  0  0  0  0  0  0  0
    7.6463   11.5639   23.2490 C   0  0  0  0  0  0  0  0  0  0  0  0
    4.6516   12.7206   18.6915 C   0  0  0  0  0  0  0  0  0  0  0  0
    3.7145   10.8721   19.9333 C   0  0  0  0  0  0  0  0  0  0  0  0
    3.3739   13.0807   18.2633 C   0  0  0  0  0  0  0  0  0  0  0  0
    2.4368   11.2322   19.5051 C   0  0  0  0  0  0  0  0  0  0  0  0
    6.5462   11.8064   21.1118 C   0  0  0  0  0  0  0  0  0  0  0  0
    4.8220   11.6163   19.5265 C   0  0  0  0  0  0  0  0  0  0  0  0
    7.4778   12.9274   23.4904 C   0  0  0  0  0  0  0  0  0  0  0  0
    2.2665   12.3366   18.6701 C   0  0  0  0  0  0  0  0  0  0  0  0
    7.7266   14.8744   24.8331 C   0  0  0  0  0  0  0  0  0  0  0  0
   -0.2816   11.5876   18.8960 N   0  0  0  0  0  0  0  0  0  0  0  0
    0.3374   14.0831   18.7089 O   0  0  0  0  0  0  0  0  0  0  0  0
    0.5920   12.5951   16.6918 O   0  0  0  0  0  0  0  0  0  0  0  0
    6.0904   11.2589   19.9521 O   0  0  0  0  0  0  0  0  0  0  0  0
    7.9322   13.4743   24.6510 O   0  0  0  0  0  0  0  0  0  0  0  0
    0.6669   12.7868   18.1334 S   0  0  0  0  0  0  0  0  0  0  0  0
    5.8824   13.7999   20.6195 H   0  0  0  0  0  0  0  0  0  0  0  0
    7.3136    9.9405   21.8773 H   0  0  0  0  0  0  0  0  0  0  0  0
    6.7109   14.7933   22.7245 H   0  0  0  0  0  0  0  0  0  0  0  0
    8.1393   10.9335   23.9839 H   0  0  0  0  0  0  0  0  0  0  0  0
    5.5105   13.3046   18.3719 H   0  0  0  0  0  0  0  0  0  0  0  0
    3.8409   10.0108   20.5836 H   0  0  0  0  0  0  0  0  0  0  0  0
    3.2527   13.9427   17.6130 H   0  0  0  0  0  0  0  0  0  0  0  0
    1.5809   10.6454   19.8276 H   0  0  0  0  0  0  0  0  0  0  0  0
    8.1359   15.1810   25.7988 H   0  0  0  0  0  0  0  0  0  0  0  0
    6.6570   15.0950   24.7921 H   0  0  0  0  0  0  0  0  0  0  0  0
    8.2391   15.4158   24.0344 H   0  0  0  0  0  0  0  0  0  0  0  0
   -0.8740   11.8718   19.6858 H   0  0  0  0  0  0  0  0  0  0  0  0
   -0.6976   10.8556   18.3074 H   0  0  0  0  0  0  0  0  0  0  0  0
  1  3  2  0  0  0  0
  1  9  1  0  0  0  0
  2  4  1  0  0  0  0
  2  9  2  0  0  0  0
  3 11  1  0  0  0  0
  4 11  2  0  0  0  0
  5  7  2  0  0  0  0
  5 10  1  0  0  0  0
  6  8  1  0  0  0  0
  6 10  2  0  0  0  0
  7 12  1  0  0  0  0
  8 12  2  0  0  0  0
  9 17  1  0  0  0  0
 10 17  1  0  0  0  0
 11 18  1  0  0  0  0
 12 19  1  0  0  0  0
 13 18  1  0  0  0  0
 14 19  1  0  0  0  0
 15 19  2  0  0  0  0
 16 19  2  0  0  0  0
  1 20  1  0  0  0  0
  2 21  1  0  0  0  0
  3 22  1  0  0  0  0
  4 23  1  0  0  0  0
  5 24  1  0  0  0  0
  6 25  1  0  0  0  0
  7 26  1  0  0  0  0
  8 27  1  0  0  0  0
 13 28  1  0  0  0  0
 13 29  1  0  0  0  0
 13 30  1  0  0  0  0
 14 31  1  0  0  0  0
 14 32  1  0  0  0  0
M  END
> <Mol Weight>
279,31

> <Formula>
C13H13NO4S

> <ID>
EN300-84139

> <name>
Sulfonamides

> <LogP>
1,92

> <ROCS_ShapeQuery>
x0310_0A_x0719_0A_x1080_0A_x0739_0A_x0929_0A_x0526_0A_x0911_0A

> <ROCS_TanimotoCombo>
0.345 

> <ROCS_ShapeTanimoto>
0.226 

> <ROCS_ColorTanimoto>
0.119 

> <ROCS_RefTversky>
0.212 

> <ROCS_RefColorTversky>
0.136 

> <ROCS_RefTverskyCombo>
0.348 

> <ROCS_FitTversky>
1.407 

> <ROCS_FitColorTversky>
0.484 

> <ROCS_FitTverskyCombo>
1.891 

> <ROCS_ColorScore>
-3.952

> <ROCS_Overlap>
1703.147

> <ROCS_Rank>
75                  

$$$$
untitled-dbase-1213_18
  -OEChem-02092407103D

 26 26  0     0  0  0  0  0  0999 V2000
   10.1157   12.0114   23.2164 C   0  0  0  0  0  0  0  0  0  0  0  0
    7.9992   12.1156   24.6007 C   0  0  0  0  0  0  0  0  0  0  0  0
    9.6057   10.7459   22.5293 C   0  0  0  0  0  0  0  0  0  0  0  0
    7.4866   10.8504   23.9153 C   0  0  0  0  0  0  0  0  0  0  0  0
    8.9826   12.9136   23.7301 C   0  0  0  0  0  0  0  0  0  0  0  0
    8.6309    9.9870   23.4131 C   0  0  0  0  0  0  0  0  0  0  0  0
    8.2664   13.6289   22.5812 C   0  0  0  0  0  0  0  0  0  0  0  0
    6.2806   15.2453   21.8775 N   0  0  0  0  0  0  0  0  0  0  0  0
    6.6348   14.6420   24.3528 O   0  0  0  0  0  0  0  0  0  0  0  0
    8.2856   16.1678   23.1987 O   0  0  0  0  0  0  0  0  0  0  0  0
    8.1312    8.9278   22.7288 F   0  0  0  0  0  0  0  0  0  0  0  0
    9.3018    9.4741   24.4778 F   0  0  0  0  0  0  0  0  0  0  0  0
    7.3795   15.0300   23.1647 S   0  0  0  0  0  0  0  0  0  0  0  0
   10.7749   11.7268   24.0528 H   0  0  0  0  0  0  0  0  0  0  0  0
   10.7483   12.5752   22.5095 H   0  0  0  0  0  0  0  0  0  0  0  0
    7.1397   12.7530   24.8701 H   0  0  0  0  0  0  0  0  0  0  0  0
    8.4821   11.8396   25.5525 H   0  0  0  0  0  0  0  0  0  0  0  0
    9.1142   11.0163   21.5880 H   0  0  0  0  0  0  0  0  0  0  0  0
   10.4495   10.0959   22.2688 H   0  0  0  0  0  0  0  0  0  0  0  0
    6.8669   10.2727   24.6114 H   0  0  0  0  0  0  0  0  0  0  0  0
    6.8405   11.1288   23.0751 H   0  0  0  0  0  0  0  0  0  0  0  0
    9.4410   13.6950   24.3721 H   0  0  0  0  0  0  0  0  0  0  0  0
    7.5528   12.9581   22.1070 H   0  0  0  0  0  0  0  0  0  0  0  0
    8.9888   13.9758   21.8453 H   0  0  0  0  0  0  0  0  0  0  0  0
    6.6532   15.5920   20.9850 H   0  0  0  0  0  0  0  0  0  0  0  0
    5.5289   14.5530   21.7713 H   0  0  0  0  0  0  0  0  0  0  0  0
  1  3  1  0  0  0  0
  1  5  1  0  0  0  0
  2  4  1  0  0  0  0
  2  5  1  0  0  0  0
  3  6  1  0  0  0  0
  4  6  1  0  0  0  0
  5  7  1  0  0  0  0
  6 11  1  0  0  0  0
  6 12  1  0  0  0  0
  7 13  1  0  0  0  0
  8 13  1  0  0  0  0
  9 13  2  0  0  0  0
 10 13  2  0  0  0  0
  1 14  1  0  0  0  0
  1 15  1  0  0  0  0
  2 16  1  0  0  0  0
  2 17  1  0  0  0  0
  3 18  1  0  0  0  0
  3 19  1  0  0  0  0
  4 20  1  0  0  0  0
  4 21  1  0  0  0  0
  5 22  1  0  0  0  0
  7 23  1  0  0  0  0
  7 24  1  0  0  0  0
  8 25  1  0  0  0  0
  8 26  1  0  0  0  0
M  END
> <Mol Weight>
213,24

> <Formula>
C7H13F2NO2S

> <ID>
EN300-252322

> <name>
Sulfonamides

> <LogP>
0,22

> <ROCS_ShapeQuery>
x0310_0A_x0719_0A_x1080_0A_x0739_0A_x0929_0A_x0526_0A_x0911_0A

> <ROCS_TanimotoCombo>
0.345 

> <ROCS_ShapeTanimoto>
0.179 

> <ROCS_ColorTanimoto>
0.166 

> <ROCS_RefTversky>
0.169 

> <ROCS_RefColorTversky>
0.168 

> <ROCS_RefTverskyCombo>
0.338 

> <ROCS_FitTversky>
1.468 

> <ROCS_FitColorTversky>
0.918 

> <ROCS_FitTverskyCombo>
2.386 

> <ROCS_ColorScore>
-4.879

> <ROCS_Overlap>
1354.408

> <ROCS_Rank>
76                  

$$$$
untitled-dbase-2073_62
  -OEChem-02092407103D

 30 30  0     0  0  0  0  0  0999 V2000
    8.2111   12.1946   24.7312 C   0  0  0  0  0  0  0  0  0  0  0  0
    9.9361   11.9773   22.8670 C   0  0  0  0  0  0  0  0  0  0  0  0
    8.3352   10.6685   24.7130 C   0  0  0  0  0  0  0  0  0  0  0  0
    9.3352   10.6589   22.3775 C   0  0  0  0  0  0  0  0  0  0  0  0
    8.9249   12.9014   23.5585 C   0  0  0  0  0  0  0  0  0  0  0  0
    8.2605   10.1097   23.3062 C   0  0  0  0  0  0  0  0  0  0  0  0
   10.6700   14.4438   23.2264 C   0  0  0  0  0  0  0  0  0  0  0  0
    7.9164   13.4770   22.5567 C   0  0  0  0  0  0  0  0  0  0  0  0
    6.1982   15.3732   21.8474 N   0  0  0  0  0  0  0  0  0  0  0  0
    6.4537   14.7273   24.3242 O   0  0  0  0  0  0  0  0  0  0  0  0
    8.3175   15.9849   23.1708 O   0  0  0  0  0  0  0  0  0  0  0  0
    9.6436   14.0147   24.1054 O   0  0  0  0  0  0  0  0  0  0  0  0
    7.0339   10.3870   22.7895 F   0  0  0  0  0  0  0  0  0  0  0  0
    8.3514    8.7562   23.3470 F   0  0  0  0  0  0  0  0  0  0  0  0
    7.2505   14.9961   23.1366 S   0  0  0  0  0  0  0  0  0  0  0  0
    7.1393   12.4656   24.7289 H   0  0  0  0  0  0  0  0  0  0  0  0
    8.6188   12.5599   25.6912 H   0  0  0  0  0  0  0  0  0  0  0  0
   10.7654   11.7390   23.5566 H   0  0  0  0  0  0  0  0  0  0  0  0
   10.3921   12.5009   22.0073 H   0  0  0  0  0  0  0  0  0  0  0  0
    9.2785   10.3602   25.1851 H   0  0  0  0  0  0  0  0  0  0  0  0
    7.5316   10.2346   25.3234 H   0  0  0  0  0  0  0  0  0  0  0  0
    8.9048   10.8080   21.3730 H   0  0  0  0  0  0  0  0  0  0  0  0
   10.1300    9.9041   22.2501 H   0  0  0  0  0  0  0  0  0  0  0  0
   11.1991   15.2913   23.6690 H   0  0  0  0  0  0  0  0  0  0  0  0
   10.2323   14.7341   22.2679 H   0  0  0  0  0  0  0  0  0  0  0  0
   11.3713   13.6207   23.0701 H   0  0  0  0  0  0  0  0  0  0  0  0
    7.0911   12.7830   22.4161 H   0  0  0  0  0  0  0  0  0  0  0  0
    8.4036   13.6684   21.6037 H   0  0  0  0  0  0  0  0  0  0  0  0
    5.1879   15.2989   22.0191 H   0  0  0  0  0  0  0  0  0  0  0  0
    6.4574   16.1552   21.2335 H   0  0  0  0  0  0  0  0  0  0  0  0
  1  3  1  0  0  0  0
  1  5  1  0  0  0  0
  2  4  1  0  0  0  0
  2  5  1  0  0  0  0
  3  6  1  0  0  0  0
  4  6  1  0  0  0  0
  5  8  1  0  0  0  0
  5 12  1  0  0  0  0
  6 13  1  0  0  0  0
  6 14  1  0  0  0  0
  7 12  1  0  0  0  0
  8 15  1  0  0  0  0
  9 15  1  0  0  0  0
 10 15  2  0  0  0  0
 11 15  2  0  0  0  0
  1 16  1  0  0  0  0
  1 17  1  0  0  0  0
  2 18  1  0  0  0  0
  2 19  1  0  0  0  0
  3 20  1  0  0  0  0
  3 21  1  0  0  0  0
  4 22  1  0  0  0  0
  4 23  1  0  0  0  0
  7 24  1  0  0  0  0
  7 25  1  0  0  0  0
  7 26  1  0  0  0  0
  8 27  1  0  0  0  0
  8 28  1  0  0  0  0
  9 29  1  0  0  0  0
  9 30  1  0  0  0  0
M  END
> <Mol Weight>
243,27

> <Formula>
C8H15F2NO3S

> <ID>
EN300-27151259

> <name>
Sulfonamides

> <LogP>
-0,22

> <ROCS_ShapeQuery>
x0310_0A_x0719_0A_x1080_0A_x0739_0A_x0929_0A_x0526_0A_x0911_0A

> <ROCS_TanimotoCombo>
0.345 

> <ROCS_ShapeTanimoto>
0.188 

> <ROCS_ColorTanimoto>
0.157 

> <ROCS_RefTversky>
0.178 

> <ROCS_RefColorTversky>
0.165 

> <ROCS_RefTverskyCombo>
0.343 

> <ROCS_FitTversky>
1.404 

> <ROCS_FitColorTversky>
0.763 

> <ROCS_FitTverskyCombo>
2.167 

> <ROCS_ColorScore>
-4.783

> <ROCS_Overlap>
1426.773

> <ROCS_Rank>
77                  

$$$$
untitled-dbase-1212_51
  -OEChem-02092407103D

 26 26  0     0  0  0  0  0  0999 V2000
    8.0166   10.4849   23.7644 C   0  0  0  0  0  0  0  0  0  0  0  0
    9.5046   10.4037   23.4798 C   0  0  0  0  0  0  0  0  0  0  0  0
    7.8531   11.8924   24.3195 C   0  0  0  0  0  0  0  0  0  0  0  0
    9.8219   11.7572   22.8557 C   0  0  0  0  0  0  0  0  0  0  0  0
    8.8457   12.7614   23.5143 C   0  0  0  0  0  0  0  0  0  0  0  0
    8.1082   13.5717   22.4389 C   0  0  0  0  0  0  0  0  0  0  0  0
    9.5928   13.7257   24.4439 C   0  0  0  0  0  0  0  0  0  0  0  0
    6.1836   15.3281   21.9271 N   0  0  0  0  0  0  0  0  0  0  0  0
    6.6390   14.5850   24.3472 O   0  0  0  0  0  0  0  0  0  0  0  0
    8.3090   16.0721   23.1703 O   0  0  0  0  0  0  0  0  0  0  0  0
   10.6932   13.1025   24.9044 F   0  0  0  0  0  0  0  0  0  0  0  0
    8.7996   13.9995   25.4959 F   0  0  0  0  0  0  0  0  0  0  0  0
    7.3383   14.9886   23.1365 S   0  0  0  0  0  0  0  0  0  0  0  0
    7.4201   10.3384   22.8724 H   0  0  0  0  0  0  0  0  0  0  0  0
    7.7323    9.7444   24.5043 H   0  0  0  0  0  0  0  0  0  0  0  0
   10.0601   10.2679   24.4042 H   0  0  0  0  0  0  0  0  0  0  0  0
    9.7503    9.5891   22.8062 H   0  0  0  0  0  0  0  0  0  0  0  0
    6.8242   12.2315   24.1463 H   0  0  0  0  0  0  0  0  0  0  0  0
    8.0349   11.9330   25.3980 H   0  0  0  0  0  0  0  0  0  0  0  0
   10.8728   12.0378   22.9952 H   0  0  0  0  0  0  0  0  0  0  0  0
    9.6400   11.7060   21.7732 H   0  0  0  0  0  0  0  0  0  0  0  0
    7.3333   12.9634   21.9786 H   0  0  0  0  0  0  0  0  0  0  0  0
    8.8093   13.9117   21.6808 H   0  0  0  0  0  0  0  0  0  0  0  0
    9.8623   14.6361   23.9250 H   0  0  0  0  0  0  0  0  0  0  0  0
    6.5256   15.6972   21.0313 H   0  0  0  0  0  0  0  0  0  0  0  0
    5.3882   14.6845   21.8331 H   0  0  0  0  0  0  0  0  0  0  0  0
  1  2  1  0  0  0  0
  1  3  1  0  0  0  0
  2  4  1  0  0  0  0
  3  5  1  0  0  0  0
  4  5  1  0  0  0  0
  5  6  1  0  0  0  0
  5  7  1  0  0  0  0
  6 13  1  0  0  0  0
  7 11  1  0  0  0  0
  7 12  1  0  0  0  0
  8 13  1  0  0  0  0
  9 13  2  0  0  0  0
 10 13  2  0  0  0  0
  1 14  1  0  0  0  0
  1 15  1  0  0  0  0
  2 16  1  0  0  0  0
  2 17  1  0  0  0  0
  3 18  1  0  0  0  0
  3 19  1  0  0  0  0
  4 20  1  0  0  0  0
  4 21  1  0  0  0  0
  6 22  1  0  0  0  0
  6 23  1  0  0  0  0
  7 24  1  0  0  0  0
  8 25  1  0  0  0  0
  8 26  1  0  0  0  0
M  END
> <Mol Weight>
213,24

> <Formula>
C7H13F2NO2S

> <ID>
EN300-658706

> <name>
Sulfonamides

> <LogP>
0,54

> <ROCS_ShapeQuery>
x0310_0A_x0719_0A_x1080_0A_x0739_0A_x0929_0A_x0526_0A_x0911_0A

> <ROCS_TanimotoCombo>
0.344 

> <ROCS_ShapeTanimoto>
0.177 

> <ROCS_ColorTanimoto>
0.167 

> <ROCS_RefTversky>
0.168 

> <ROCS_RefColorTversky>
0.169 

> <ROCS_RefTverskyCombo>
0.337 

> <ROCS_FitTversky>
1.441 

> <ROCS_FitColorTversky>
0.923 

> <ROCS_FitTverskyCombo>
2.364 

> <ROCS_ColorScore>
-4.906

> <ROCS_Overlap>
1343.672

> <ROCS_Rank>
78                  

$$$$
untitled-dbase-2798_21
  -OEChem-02092407103D

 32 33  0     0  0  0  0  0  0999 V2000
    7.0451   10.7683   21.1302 C   0  0  0  0  0  0  0  0  0  0  0  0
    6.0181   11.0435   20.2274 C   0  0  0  0  0  0  0  0  0  0  0  0
    5.4474   13.0281   21.4816 C   0  0  0  0  0  0  0  0  0  0  0  0
   10.2435   11.1987   24.0789 C   0  0  0  0  0  0  0  0  0  0  0  0
    7.2732   11.6230   22.2088 C   0  0  0  0  0  0  0  0  0  0  0  0
    6.4744   12.7529   22.3844 C   0  0  0  0  0  0  0  0  0  0  0  0
    5.2192   12.1734   20.4031 C   0  0  0  0  0  0  0  0  0  0  0  0
    9.2446   10.4833   24.7661 C   0  0  0  0  0  0  0  0  0  0  0  0
    9.5966   11.7334   22.9917 C   0  0  0  0  0  0  0  0  0  0  0  0
    9.3911    9.7096   26.0103 C   0  0  0  0  0  0  0  0  0  0  0  0
   10.1034   12.5818   21.8953 C   0  0  0  0  0  0  0  0  0  0  0  0
    8.0536   10.5552   24.1658 N   0  0  0  0  0  0  0  0  0  0  0  0
    8.3000   11.3221   23.0901 N   0  0  0  0  0  0  0  0  0  0  0  0
    2.6307   11.6838   19.9975 N   0  0  0  0  0  0  0  0  0  0  0  0
    6.6821   13.6447   23.4749 N   0  3  0  0  0  0  0  0  0  0  0  0
    5.9370   14.6456   23.5872 O   0  5  0  0  0  0  0  0  0  0  0  0
    7.6039   13.4006   24.2877 O   0  0  0  0  0  0  0  0  0  0  0  0
    3.6579   13.9465   19.3115 O   0  0  0  0  0  0  0  0  0  0  0  0
    4.2505   11.8763   18.0035 O   0  0  0  0  0  0  0  0  0  0  0  0
    3.9341   12.5173   19.2723 S   0  0  0  0  0  0  0  0  0  0  0  0
    7.6591    9.8836   20.9798 H   0  0  0  0  0  0  0  0  0  0  0  0
    5.8492   10.3714   19.3904 H   0  0  0  0  0  0  0  0  0  0  0  0
    4.8224   13.9086   21.6152 H   0  0  0  0  0  0  0  0  0  0  0  0
   11.2872   11.3106   24.3355 H   0  0  0  0  0  0  0  0  0  0  0  0
    9.2069   10.3391   26.8979 H   0  0  0  0  0  0  0  0  0  0  0  0
    8.6901    8.8570   26.0566 H   0  0  0  0  0  0  0  0  0  0  0  0
   10.4015    9.2752   26.1151 H   0  0  0  0  0  0  0  0  0  0  0  0
   10.4642   11.9690   21.0530 H   0  0  0  0  0  0  0  0  0  0  0  0
    9.3271   13.2625   21.5061 H   0  0  0  0  0  0  0  0  0  0  0  0
   10.9374   13.2262   22.2224 H   0  0  0  0  0  0  0  0  0  0  0  0
    1.8869   12.2405   20.4360 H   0  0  0  0  0  0  0  0  0  0  0  0
    2.2942   10.8262   19.5428 H   0  0  0  0  0  0  0  0  0  0  0  0
  1  2  2  0  0  0  0
  1  5  1  0  0  0  0
  2  7  1  0  0  0  0
  3  6  1  0  0  0  0
  3  7  2  0  0  0  0
  4  8  1  0  0  0  0
  4  9  2  0  0  0  0
  5  6  2  0  0  0  0
  5 13  1  0  0  0  0
  6 15  1  0  0  0  0
  7 20  1  0  0  0  0
  8 10  1  0  0  0  0
  8 12  2  0  0  0  0
  9 11  1  0  0  0  0
  9 13  1  0  0  0  0
 12 13  1  0  0  0  0
 14 20  1  0  0  0  0
 15 16  1  0  0  0  0
 15 17  2  0  0  0  0
 18 20  2  0  0  0  0
 19 20  2  0  0  0  0
  1 21  1  0  0  0  0
  2 22  1  0  0  0  0
  3 23  1  0  0  0  0
  4 24  1  0  0  0  0
 10 25  1  0  0  0  0
 10 26  1  0  0  0  0
 10 27  1  0  0  0  0
 11 28  1  0  0  0  0
 11 29  1  0  0  0  0
 11 30  1  0  0  0  0
 14 31  1  0  0  0  0
 14 32  1  0  0  0  0
M  CHG  2  15   1  16  -1
M  END
> <Mol Weight>
296,30

> <Formula>
C11H12N4O4S

> <ID>
EN300-01201

> <name>
Sulfonamides

> <LogP>
0,94

> <ROCS_ShapeQuery>
x0310_0A_x0719_0A_x1080_0A_x0739_0A_x0929_0A_x0526_0A_x0911_0A

> <ROCS_TanimotoCombo>
0.343 

> <ROCS_ShapeTanimoto>
0.204 

> <ROCS_ColorTanimoto>
0.139 

> <ROCS_RefTversky>
0.196 

> <ROCS_RefColorTversky>
0.161 

> <ROCS_RefTverskyCombo>
0.357 

> <ROCS_FitTversky>
1.237 

> <ROCS_FitColorTversky>
0.513 

> <ROCS_FitTverskyCombo>
1.750 

> <ROCS_ColorScore>
-4.682

> <ROCS_Overlap>
1574.183

> <ROCS_Rank>
79                  

$$$$
untitled-dbase-1724_437
  -OEChem-02092407103D

 30 30  0     0  0  0  0  0  0999 V2000
    9.2635    9.9925   24.2445 C   0  0  0  0  0  0  0  0  0  0  0  0
    7.9833   10.4622   24.5375 C   0  0  0  0  0  0  0  0  0  0  0  0
   10.1255   10.7594   23.4605 C   0  0  0  0  0  0  0  0  0  0  0  0
    7.5649   11.6990   24.0465 C   0  0  0  0  0  0  0  0  0  0  0  0
    9.7070   11.9962   22.9695 C   0  0  0  0  0  0  0  0  0  0  0  0
    8.4267   12.4659   23.2624 C   0  0  0  0  0  0  0  0  0  0  0  0
    7.9772   13.7963   22.7337 C   0  0  0  0  0  0  0  0  0  0  0  0
    5.4251   12.9938   20.2049 C   0  0  0  0  0  0  0  0  0  0  0  0
    6.0252   13.1543   21.5934 C   0  0  0  0  0  0  0  0  0  0  0  0
    3.9925   12.4938   20.2681 C   0  0  0  0  0  0  0  0  0  0  0  0
    2.0134   11.2618   18.9966 N   0  0  0  0  0  0  0  0  0  0  0  0
    2.7422   13.6188   18.2685 O   0  0  0  0  0  0  0  0  0  0  0  0
    4.2614   11.6525   17.8089 O   0  0  0  0  0  0  0  0  0  0  0  0
    7.3653   13.6084   21.4646 O   0  0  0  0  0  0  0  0  0  0  0  0
    3.2957   12.3323   18.6551 S   0  0  0  0  0  0  0  0  0  0  0  0
    9.5897    9.0301   24.6280 H   0  0  0  0  0  0  0  0  0  0  0  0
    7.3125    9.8657   25.1488 H   0  0  0  0  0  0  0  0  0  0  0  0
   11.1227   10.3945   23.2331 H   0  0  0  0  0  0  0  0  0  0  0  0
    6.5655   12.0569   24.2797 H   0  0  0  0  0  0  0  0  0  0  0  0
   10.3853   12.5868   22.3593 H   0  0  0  0  0  0  0  0  0  0  0  0
    7.2558   14.2641   23.4123 H   0  0  0  0  0  0  0  0  0  0  0  0
    8.8277   14.4778   22.6251 H   0  0  0  0  0  0  0  0  0  0  0  0
    5.4709   13.9522   19.6723 H   0  0  0  0  0  0  0  0  0  0  0  0
    6.0436   12.3050   19.6154 H   0  0  0  0  0  0  0  0  0  0  0  0
    6.0310   12.1997   22.1291 H   0  0  0  0  0  0  0  0  0  0  0  0
    5.4634   13.8886   22.1795 H   0  0  0  0  0  0  0  0  0  0  0  0
    3.3530   13.1871   20.8223 H   0  0  0  0  0  0  0  0  0  0  0  0
    3.9353   11.5078   20.7389 H   0  0  0  0  0  0  0  0  0  0  0  0
    2.2505   10.2872   19.2192 H   0  0  0  0  0  0  0  0  0  0  0  0
    1.2159   11.6265   19.5320 H   0  0  0  0  0  0  0  0  0  0  0  0
  1  2  1  0  0  0  0
  1  3  2  0  0  0  0
  2  4  2  0  0  0  0
  3  5  1  0  0  0  0
  4  6  1  0  0  0  0
  5  6  2  0  0  0  0
  6  7  1  0  0  0  0
  7 14  1  0  0  0  0
  8  9  1  0  0  0  0
  8 10  1  0  0  0  0
  9 14  1  0  0  0  0
 10 15  1  0  0  0  0
 11 15  1  0  0  0  0
 12 15  2  0  0  0  0
 13 15  2  0  0  0  0
  1 16  1  0  0  0  0
  2 17  1  0  0  0  0
  3 18  1  0  0  0  0
  4 19  1  0  0  0  0
  5 20  1  0  0  0  0
  7 21  1  0  0  0  0
  7 22  1  0  0  0  0
  8 23  1  0  0  0  0
  8 24  1  0  0  0  0
  9 25  1  0  0  0  0
  9 26  1  0  0  0  0
 10 27  1  0  0  0  0
 10 28  1  0  0  0  0
 11 29  1  0  0  0  0
 11 30  1  0  0  0  0
M  END
> <Mol Weight>
229,29

> <Formula>
C10H15NO3S

> <ID>
EN300-206684

> <name>
Sulfonamides

> <LogP>
0,35

> <ROCS_ShapeQuery>
x0310_0A_x0719_0A_x1080_0A_x0739_0A_x0929_0A_x0526_0A_x0911_0A

> <ROCS_TanimotoCombo>
0.343 

> <ROCS_ShapeTanimoto>
0.207 

> <ROCS_ColorTanimoto>
0.136 

> <ROCS_RefTversky>
0.193 

> <ROCS_RefColorTversky>
0.145 

> <ROCS_RefTverskyCombo>
0.338 

> <ROCS_FitTversky>
1.547 

> <ROCS_FitColorTversky>
0.672 

> <ROCS_FitTverskyCombo>
2.219 

> <ROCS_ColorScore>
-4.214

> <ROCS_Overlap>
1545.990

> <ROCS_Rank>
80                  

$$$$
untitled-dbase-1314_1102
  -OEChem-02092407103D

 23 23  0     0  0  0  0  0  0999 V2000
    8.3132   10.1579   24.6807 C   0  0  0  0  0  0  0  0  0  0  0  0
    9.4673    9.9074   23.9386 C   0  0  0  0  0  0  0  0  0  0  0  0
    7.7366   11.4280   24.6661 C   0  0  0  0  0  0  0  0  0  0  0  0
   10.0450   10.9269   23.1818 C   0  0  0  0  0  0  0  0  0  0  0  0
    8.3142   12.4475   23.9093 C   0  0  0  0  0  0  0  0  0  0  0  0
    9.4684   12.1970   23.1672 C   0  0  0  0  0  0  0  0  0  0  0  0
    7.6962   13.7661   23.9081 C   0  0  0  0  0  0  0  0  0  0  0  0
    8.3203   14.8919   23.0823 C   0  0  0  0  0  0  0  0  0  0  0  0
    6.2186   15.8344   21.7611 N   0  0  0  0  0  0  0  0  0  0  0  0
    6.6639   13.9836   24.5723 O   0  0  0  0  0  0  0  0  0  0  0  0
    8.5467   15.8641   20.6676 O   0  0  0  0  0  0  0  0  0  0  0  0
    7.3551   13.6592   20.9903 O   0  0  0  0  0  0  0  0  0  0  0  0
   10.0464   13.1796   22.4201 O   0  0  0  0  0  0  0  0  0  0  0  0
    7.6729   15.0021   21.4453 S   0  0  0  0  0  0  0  0  0  0  0  0
    7.8636    9.3637   25.2699 H   0  0  0  0  0  0  0  0  0  0  0  0
    9.9161    8.9185   23.9508 H   0  0  0  0  0  0  0  0  0  0  0  0
    6.8369   11.6116   25.2479 H   0  0  0  0  0  0  0  0  0  0  0  0
   10.9440   10.7250   22.6058 H   0  0  0  0  0  0  0  0  0  0  0  0
    8.1184   15.8545   23.5590 H   0  0  0  0  0  0  0  0  0  0  0  0
    9.3949   14.7208   22.9784 H   0  0  0  0  0  0  0  0  0  0  0  0
    5.4710   15.3233   22.2464 H   0  0  0  0  0  0  0  0  0  0  0  0
    6.2827   16.8249   22.0263 H   0  0  0  0  0  0  0  0  0  0  0  0
   10.8342   12.8375   21.9696 H   0  0  0  0  0  0  0  0  0  0  0  0
  1  2  1  0  0  0  0
  1  3  2  0  0  0  0
  2  4  2  0  0  0  0
  3  5  1  0  0  0  0
  4  6  1  0  0  0  0
  5  6  2  0  0  0  0
  5  7  1  0  0  0  0
  6 13  1  0  0  0  0
  7  8  1  0  0  0  0
  7 10  2  0  0  0  0
  8 14  1  0  0  0  0
  9 14  1  0  0  0  0
 11 14  2  0  0  0  0
 12 14  2  0  0  0  0
  1 15  1  0  0  0  0
  2 16  1  0  0  0  0
  3 17  1  0  0  0  0
  4 18  1  0  0  0  0
  8 19  1  0  0  0  0
  8 20  1  0  0  0  0
  9 21  1  0  0  0  0
  9 22  1  0  0  0  0
 13 23  1  0  0  0  0
M  END
> <Mol Weight>
215,22

> <Formula>
C8H9NO4S

> <ID>
EN300-192036

> <name>
Sulfonamides

> <LogP>
0,50

> <ROCS_ShapeQuery>
x0310_0A_x0719_0A_x1080_0A_x0739_0A_x0929_0A_x0526_0A_x0911_0A

> <ROCS_TanimotoCombo>
0.343 

> <ROCS_ShapeTanimoto>
0.183 

> <ROCS_ColorTanimoto>
0.159 

> <ROCS_RefTversky>
0.174 

> <ROCS_RefColorTversky>
0.176 

> <ROCS_RefTverskyCombo>
0.350 

> <ROCS_FitTversky>
1.419 

> <ROCS_FitColorTversky>
0.626 

> <ROCS_FitTverskyCombo>
2.045 

> <ROCS_ColorScore>
-5.119

> <ROCS_Overlap>
1393.769

> <ROCS_Rank>
81                  

$$$$
untitled-dbase-2402_64
  -OEChem-02092407103D

 33 34  0     1  0  0  0  0  0999 V2000
    2.3969   12.0724   19.2606 C   0  0  0  0  0  0  0  0  0  0  0  0
    9.9394   10.6623   24.4457 C   0  0  0  0  0  0  0  0  0  0  0  0
    2.7433   10.8839   19.9033 C   0  0  0  0  0  0  0  0  0  0  0  0
    3.3295   13.1040   19.1519 C   0  0  0  0  0  0  0  0  0  0  0  0
    8.7671    9.9069   24.4691 C   0  0  0  0  0  0  0  0  0  0  0  0
    9.9773   11.8697   23.7483 C   0  0  0  0  0  0  0  0  0  0  0  0
    4.0222   10.7270   20.4375 C   0  0  0  0  0  0  0  0  0  0  0  0
    4.6084   12.9471   19.6862 C   0  0  0  0  0  0  0  0  0  0  0  0
    7.6326   10.3589   23.7951 C   0  0  0  0  0  0  0  0  0  0  0  0
    8.8428   12.3217   23.0743 C   0  0  0  0  0  0  0  0  0  0  0  0
    4.9548   11.7586   20.3289 C   0  0  0  0  0  0  0  0  0  0  0  0
    7.6705   11.5663   23.0977 C   0  0  0  0  0  0  0  0  0  0  0  0
    6.3224   11.5916   20.9002 C   0  0  0  0  0  0  0  0  0  0  0  0
    6.4411   12.0568   22.3666 C   0  0  2  0  0  0  0  0  0  0  0  0
    4.8158   14.1467   22.1622 N   0  0  0  0  0  0  0  0  0  0  0  0
    6.7496   14.1798   23.8581 O   0  0  0  0  0  0  0  0  0  0  0  0
    7.2617   14.3366   21.3885 O   0  0  0  0  0  0  0  0  0  0  0  0
    6.4580   13.8279   22.4824 S   0  0  0  0  0  0  0  0  0  0  0  0
    1.4015   12.1939   18.8435 H   0  0  0  0  0  0  0  0  0  0  0  0
   10.8223   10.3108   24.9717 H   0  0  0  0  0  0  0  0  0  0  0  0
    2.0176   10.0801   19.9870 H   0  0  0  0  0  0  0  0  0  0  0  0
    3.0605   14.0290   18.6506 H   0  0  0  0  0  0  0  0  0  0  0  0
    8.7371    8.9672   25.0130 H   0  0  0  0  0  0  0  0  0  0  0  0
   10.8896   12.4586   23.7307 H   0  0  0  0  0  0  0  0  0  0  0  0
    4.2832    9.7976   20.9368 H   0  0  0  0  0  0  0  0  0  0  0  0
    5.3284   13.7563   19.5969 H   0  0  0  0  0  0  0  0  0  0  0  0
    6.7236    9.7636   23.8187 H   0  0  0  0  0  0  0  0  0  0  0  0
    8.8816   13.2636   22.5334 H   0  0  0  0  0  0  0  0  0  0  0  0
    6.6652   10.5471   20.8014 H   0  0  0  0  0  0  0  0  0  0  0  0
    7.0388   12.1663   20.2867 H   0  0  0  0  0  0  0  0  0  0  0  0
    5.5379   11.7530   22.9110 H   0  0  0  0  0  0  0  0  0  0  0  0
    4.2286   14.4687   22.9414 H   0  0  0  0  0  0  0  0  0  0  0  0
    4.5773   14.5753   21.2594 H   0  0  0  0  0  0  0  0  0  0  0  0
  1  3  1  0  0  0  0
  1  4  2  0  0  0  0
  2  5  1  0  0  0  0
  2  6  2  0  0  0  0
  3  7  2  0  0  0  0
  4  8  1  0  0  0  0
  5  9  2  0  0  0  0
  6 10  1  0  0  0  0
  7 11  1  0  0  0  0
  8 11  2  0  0  0  0
  9 12  1  0  0  0  0
 10 12  2  0  0  0  0
 11 13  1  0  0  0  0
 12 14  1  0  0  0  0
 13 14  1  0  0  0  0
 14 18  1  0  0  0  0
 15 18  1  0  0  0  0
 16 18  2  0  0  0  0
 17 18  2  0  0  0  0
  1 19  1  0  0  0  0
  2 20  1  0  0  0  0
  3 21  1  0  0  0  0
  4 22  1  0  0  0  0
  5 23  1  0  0  0  0
  6 24  1  0  0  0  0
  7 25  1  0  0  0  0
  8 26  1  0  0  0  0
  9 27  1  0  0  0  0
 10 28  1  0  0  0  0
 13 29  1  0  0  0  0
 13 30  1  0  0  0  0
 14 31  1  0  0  0  0
 15 32  1  0  0  0  0
 15 33  1  0  0  0  0
M  END
> <Mol Weight>
261,34

> <Formula>
C14H15NO2S

> <ID>
EN300-223280

> <name>
Sulfonamides

> <LogP>
2,57

> <ROCS_ShapeQuery>
x0310_0A_x0719_0A_x1080_0A_x0739_0A_x0929_0A_x0526_0A_x0911_0A

> <ROCS_TanimotoCombo>
0.343 

> <ROCS_ShapeTanimoto>
0.204 

> <ROCS_ColorTanimoto>
0.138 

> <ROCS_RefTversky>
0.194 

> <ROCS_RefColorTversky>
0.148 

> <ROCS_RefTverskyCombo>
0.342 

> <ROCS_FitTversky>
1.348 

> <ROCS_FitColorTversky>
0.684 

> <ROCS_FitTverskyCombo>
2.032 

> <ROCS_ColorScore>
-4.289

> <ROCS_Overlap>
1554.695

> <ROCS_Rank>
82                  

$$$$
untitled-dbase-2533_44
  -OEChem-02092407103D

 32 33  0     0  0  0  0  0  0999 V2000
    5.4068   11.7439   22.2754 C   0  0  0  0  0  0  0  0  0  0  0  0
    5.9370   13.8675   21.2525 C   0  0  0  0  0  0  0  0  0  0  0  0
    4.5266   11.4606   21.2311 C   0  0  0  0  0  0  0  0  0  0  0  0
    5.0568   13.5842   20.2081 C   0  0  0  0  0  0  0  0  0  0  0  0
    6.1120   12.9474   22.2861 C   0  0  0  0  0  0  0  0  0  0  0  0
    4.3516   12.3807   20.1975 C   0  0  0  0  0  0  0  0  0  0  0  0
    7.0364   13.2474   23.3880 C   0  0  0  0  0  0  0  0  0  0  0  0
    8.6474   12.2105   24.9510 C   0  0  0  0  0  0  0  0  0  0  0  0
    8.8347   11.6401   22.5625 C   0  0  0  0  0  0  0  0  0  0  0  0
    8.8301   10.7335   25.2679 C   0  0  0  0  0  0  0  0  0  0  0  0
    9.0213   10.1871   22.9832 C   0  0  0  0  0  0  0  0  0  0  0  0
    8.1097   12.3807   23.6021 N   0  0  0  0  0  0  0  0  0  0  0  0
    2.6761   10.4854   19.3576 N   0  0  0  0  0  0  0  0  0  0  0  0
    6.7928   14.2593   24.0436 O   0  0  0  0  0  0  0  0  0  0  0  0
    2.1468   12.9750   18.9489 O   0  0  0  0  0  0  0  0  0  0  0  0
    4.0187   11.8852   17.6621 O   0  0  0  0  0  0  0  0  0  0  0  0
    9.6433   10.1128   24.2686 O   0  0  0  0  0  0  0  0  0  0  0  0
    3.2494   12.0257   18.8905 S   0  0  0  0  0  0  0  0  0  0  0  0
    5.5341   11.0205   23.0767 H   0  0  0  0  0  0  0  0  0  0  0  0
    6.4807   14.8088   21.2510 H   0  0  0  0  0  0  0  0  0  0  0  0
    3.9826   10.5200   21.2318 H   0  0  0  0  0  0  0  0  0  0  0  0
    4.9273   14.3076   19.4077 H   0  0  0  0  0  0  0  0  0  0  0  0
    8.0129   12.6814   25.7083 H   0  0  0  0  0  0  0  0  0  0  0  0
    9.6200   12.7204   24.9634 H   0  0  0  0  0  0  0  0  0  0  0  0
    9.8069   12.1322   22.4553 H   0  0  0  0  0  0  0  0  0  0  0  0
    8.3120   11.7002   21.6052 H   0  0  0  0  0  0  0  0  0  0  0  0
    9.3410   10.6187   26.2275 H   0  0  0  0  0  0  0  0  0  0  0  0
    7.8685   10.2142   25.3355 H   0  0  0  0  0  0  0  0  0  0  0  0
    8.0652    9.6474   23.0025 H   0  0  0  0  0  0  0  0  0  0  0  0
    9.6745    9.6745   22.2679 H   0  0  0  0  0  0  0  0  0  0  0  0
    1.7084   10.4133   19.6948 H   0  0  0  0  0  0  0  0  0  0  0  0
    2.9890    9.6702   18.8165 H   0  0  0  0  0  0  0  0  0  0  0  0
  1  3  2  0  0  0  0
  1  5  1  0  0  0  0
  2  4  1  0  0  0  0
  2  5  2  0  0  0  0
  3  6  1  0  0  0  0
  4  6  2  0  0  0  0
  5  7  1  0  0  0  0
  6 18  1  0  0  0  0
  7 12  1  0  0  0  0
  7 14  2  0  0  0  0
  8 10  1  0  0  0  0
  8 12  1  0  0  0  0
  9 11  1  0  0  0  0
  9 12  1  0  0  0  0
 10 17  1  0  0  0  0
 11 17  1  0  0  0  0
 13 18  1  0  0  0  0
 15 18  2  0  0  0  0
 16 18  2  0  0  0  0
  1 19  1  0  0  0  0
  2 20  1  0  0  0  0
  3 21  1  0  0  0  0
  4 22  1  0  0  0  0
  8 23  1  0  0  0  0
  8 24  1  0  0  0  0
  9 25  1  0  0  0  0
  9 26  1  0  0  0  0
 10 27  1  0  0  0  0
 10 28  1  0  0  0  0
 11 29  1  0  0  0  0
 11 30  1  0  0  0  0
 13 31  1  0  0  0  0
 13 32  1  0  0  0  0
M  END
> <Mol Weight>
270,30

> <Formula>
C11H14N2O4S

> <ID>
EN300-270510

> <name>
Sulfonamides

> <LogP>
-0,34

> <ROCS_ShapeQuery>
x0310_0A_x0719_0A_x1080_0A_x0739_0A_x0929_0A_x0526_0A_x0911_0A

> <ROCS_TanimotoCombo>
0.342 

> <ROCS_ShapeTanimoto>
0.216 

> <ROCS_ColorTanimoto>
0.126 

> <ROCS_RefTversky>
0.203 

> <ROCS_RefColorTversky>
0.144 

> <ROCS_RefTverskyCombo>
0.347 

> <ROCS_FitTversky>
1.407 

> <ROCS_FitColorTversky>
0.512 

> <ROCS_FitTverskyCombo>
1.919 

> <ROCS_ColorScore>
-4.184

> <ROCS_Overlap>
1630.377

> <ROCS_Rank>
83                  

$$$$
untitled-dbase-2077_97
  -OEChem-02092407103D

 29 29  0     1  0  0  0  0  0999 V2000
    8.3811    9.6681   23.7708 C   0  0  0  0  0  0  0  0  0  0  0  0
    9.3353   10.1452   22.8722 C   0  0  0  0  0  0  0  0  0  0  0  0
    7.7718   10.5425   24.6707 C   0  0  0  0  0  0  0  0  0  0  0  0
    9.6805   11.4967   22.8737 C   0  0  0  0  0  0  0  0  0  0  0  0
    8.1170   11.8940   24.6722 C   0  0  0  0  0  0  0  0  0  0  0  0
    9.0713   12.3711   23.7737 C   0  0  0  0  0  0  0  0  0  0  0  0
    8.2777   14.7182   24.2182 C   0  0  0  0  0  0  0  0  0  0  0  0
    7.6898   16.9579   24.7162 C   0  0  0  0  0  0  0  0  0  0  0  0
    9.9924   14.3399   22.4303 C   0  0  0  0  0  0  0  0  0  0  0  0
    9.4475   13.8455   23.7760 C   0  0  2  0  0  0  0  0  0  0  0  0
    9.6246   14.5858   19.8120 N   0  0  0  0  0  0  0  0  0  0  0  0
    7.1515   14.3137   24.4764 O   0  0  0  0  0  0  0  0  0  0  0  0
    7.8023   13.5083   21.2731 O   0  0  0  0  0  0  0  0  0  0  0  0
    8.2242   15.9937   21.4472 O   0  0  0  0  0  0  0  0  0  0  0  0
    8.6868   16.0211   24.2957 O   0  0  0  0  0  0  0  0  0  0  0  0
    8.7114   14.6402   21.2502 S   0  0  0  0  0  0  0  0  0  0  0  0
    8.1115    8.6160   23.7686 H   0  0  0  0  0  0  0  0  0  0  0  0
    9.8090    9.4647   22.1707 H   0  0  0  0  0  0  0  0  0  0  0  0
    7.0280   10.1717   25.3697 H   0  0  0  0  0  0  0  0  0  0  0  0
   10.4252   11.8595   22.1701 H   0  0  0  0  0  0  0  0  0  0  0  0
    7.6372   12.5679   25.3770 H   0  0  0  0  0  0  0  0  0  0  0  0
    8.1204   17.9618   24.7434 H   0  0  0  0  0  0  0  0  0  0  0  0
    7.3228   16.6803   25.7075 H   0  0  0  0  0  0  0  0  0  0  0  0
    6.8611   16.9385   24.0044 H   0  0  0  0  0  0  0  0  0  0  0  0
   10.5723   15.2632   22.5195 H   0  0  0  0  0  0  0  0  0  0  0  0
   10.6450   13.5903   21.9698 H   0  0  0  0  0  0  0  0  0  0  0  0
   10.2309   13.9829   24.5351 H   0  0  0  0  0  0  0  0  0  0  0  0
   10.2676   15.3647   19.6235 H   0  0  0  0  0  0  0  0  0  0  0  0
    9.9800   13.6720   19.5050 H   0  0  0  0  0  0  0  0  0  0  0  0
  1  2  1  0  0  0  0
  1  3  2  0  0  0  0
  2  4  2  0  0  0  0
  3  5  1  0  0  0  0
  4  6  1  0  0  0  0
  5  6  2  0  0  0  0
  6 10  1  0  0  0  0
  7 10  1  0  0  0  0
  7 12  2  0  0  0  0
  7 15  1  0  0  0  0
  8 15  1  0  0  0  0
  9 10  1  0  0  0  0
  9 16  1  0  0  0  0
 11 16  1  0  0  0  0
 13 16  2  0  0  0  0
 14 16  2  0  0  0  0
  1 17  1  0  0  0  0
  2 18  1  0  0  0  0
  3 19  1  0  0  0  0
  4 20  1  0  0  0  0
  5 21  1  0  0  0  0
  8 22  1  0  0  0  0
  8 23  1  0  0  0  0
  8 24  1  0  0  0  0
  9 25  1  0  0  0  0
  9 26  1  0  0  0  0
 10 27  1  0  0  0  0
 11 28  1  0  0  0  0
 11 29  1  0  0  0  0
M  END
> <Mol Weight>
243,28

> <Formula>
C10H13NO4S

> <ID>
EN300-1618108

> <name>
Sulfonamides

> <LogP>
0,15

> <ROCS_ShapeQuery>
x0310_0A_x0719_0A_x1080_0A_x0739_0A_x0929_0A_x0526_0A_x0911_0A

> <ROCS_TanimotoCombo>
0.342 

> <ROCS_ShapeTanimoto>
0.185 

> <ROCS_ColorTanimoto>
0.157 

> <ROCS_RefTversky>
0.176 

> <ROCS_RefColorTversky>
0.165 

> <ROCS_RefTverskyCombo>
0.342 

> <ROCS_FitTversky>
1.339 

> <ROCS_FitColorTversky>
0.765 

> <ROCS_FitTverskyCombo>
2.104 

> <ROCS_ColorScore>
-4.797

> <ROCS_Overlap>
1412.864

> <ROCS_Rank>
84                  

$$$$
untitled-dbase-1343_45
  -OEChem-02092407103D

 27 27  0     0  0  0  0  0  0999 V2000
   10.0265   11.9326   23.5140 C   0  0  0  0  0  0  0  0  0  0  0  0
    7.7196   11.8267   22.8040 C   0  0  0  0  0  0  0  0  0  0  0  0
    9.8223   10.8292   24.3424 C   0  0  0  0  0  0  0  0  0  0  0  0
    7.5154   10.7232   23.6324 C   0  0  0  0  0  0  0  0  0  0  0  0
    8.9752   12.4315   22.7448 C   0  0  0  0  0  0  0  0  0  0  0  0
    8.5668   10.2244   24.4016 C   0  0  0  0  0  0  0  0  0  0  0  0
    7.0599    8.5774   25.2215 C   0  0  0  0  0  0  0  0  0  0  0  0
    9.1935   13.6108   21.8587 C   0  0  0  0  0  0  0  0  0  0  0  0
    7.9421   14.4709   21.6618 C   0  0  0  0  0  0  0  0  0  0  0  0
    5.7438   15.5210   22.7182 N   0  0  0  0  0  0  0  0  0  0  0  0
    7.3331   14.1218   24.1787 O   0  0  0  0  0  0  0  0  0  0  0  0
    8.0562   16.4156   23.4033 O   0  0  0  0  0  0  0  0  0  0  0  0
    8.3680    9.1469   25.2090 O   0  0  0  0  0  0  0  0  0  0  0  0
    7.3490   15.1682   23.1713 S   0  0  0  0  0  0  0  0  0  0  0  0
   11.0079   12.3976   23.4741 H   0  0  0  0  0  0  0  0  0  0  0  0
    6.8946   12.2087   22.2083 H   0  0  0  0  0  0  0  0  0  0  0  0
   10.6455   10.4450   24.9390 H   0  0  0  0  0  0  0  0  0  0  0  0
    6.5353   10.2564   23.6738 H   0  0  0  0  0  0  0  0  0  0  0  0
    7.0389    7.7260   25.9063 H   0  0  0  0  0  0  0  0  0  0  0  0
    6.7928    8.2536   24.2124 H   0  0  0  0  0  0  0  0  0  0  0  0
    6.3467    9.3324   25.5605 H   0  0  0  0  0  0  0  0  0  0  0  0
    9.5289   13.2661   20.8651 H   0  0  0  0  0  0  0  0  0  0  0  0
   10.0127   14.2470   22.2366 H   0  0  0  0  0  0  0  0  0  0  0  0
    8.1596   15.3193   21.0050 H   0  0  0  0  0  0  0  0  0  0  0  0
    7.1169   13.9002   21.2251 H   0  0  0  0  0  0  0  0  0  0  0  0
    5.5919   16.2938   22.0583 H   0  0  0  0  0  0  0  0  0  0  0  0
    5.0995   14.7316   22.5867 H   0  0  0  0  0  0  0  0  0  0  0  0
  1  3  2  0  0  0  0
  1  5  1  0  0  0  0
  2  4  1  0  0  0  0
  2  5  2  0  0  0  0
  3  6  1  0  0  0  0
  4  6  2  0  0  0  0
  5  8  1  0  0  0  0
  6 13  1  0  0  0  0
  7 13  1  0  0  0  0
  8  9  1  0  0  0  0
  9 14  1  0  0  0  0
 10 14  1  0  0  0  0
 11 14  2  0  0  0  0
 12 14  2  0  0  0  0
  1 15  1  0  0  0  0
  2 16  1  0  0  0  0
  3 17  1  0  0  0  0
  4 18  1  0  0  0  0
  7 19  1  0  0  0  0
  7 20  1  0  0  0  0
  7 21  1  0  0  0  0
  8 22  1  0  0  0  0
  8 23  1  0  0  0  0
  9 24  1  0  0  0  0
  9 25  1  0  0  0  0
 10 26  1  0  0  0  0
 10 27  1  0  0  0  0
M  END
> <Mol Weight>
215,27

> <Formula>
C9H13NO3S

> <ID>
EN300-156117

> <name>
Sulfonamides

> <LogP>
0,47

> <ROCS_ShapeQuery>
x0310_0A_x0719_0A_x1080_0A_x0739_0A_x0929_0A_x0526_0A_x0911_0A

> <ROCS_TanimotoCombo>
0.341 

> <ROCS_ShapeTanimoto>
0.161 

> <ROCS_ColorTanimoto>
0.181 

> <ROCS_RefTversky>
0.155 

> <ROCS_RefColorTversky>
0.186 

> <ROCS_RefTverskyCombo>
0.341 

> <ROCS_FitTversky>
1.284 

> <ROCS_FitColorTversky>
0.862 

> <ROCS_FitTverskyCombo>
2.146 

> <ROCS_ColorScore>
-5.400

> <ROCS_Overlap>
1241.828

> <ROCS_Rank>
85                  

$$$$
untitled-dbase-2111_981
  -OEChem-02092407103D

 31 31  0     0  0  0  0  0  0999 V2000
    1.8502   11.7117   18.8737 C   0  0  0  0  0  0  0  0  0  0  0  0
    3.5848   12.6889   17.5051 C   0  0  0  0  0  0  0  0  0  0  0  0
    2.8159   11.2491   19.7675 C   0  0  0  0  0  0  0  0  0  0  0  0
    4.5506   12.2264   18.3990 C   0  0  0  0  0  0  0  0  0  0  0  0
    2.2346   12.4316   17.7425 C   0  0  0  0  0  0  0  0  0  0  0  0
    4.1661   11.5065   19.5302 C   0  0  0  0  0  0  0  0  0  0  0  0
   -0.0692   12.5819   17.1718 C   0  0  0  0  0  0  0  0  0  0  0  0
    6.1002   12.8748   21.6066 C   0  0  0  0  0  0  0  0  0  0  0  0
    6.3024   11.8234   20.5261 C   0  0  0  0  0  0  0  0  0  0  0  0
    7.3414   13.7289   21.7965 C   0  0  0  0  0  0  0  0  0  0  0  0
    5.4926   15.4248   22.6664 N   0  0  0  0  0  0  0  0  0  0  0  0
    7.1030   14.3087   24.3331 O   0  0  0  0  0  0  0  0  0  0  0  0
    7.9798   16.0752   22.7532 O   0  0  0  0  0  0  0  0  0  0  0  0
    1.2926   12.8816   16.8693 O   0  0  0  0  0  0  0  0  0  0  0  0
    5.1152   11.0517   20.4085 O   0  0  0  0  0  0  0  0  0  0  0  0
    7.0913   14.9608   23.0348 S   0  0  0  0  0  0  0  0  0  0  0  0
    0.8001   11.5060   19.0626 H   0  0  0  0  0  0  0  0  0  0  0  0
    3.8900   13.2485   16.6251 H   0  0  0  0  0  0  0  0  0  0  0  0
    2.5106   10.6900   20.6477 H   0  0  0  0  0  0  0  0  0  0  0  0
    5.6009   12.4297   18.2088 H   0  0  0  0  0  0  0  0  0  0  0  0
   -0.7158   12.9983   16.3955 H   0  0  0  0  0  0  0  0  0  0  0  0
   -0.3294   13.0070   18.1444 H   0  0  0  0  0  0  0  0  0  0  0  0
   -0.1956   11.4972   17.2048 H   0  0  0  0  0  0  0  0  0  0  0  0
    5.2397   13.5052   21.3487 H   0  0  0  0  0  0  0  0  0  0  0  0
    5.8273   12.3839   22.5494 H   0  0  0  0  0  0  0  0  0  0  0  0
    7.1292   11.1535   20.7827 H   0  0  0  0  0  0  0  0  0  0  0  0
    6.5104   12.2920   19.5588 H   0  0  0  0  0  0  0  0  0  0  0  0
    7.6077   14.2547   20.8748 H   0  0  0  0  0  0  0  0  0  0  0  0
    8.1952   13.1247   22.1174 H   0  0  0  0  0  0  0  0  0  0  0  0
    4.7513   15.1480   23.3218 H   0  0  0  0  0  0  0  0  0  0  0  0
    5.3485   16.3510   22.2456 H   0  0  0  0  0  0  0  0  0  0  0  0
  1  3  2  0  0  0  0
  1  5  1  0  0  0  0
  2  4  1  0  0  0  0
  2  5  2  0  0  0  0
  3  6  1  0  0  0  0
  4  6  2  0  0  0  0
  5 14  1  0  0  0  0
  6 15  1  0  0  0  0
  7 14  1  0  0  0  0
  8  9  1  0  0  0  0
  8 10  1  0  0  0  0
  9 15  1  0  0  0  0
 10 16  1  0  0  0  0
 11 16  1  0  0  0  0
 12 16  2  0  0  0  0
 13 16  2  0  0  0  0
  1 17  1  0  0  0  0
  2 18  1  0  0  0  0
  3 19  1  0  0  0  0
  4 20  1  0  0  0  0
  7 21  1  0  0  0  0
  7 22  1  0  0  0  0
  7 23  1  0  0  0  0
  8 24  1  0  0  0  0
  8 25  1  0  0  0  0
  9 26  1  0  0  0  0
  9 27  1  0  0  0  0
 10 28  1  0  0  0  0
 10 29  1  0  0  0  0
 11 30  1  0  0  0  0
 11 31  1  0  0  0  0
M  END
> <Mol Weight>
245,29

> <Formula>
C10H15NO4S

> <ID>
EN300-269881

> <name>
Sulfonamides

> <LogP>
0,16

> <ROCS_ShapeQuery>
x0310_0A_x0719_0A_x1080_0A_x0739_0A_x0929_0A_x0526_0A_x0911_0A

> <ROCS_TanimotoCombo>
0.341 

> <ROCS_ShapeTanimoto>
0.187 

> <ROCS_ColorTanimoto>
0.154 

> <ROCS_RefTversky>
0.178 

> <ROCS_RefColorTversky>
0.166 

> <ROCS_RefTverskyCombo>
0.345 

> <ROCS_FitTversky>
1.361 

> <ROCS_FitColorTversky>
0.669 

> <ROCS_FitTverskyCombo>
2.030 

> <ROCS_ColorScore>
-4.828

> <ROCS_Overlap>
1429.001

> <ROCS_Rank>
86                  

$$$$
untitled-dbase-2582_237
  -OEChem-02092407103D

 27 27  0     0  0  0  0  0  0999 V2000
    8.7861   11.1006   23.4734 C   0  0  0  0  0  0  0  0  0  0  0  0
    8.4630   12.2406   23.2802 C   0  0  0  0  0  0  0  0  0  0  0  0
    4.6089   12.2431   19.1139 C   0  0  0  0  0  0  0  0  0  0  0  0
    2.2513   12.2910   19.0337 C   0  0  0  0  0  0  0  0  0  0  0  0
    6.4315   13.2799   20.5087 C   0  0  0  0  0  0  0  0  0  0  0  0
    8.0665   13.6361   23.0472 C   0  0  0  0  0  0  0  0  0  0  0  0
    7.9527   13.2452   20.5562 C   0  0  0  0  0  0  0  0  0  0  0  0
    8.5263   14.1170   21.6715 C   0  0  0  0  0  0  0  0  0  0  0  0
    4.1383   11.4854   18.1463 N   0  0  0  0  0  0  0  0  0  0  0  0
    2.7554   11.5143   18.0986 N   0  0  0  0  0  0  0  0  0  0  0  0
   -0.1595   11.6495   18.0948 N   0  0  0  0  0  0  0  0  0  0  0  0
    5.9567   12.4723   19.4791 N   0  0  0  0  0  0  0  0  0  0  0  0
    5.7705   13.9478   21.2969 O   0  0  0  0  0  0  0  0  0  0  0  0
    0.2003   12.0444   20.6167 O   0  0  0  0  0  0  0  0  0  0  0  0
    0.2898   14.0048   19.0368 O   0  0  0  0  0  0  0  0  0  0  0  0
    3.4129   13.0479   20.0433 S   0  0  0  0  0  0  0  0  0  0  0  0
    0.5679   12.5995   19.3176 S   0  0  0  0  0  0  0  0  0  0  0  0
    9.0729   10.0895   23.6446 H   0  0  0  0  0  0  0  0  0  0  0  0
    6.9768   13.7244   23.1267 H   0  0  0  0  0  0  0  0  0  0  0  0
    8.4985   14.2736   23.8274 H   0  0  0  0  0  0  0  0  0  0  0  0
    8.3335   13.5838   19.5851 H   0  0  0  0  0  0  0  0  0  0  0  0
    8.2669   12.2042   20.6986 H   0  0  0  0  0  0  0  0  0  0  0  0
    8.2197   15.1603   21.5194 H   0  0  0  0  0  0  0  0  0  0  0  0
    9.6231   14.1081   21.6207 H   0  0  0  0  0  0  0  0  0  0  0  0
   -0.0770   11.9680   17.1215 H   0  0  0  0  0  0  0  0  0  0  0  0
   -0.1406   10.6279   18.2003 H   0  0  0  0  0  0  0  0  0  0  0  0
    6.6611   11.9905   18.9242 H   0  0  0  0  0  0  0  0  0  0  0  0
  1  2  3  0  0  0  0
  2  6  1  0  0  0  0
  3  9  2  0  0  0  0
  3 12  1  0  0  0  0
  3 16  1  0  0  0  0
  4 10  2  0  0  0  0
  4 16  1  0  0  0  0
  4 17  1  0  0  0  0
  5  7  1  0  0  0  0
  5 12  1  0  0  0  0
  5 13  2  0  0  0  0
  6  8  1  0  0  0  0
  7  8  1  0  0  0  0
  9 10  1  0  0  0  0
 11 17  1  0  0  0  0
 14 17  2  0  0  0  0
 15 17  2  0  0  0  0
  1 18  1  0  0  0  0
  6 19  1  0  0  0  0
  6 20  1  0  0  0  0
  7 21  1  0  0  0  0
  7 22  1  0  0  0  0
  8 23  1  0  0  0  0
  8 24  1  0  0  0  0
 11 25  1  0  0  0  0
 11 26  1  0  0  0  0
 12 27  1  0  0  0  0
M  END
> <Mol Weight>
274,31

> <Formula>
C8H10N4O3S2

> <ID>
EN300-1718461

> <name>
Sulfonamides

> <LogP>
0,19

> <ROCS_ShapeQuery>
x0310_0A_x0719_0A_x1080_0A_x0739_0A_x0929_0A_x0526_0A_x0911_0A

> <ROCS_TanimotoCombo>
0.340 

> <ROCS_ShapeTanimoto>
0.212 

> <ROCS_ColorTanimoto>
0.128 

> <ROCS_RefTversky>
0.199 

> <ROCS_RefColorTversky>
0.157 

> <ROCS_RefTverskyCombo>
0.356 

> <ROCS_FitTversky>
1.479 

> <ROCS_FitColorTversky>
0.407 

> <ROCS_FitTverskyCombo>
1.886 

> <ROCS_ColorScore>
-4.595

> <ROCS_Overlap>
1591.574

> <ROCS_Rank>
87                  

$$$$
untitled-dbase-2363_170
  -OEChem-02092407103D

 31 31  0     0  0  0  0  0  0999 V2000
    4.4705   11.3174   18.9105 C   0  0  0  0  0  0  0  0  0  0  0  0
    3.7646   12.5249   20.8804 C   0  0  0  0  0  0  0  0  0  0  0  0
    3.2643   11.6327   18.2850 C   0  0  0  0  0  0  0  0  0  0  0  0
    2.5584   12.8403   20.2549 C   0  0  0  0  0  0  0  0  0  0  0  0
    4.7206   11.7635   20.2083 C   0  0  0  0  0  0  0  0  0  0  0  0
    2.3083   12.3941   18.9571 C   0  0  0  0  0  0  0  0  0  0  0  0
    7.9964   12.4881   23.8688 C   0  0  0  0  0  0  0  0  0  0  0  0
    9.9146   12.6575   25.2532 C   0  0  0  0  0  0  0  0  0  0  0  0
    6.0251   11.4219   20.8856 C   0  0  0  0  0  0  0  0  0  0  0  0
    6.1287   11.9895   22.2991 C   0  0  0  0  0  0  0  0  0  0  0  0
   -0.1687   11.4622   18.6396 N   0  0  0  0  0  0  0  0  0  0  0  0
    7.3911   11.6797   22.9297 N   0  0  0  0  0  0  0  0  0  0  0  0
    7.5565   13.5541   24.2867 O   0  0  0  0  0  0  0  0  0  0  0  0
    0.2664   13.9988   18.7876 O   0  0  0  0  0  0  0  0  0  0  0  0
    0.9994   12.7401   16.7319 O   0  0  0  0  0  0  0  0  0  0  0  0
    9.1731   11.9228   24.2727 O   0  0  0  0  0  0  0  0  0  0  0  0
    0.7994   12.7908   18.1736 S   0  0  0  0  0  0  0  0  0  0  0  0
    5.2093   10.7233   18.3792 H   0  0  0  0  0  0  0  0  0  0  0  0
    3.9507   12.8765   21.8919 H   0  0  0  0  0  0  0  0  0  0  0  0
    3.0793   11.2797   17.2739 H   0  0  0  0  0  0  0  0  0  0  0  0
    1.8204   13.4338   20.7879 H   0  0  0  0  0  0  0  0  0  0  0  0
   10.8308   12.1154   25.4998 H   0  0  0  0  0  0  0  0  0  0  0  0
    9.3038   12.7890   26.1499 H   0  0  0  0  0  0  0  0  0  0  0  0
   10.1725   13.6369   24.8435 H   0  0  0  0  0  0  0  0  0  0  0  0
    6.8477   11.8160   20.2754 H   0  0  0  0  0  0  0  0  0  0  0  0
    6.1589   10.3327   20.9052 H   0  0  0  0  0  0  0  0  0  0  0  0
    6.0501   13.0808   22.2694 H   0  0  0  0  0  0  0  0  0  0  0  0
    5.3332   11.6074   22.9472 H   0  0  0  0  0  0  0  0  0  0  0  0
    0.0307   10.5482   18.2151 H   0  0  0  0  0  0  0  0  0  0  0  0
   -0.4727   11.4075   19.6194 H   0  0  0  0  0  0  0  0  0  0  0  0
    7.8592   10.8180   22.6666 H   0  0  0  0  0  0  0  0  0  0  0  0
  1  3  2  0  0  0  0
  1  5  1  0  0  0  0
  2  4  1  0  0  0  0
  2  5  2  0  0  0  0
  3  6  1  0  0  0  0
  4  6  2  0  0  0  0
  5  9  1  0  0  0  0
  6 17  1  0  0  0  0
  7 12  1  0  0  0  0
  7 13  2  0  0  0  0
  7 16  1  0  0  0  0
  8 16  1  0  0  0  0
  9 10  1  0  0  0  0
 10 12  1  0  0  0  0
 11 17  1  0  0  0  0
 14 17  2  0  0  0  0
 15 17  2  0  0  0  0
  1 18  1  0  0  0  0
  2 19  1  0  0  0  0
  3 20  1  0  0  0  0
  4 21  1  0  0  0  0
  8 22  1  0  0  0  0
  8 23  1  0  0  0  0
  8 24  1  0  0  0  0
  9 25  1  0  0  0  0
  9 26  1  0  0  0  0
 10 27  1  0  0  0  0
 10 28  1  0  0  0  0
 11 29  1  0  0  0  0
 11 30  1  0  0  0  0
 12 31  1  0  0  0  0
M  END
> <Mol Weight>
258,29

> <Formula>
C10H14N2O4S

> <ID>
EN300-12884512

> <name>
Sulfonamides

> <LogP>
0,43

> <ROCS_ShapeQuery>
x0310_0A_x0719_0A_x1080_0A_x0739_0A_x0929_0A_x0526_0A_x0911_0A

> <ROCS_TanimotoCombo>
0.340 

> <ROCS_ShapeTanimoto>
0.218 

> <ROCS_ColorTanimoto>
0.122 

> <ROCS_RefTversky>
0.203 

> <ROCS_RefColorTversky>
0.136 

> <ROCS_RefTverskyCombo>
0.339 

> <ROCS_FitTversky>
1.487 

> <ROCS_FitColorTversky>
0.547 

> <ROCS_FitTverskyCombo>
2.034 

> <ROCS_ColorScore>
-3.945

> <ROCS_Overlap>
1628.826

> <ROCS_Rank>
88                  

$$$$
untitled-dbase-2566_25
  -OEChem-02092407103D

 34 34  0     0  0  0  0  0  0999 V2000
    4.8628   12.3201   20.7647 C   0  0  0  0  0  0  0  0  0  0  0  0
    4.8336   11.8956   19.4364 C   0  0  0  0  0  0  0  0  0  0  0  0
    2.5741   13.0706   20.5752 C   0  0  0  0  0  0  0  0  0  0  0  0
    3.7330   12.9076   21.3342 C   0  0  0  0  0  0  0  0  0  0  0  0
    3.6747   12.0586   18.6774 C   0  0  0  0  0  0  0  0  0  0  0  0
    2.5449   12.6461   19.2468 C   0  0  0  0  0  0  0  0  0  0  0  0
    6.7041   14.8819   23.1461 C   0  0  0  0  0  0  0  0  0  0  0  0
    7.9640   15.1569   22.3944 C   0  0  0  0  0  0  0  0  0  0  0  0
    3.2600   10.2937   17.1383 C   0  0  0  0  0  0  0  0  0  0  0  0
    3.7654   13.3618   22.7543 C   0  0  0  0  0  0  0  0  0  0  0  0
    4.2285   14.8141   22.9231 C   0  0  0  0  0  0  0  0  0  0  0  0
    0.2725   11.3929   18.6382 N   0  0  0  0  0  0  0  0  0  0  0  0
    5.5489   15.0315   22.3956 N   0  0  0  0  0  0  0  0  0  0  0  0
    6.7634   14.5543   24.3255 O   0  0  0  0  0  0  0  0  0  0  0  0
    0.3224   13.9565   18.9051 O   0  0  0  0  0  0  0  0  0  0  0  0
    1.4346   12.9033   16.9047 O   0  0  0  0  0  0  0  0  0  0  0  0
    3.6695   11.6381   17.3816 O   0  0  0  0  0  0  0  0  0  0  0  0
    1.0802   12.8629   18.3155 S   0  0  0  0  0  0  0  0  0  0  0  0
    5.7699   12.1894   21.3486 H   0  0  0  0  0  0  0  0  0  0  0  0
    5.7173   11.4391   18.9988 H   0  0  0  0  0  0  0  0  0  0  0  0
    1.6949   13.5285   21.0225 H   0  0  0  0  0  0  0  0  0  0  0  0
    8.2682   16.2142   22.4560 H   0  0  0  0  0  0  0  0  0  0  0  0
    8.8204   14.5843   22.7853 H   0  0  0  0  0  0  0  0  0  0  0  0
    7.9298   14.9276   21.3173 H   0  0  0  0  0  0  0  0  0  0  0  0
    3.3016   10.0879   16.0659 H   0  0  0  0  0  0  0  0  0  0  0  0
    2.2420   10.1493   17.5087 H   0  0  0  0  0  0  0  0  0  0  0  0
    3.9364    9.6154   17.6637 H   0  0  0  0  0  0  0  0  0  0  0  0
    4.4422   12.7094   23.3315 H   0  0  0  0  0  0  0  0  0  0  0  0
    2.7747   13.2380   23.2247 H   0  0  0  0  0  0  0  0  0  0  0  0
    3.5589   15.4951   22.3883 H   0  0  0  0  0  0  0  0  0  0  0  0
    4.2419   15.1071   23.9781 H   0  0  0  0  0  0  0  0  0  0  0  0
   -0.5553   11.4218   19.2460 H   0  0  0  0  0  0  0  0  0  0  0  0
    0.2068   10.7031   17.8799 H   0  0  0  0  0  0  0  0  0  0  0  0
    5.6394   15.3100   21.4198 H   0  0  0  0  0  0  0  0  0  0  0  0
  1  2  2  0  0  0  0
  1  4  1  0  0  0  0
  2  5  1  0  0  0  0
  3  4  2  0  0  0  0
  3  6  1  0  0  0  0
  4 10  1  0  0  0  0
  5  6  2  0  0  0  0
  5 17  1  0  0  0  0
  6 18  1  0  0  0  0
  7  8  1  0  0  0  0
  7 13  1  0  0  0  0
  7 14  2  0  0  0  0
  9 17  1  0  0  0  0
 10 11  1  0  0  0  0
 11 13  1  0  0  0  0
 12 18  1  0  0  0  0
 15 18  2  0  0  0  0
 16 18  2  0  0  0  0
  1 19  1  0  0  0  0
  2 20  1  0  0  0  0
  3 21  1  0  0  0  0
  8 22  1  0  0  0  0
  8 23  1  0  0  0  0
  8 24  1  0  0  0  0
  9 25  1  0  0  0  0
  9 26  1  0  0  0  0
  9 27  1  0  0  0  0
 10 28  1  0  0  0  0
 10 29  1  0  0  0  0
 11 30  1  0  0  0  0
 11 31  1  0  0  0  0
 12 32  1  0  0  0  0
 12 33  1  0  0  0  0
 13 34  1  0  0  0  0
M  END
> <Mol Weight>
272,32

> <Formula>
C11H16N2O4S

> <ID>
EN300-122273

> <name>
Sulfonamides

> <LogP>
-0,35

> <ROCS_ShapeQuery>
x0310_0A_x0719_0A_x1080_0A_x0739_0A_x0929_0A_x0526_0A_x0911_0A

> <ROCS_TanimotoCombo>
0.339 

> <ROCS_ShapeTanimoto>
0.199 

> <ROCS_ColorTanimoto>
0.141 

> <ROCS_RefTversky>
0.189 

> <ROCS_RefColorTversky>
0.158 

> <ROCS_RefTverskyCombo>
0.347 

> <ROCS_FitTversky>
1.333 

> <ROCS_FitColorTversky>
0.563 

> <ROCS_FitTverskyCombo>
1.895 

> <ROCS_ColorScore>
-4.596

> <ROCS_Overlap>
1518.294

> <ROCS_Rank>
89                  

$$$$
untitled-dbase-2387_790
  -OEChem-02092407103D

 29 29  0     0  0  0  0  0  0999 V2000
    4.4717   11.0729   18.9122 C   0  0  0  0  0  0  0  0  0  0  0  0
    4.1422   12.7144   20.6540 C   0  0  0  0  0  0  0  0  0  0  0  0
    3.2337   11.4068   18.3632 C   0  0  0  0  0  0  0  0  0  0  0  0
    2.9041   13.0483   20.1050 C   0  0  0  0  0  0  0  0  0  0  0  0
    4.9260   11.7266   20.0576 C   0  0  0  0  0  0  0  0  0  0  0  0
    2.4499   12.3945   18.9596 C   0  0  0  0  0  0  0  0  0  0  0  0
    7.0464   12.2024   21.3179 C   0  0  0  0  0  0  0  0  0  0  0  0
    8.1866   11.0972   24.0456 C   0  0  0  0  0  0  0  0  0  0  0  0
    8.7985   11.8613   22.8873 C   0  0  0  0  0  0  0  0  0  0  0  0
   -0.1267   11.7269   19.1016 N   0  0  0  0  0  0  0  0  0  0  0  0
    6.1642   11.3926   20.6067 N   0  0  0  0  0  0  0  0  0  0  0  0
    6.9000   13.3851   21.6014 O   0  0  0  0  0  0  0  0  0  0  0  0
    0.5702   14.1721   18.6760 O   0  0  0  0  0  0  0  0  0  0  0  0
    0.9101   12.4593   16.8598 O   0  0  0  0  0  0  0  0  0  0  0  0
    8.3477    9.7023   23.8183 O   0  0  0  0  0  0  0  0  0  0  0  0
    8.1474   11.4696   21.6731 O   0  0  0  0  0  0  0  0  0  0  0  0
    0.9001   12.8123   18.2726 S   0  0  0  0  0  0  0  0  0  0  0  0
    5.0741   10.3014   18.4391 H   0  0  0  0  0  0  0  0  0  0  0  0
    4.4862   13.2305   21.5467 H   0  0  0  0  0  0  0  0  0  0  0  0
    2.8893   10.8911   17.4708 H   0  0  0  0  0  0  0  0  0  0  0  0
    2.3016   13.8194   20.5775 H   0  0  0  0  0  0  0  0  0  0  0  0
    7.1162   11.3066   24.1347 H   0  0  0  0  0  0  0  0  0  0  0  0
    8.6915   11.3524   24.9819 H   0  0  0  0  0  0  0  0  0  0  0  0
    9.8659   11.6400   22.7885 H   0  0  0  0  0  0  0  0  0  0  0  0
    8.6561   12.9376   23.0208 H   0  0  0  0  0  0  0  0  0  0  0  0
   -0.0732   10.7306   18.8567 H   0  0  0  0  0  0  0  0  0  0  0  0
   -0.3080   11.9004   20.0977 H   0  0  0  0  0  0  0  0  0  0  0  0
    6.4648   10.4221   20.4683 H   0  0  0  0  0  0  0  0  0  0  0  0
    7.8895    9.5004   22.9869 H   0  0  0  0  0  0  0  0  0  0  0  0
  1  3  2  0  0  0  0
  1  5  1  0  0  0  0
  2  4  1  0  0  0  0
  2  5  2  0  0  0  0
  3  6  1  0  0  0  0
  4  6  2  0  0  0  0
  5 11  1  0  0  0  0
  6 17  1  0  0  0  0
  7 11  1  0  0  0  0
  7 12  2  0  0  0  0
  7 16  1  0  0  0  0
  8  9  1  0  0  0  0
  8 15  1  0  0  0  0
  9 16  1  0  0  0  0
 10 17  1  0  0  0  0
 13 17  2  0  0  0  0
 14 17  2  0  0  0  0
  1 18  1  0  0  0  0
  2 19  1  0  0  0  0
  3 20  1  0  0  0  0
  4 21  1  0  0  0  0
  8 22  1  0  0  0  0
  8 23  1  0  0  0  0
  9 24  1  0  0  0  0
  9 25  1  0  0  0  0
 10 26  1  0  0  0  0
 10 27  1  0  0  0  0
 11 28  1  0  0  0  0
 15 29  1  0  0  0  0
M  END
> <Mol Weight>
260,26

> <Formula>
C9H12N2O5S

> <ID>
EN300-1608395

> <name>
Sulfonamides

> <LogP>
-0,25

> <ROCS_ShapeQuery>
x0310_0A_x0719_0A_x1080_0A_x0739_0A_x0929_0A_x0526_0A_x0911_0A

> <ROCS_TanimotoCombo>
0.339 

> <ROCS_ShapeTanimoto>
0.213 

> <ROCS_ColorTanimoto>
0.127 

> <ROCS_RefTversky>
0.199 

> <ROCS_RefColorTversky>
0.147 

> <ROCS_RefTverskyCombo>
0.347 

> <ROCS_FitTversky>
1.451 

> <ROCS_FitColorTversky>
0.472 

> <ROCS_FitTverskyCombo>
1.923 

> <ROCS_ColorScore>
-4.300

> <ROCS_Overlap>
1598.184

> <ROCS_Rank>
90                  

$$$$
untitled-dbase-2634_55
  -OEChem-02092407103D

 40 40  0     0  0  0  0  0  0999 V2000
    6.9745   12.2795   20.9448 C   0  0  0  0  0  0  0  0  0  0  0  0
    9.1352   10.2025   23.3034 C   0  0  0  0  0  0  0  0  0  0  0  0
    8.3849   10.6521   24.5573 C   0  0  0  0  0  0  0  0  0  0  0  0
    9.4553   11.4751   22.5208 C   0  0  0  0  0  0  0  0  0  0  0  0
    8.2909   12.1748   24.4725 C   0  0  0  0  0  0  0  0  0  0  0  0
    8.3988   12.4879   22.9761 C   0  0  0  0  0  0  0  0  0  0  0  0
    6.2082   10.9520   18.5364 C   0  0  0  0  0  0  0  0  0  0  0  0
    3.8699   11.6749   19.1009 C   0  0  0  0  0  0  0  0  0  0  0  0
    5.6438   13.4009   18.6739 C   0  0  0  0  0  0  0  0  0  0  0  0
    8.8304   13.9278   22.7174 C   0  0  0  0  0  0  0  0  0  0  0  0
    5.3540   12.0092   19.2344 C   0  0  0  0  0  0  0  0  0  0  0  0
    6.5267   14.9677   21.9033 N   0  0  0  0  0  0  0  0  0  0  0  0
    7.1333   12.2401   22.3100 N   0  0  0  0  0  0  0  0  0  0  0  0
    7.8529   12.5221   20.1237 O   0  0  0  0  0  0  0  0  0  0  0  0
    6.9229   14.5139   24.4041 O   0  0  0  0  0  0  0  0  0  0  0  0
    8.1725   16.3953   23.2709 O   0  0  0  0  0  0  0  0  0  0  0  0
    5.6734   12.0044   20.6303 O   0  0  0  0  0  0  0  0  0  0  0  0
    7.5904   15.0626   23.2338 S   0  0  0  0  0  0  0  0  0  0  0  0
   10.0476    9.6510   23.5524 H   0  0  0  0  0  0  0  0  0  0  0  0
    8.5021    9.5339   22.7087 H   0  0  0  0  0  0  0  0  0  0  0  0
    7.3834   10.2068   24.5717 H   0  0  0  0  0  0  0  0  0  0  0  0
    8.8961   10.3364   25.4724 H   0  0  0  0  0  0  0  0  0  0  0  0
   10.4615   11.8202   22.7915 H   0  0  0  0  0  0  0  0  0  0  0  0
    9.4512   11.3056   21.4387 H   0  0  0  0  0  0  0  0  0  0  0  0
    7.3709   12.5570   24.9278 H   0  0  0  0  0  0  0  0  0  0  0  0
    9.1326   12.6184   25.0199 H   0  0  0  0  0  0  0  0  0  0  0  0
    7.2742   11.1883   18.6300 H   0  0  0  0  0  0  0  0  0  0  0  0
    6.0354    9.9543   18.9530 H   0  0  0  0  0  0  0  0  0  0  0  0
    5.9916   10.9208   17.4625 H   0  0  0  0  0  0  0  0  0  0  0  0
    3.2532   12.4310   19.6002 H   0  0  0  0  0  0  0  0  0  0  0  0
    3.6398   10.7194   19.5860 H   0  0  0  0  0  0  0  0  0  0  0  0
    3.5622   11.6142   18.0520 H   0  0  0  0  0  0  0  0  0  0  0  0
    5.0312   14.1594   19.1744 H   0  0  0  0  0  0  0  0  0  0  0  0
    6.6974   13.6729   18.7945 H   0  0  0  0  0  0  0  0  0  0  0  0
    5.3907   13.4524   17.6087 H   0  0  0  0  0  0  0  0  0  0  0  0
    9.0014   14.0854   21.6539 H   0  0  0  0  0  0  0  0  0  0  0  0
    9.7392   14.1550   23.2716 H   0  0  0  0  0  0  0  0  0  0  0  0
    5.6245   14.4974   22.0464 H   0  0  0  0  0  0  0  0  0  0  0  0
    6.4758   15.7786   21.2745 H   0  0  0  0  0  0  0  0  0  0  0  0
    6.3251   12.0271   22.8805 H   0  0  0  0  0  0  0  0  0  0  0  0
  1 13  1  0  0  0  0
  1 14  2  0  0  0  0
  1 17  1  0  0  0  0
  2  3  1  0  0  0  0
  2  4  1  0  0  0  0
  3  5  1  0  0  0  0
  4  6  1  0  0  0  0
  5  6  1  0  0  0  0
  6 10  1  0  0  0  0
  6 13  1  0  0  0  0
  7 11  1  0  0  0  0
  8 11  1  0  0  0  0
  9 11  1  0  0  0  0
 10 18  1  0  0  0  0
 11 17  1  0  0  0  0
 12 18  1  0  0  0  0
 15 18  2  0  0  0  0
 16 18  2  0  0  0  0
  2 19  1  0  0  0  0
  2 20  1  0  0  0  0
  3 21  1  0  0  0  0
  3 22  1  0  0  0  0
  4 23  1  0  0  0  0
  4 24  1  0  0  0  0
  5 25  1  0  0  0  0
  5 26  1  0  0  0  0
  7 27  1  0  0  0  0
  7 28  1  0  0  0  0
  7 29  1  0  0  0  0
  8 30  1  0  0  0  0
  8 31  1  0  0  0  0
  8 32  1  0  0  0  0
  9 33  1  0  0  0  0
  9 34  1  0  0  0  0
  9 35  1  0  0  0  0
 10 36  1  0  0  0  0
 10 37  1  0  0  0  0
 12 38  1  0  0  0  0
 12 39  1  0  0  0  0
 13 40  1  0  0  0  0
M  END
> <Mol Weight>
278,37

> <Formula>
C11H22N2O4S

> <ID>
EN300-1873712

> <name>
Sulfonamides

> <LogP>
0,59

> <ROCS_ShapeQuery>
x0310_0A_x0719_0A_x1080_0A_x0739_0A_x0929_0A_x0526_0A_x0911_0A

> <ROCS_TanimotoCombo>
0.339 

> <ROCS_ShapeTanimoto>
0.191 

> <ROCS_ColorTanimoto>
0.148 

> <ROCS_RefTversky>
0.183 

> <ROCS_RefColorTversky>
0.165 

> <ROCS_RefTverskyCombo>
0.348 

> <ROCS_FitTversky>
1.290 

> <ROCS_FitColorTversky>
0.587 

> <ROCS_FitTverskyCombo>
1.877 

> <ROCS_ColorScore>
-4.793

> <ROCS_Overlap>
1469.558

> <ROCS_Rank>
91                  

$$$$
untitled-dbase-1460_54
  -OEChem-02092407103D

 23 23  0     0  0  0  0  0  0999 V2000
   10.1122   11.0489   24.2744 C   0  0  0  0  0  0  0  0  0  0  0  0
   10.0206   11.9971   23.2556 C   0  0  0  0  0  0  0  0  0  0  0  0
    8.9585   10.4335   24.7603 C   0  0  0  0  0  0  0  0  0  0  0  0
    7.6216   11.7148   23.2086 C   0  0  0  0  0  0  0  0  0  0  0  0
    8.7753   12.3302   22.7227 C   0  0  0  0  0  0  0  0  0  0  0  0
    7.7132   10.7665   24.2274 C   0  0  0  0  0  0  0  0  0  0  0  0
    8.6780   13.3451   21.6342 C   0  0  0  0  0  0  0  0  0  0  0  0
    7.3628   14.1291   21.6419 C   0  0  0  0  0  0  0  0  0  0  0  0
    5.6217   15.7754   22.7861 N   0  0  0  0  0  0  0  0  0  0  0  0
    6.9744   14.1279   24.2257 O   0  0  0  0  0  0  0  0  0  0  0  0
    8.1448   16.1014   23.1670 O   0  0  0  0  0  0  0  0  0  0  0  0
    7.1323   15.0608   23.1236 S   0  0  0  0  0  0  0  0  0  0  0  0
    6.2901   10.0078   24.8280 Cl  0  0  0  0  0  0  0  0  0  0  0  0
   11.0821   10.7899   24.6892 H   0  0  0  0  0  0  0  0  0  0  0  0
   10.9247   12.4717   22.8832 H   0  0  0  0  0  0  0  0  0  0  0  0
    9.0450    9.6964   25.5548 H   0  0  0  0  0  0  0  0  0  0  0  0
    6.6530   11.9776   22.7894 H   0  0  0  0  0  0  0  0  0  0  0  0
    8.7689   12.8430   20.6555 H   0  0  0  0  0  0  0  0  0  0  0  0
    9.5219   14.0555   21.6754 H   0  0  0  0  0  0  0  0  0  0  0  0
    7.3462   14.8572   20.8246 H   0  0  0  0  0  0  0  0  0  0  0  0
    6.4936   13.4729   21.5361 H   0  0  0  0  0  0  0  0  0  0  0  0
    4.8056   15.4400   23.3124 H   0  0  0  0  0  0  0  0  0  0  0  0
    5.6027   16.7840   22.5912 H   0  0  0  0  0  0  0  0  0  0  0  0
  1  2  2  0  0  0  0
  1  3  1  0  0  0  0
  2  5  1  0  0  0  0
  3  6  2  0  0  0  0
  4  5  2  0  0  0  0
  4  6  1  0  0  0  0
  5  7  1  0  0  0  0
  6 13  1  0  0  0  0
  7  8  1  0  0  0  0
  8 12  1  0  0  0  0
  9 12  1  0  0  0  0
 10 12  2  0  0  0  0
 11 12  2  0  0  0  0
  1 14  1  0  0  0  0
  2 15  1  0  0  0  0
  3 16  1  0  0  0  0
  4 17  1  0  0  0  0
  7 18  1  0  0  0  0
  7 19  1  0  0  0  0
  8 20  1  0  0  0  0
  8 21  1  0  0  0  0
  9 22  1  0  0  0  0
  9 23  1  0  0  0  0
M  END
> <Mol Weight>
219,68

> <Formula>
C8H10ClNO2S

> <ID>
EN300-209625

> <name>
Sulfonamides

> <LogP>
1,23

> <ROCS_ShapeQuery>
x0310_0A_x0719_0A_x1080_0A_x0739_0A_x0929_0A_x0526_0A_x0911_0A

> <ROCS_TanimotoCombo>
0.339 

> <ROCS_ShapeTanimoto>
0.162 

> <ROCS_ColorTanimoto>
0.177 

> <ROCS_RefTversky>
0.155 

> <ROCS_RefColorTversky>
0.178 

> <ROCS_RefTverskyCombo>
0.333 

> <ROCS_FitTversky>
1.357 

> <ROCS_FitColorTversky>
0.968 

> <ROCS_FitTverskyCombo>
2.325 

> <ROCS_ColorScore>
-5.147

> <ROCS_Overlap>
1243.285

> <ROCS_Rank>
92                  

$$$$
untitled-dbase-2629_638
  -OEChem-02092407103D

 40 40  0     0  0  0  0  0  0999 V2000
    5.4685   11.9777   20.3566 C   0  0  0  0  0  0  0  0  0  0  0  0
    9.5712   11.0569   24.0464 C   0  0  0  0  0  0  0  0  0  0  0  0
    8.9989   11.0637   22.6157 C   0  0  0  0  0  0  0  0  0  0  0  0
    8.2917   11.7809   24.5078 C   0  0  0  0  0  0  0  0  0  0  0  0
    8.0845   12.2514   23.0379 C   0  0  0  0  0  0  0  0  0  0  0  0
    3.7487   13.0480   18.3451 C   0  0  0  0  0  0  0  0  0  0  0  0
    5.2262   11.8485   16.7058 C   0  0  0  0  0  0  0  0  0  0  0  0
    3.9351   10.5391   18.4165 C   0  0  0  0  0  0  0  0  0  0  0  0
    6.6462   12.1332   22.5452 C   0  0  0  0  0  0  0  0  0  0  0  0
    8.6689   13.6311   22.7334 C   0  0  0  0  0  0  0  0  0  0  0  0
    4.6690   11.8478   18.1276 C   0  0  0  0  0  0  0  0  0  0  0  0
    6.4820   14.8902   21.9067 N   0  0  0  0  0  0  0  0  0  0  0  0
    6.6245   12.0848   21.1213 N   0  0  0  0  0  0  0  0  0  0  0  0
    4.3295   11.9117   20.8070 O   0  0  0  0  0  0  0  0  0  0  0  0
    6.8529   14.4656   24.4165 O   0  0  0  0  0  0  0  0  0  0  0  0
    8.2858   16.1695   23.2209 O   0  0  0  0  0  0  0  0  0  0  0  0
    5.7789   11.9560   19.0260 O   0  0  0  0  0  0  0  0  0  0  0  0
    7.5641   14.9059   23.2258 S   0  0  0  0  0  0  0  0  0  0  0  0
    9.7393   10.0692   24.4836 H   0  0  0  0  0  0  0  0  0  0  0  0
   10.4835   11.6529   24.1614 H   0  0  0  0  0  0  0  0  0  0  0  0
    9.7240   11.2673   21.8227 H   0  0  0  0  0  0  0  0  0  0  0  0
    8.4606   10.1417   22.3648 H   0  0  0  0  0  0  0  0  0  0  0  0
    7.5207   11.0952   24.8792 H   0  0  0  0  0  0  0  0  0  0  0  0
    8.4421   12.5676   25.2529 H   0  0  0  0  0  0  0  0  0  0  0  0
    3.3467   13.0512   19.3646 H   0  0  0  0  0  0  0  0  0  0  0  0
    4.2727   13.9942   18.1751 H   0  0  0  0  0  0  0  0  0  0  0  0
    2.8846   13.0052   17.6722 H   0  0  0  0  0  0  0  0  0  0  0  0
    5.8871   10.9891   16.5453 H   0  0  0  0  0  0  0  0  0  0  0  0
    5.8334   12.7428   16.5250 H   0  0  0  0  0  0  0  0  0  0  0  0
    4.4267   11.8154   15.9585 H   0  0  0  0  0  0  0  0  0  0  0  0
    4.5950    9.6780   18.2606 H   0  0  0  0  0  0  0  0  0  0  0  0
    3.5601   10.5054   19.4445 H   0  0  0  0  0  0  0  0  0  0  0  0
    3.0887   10.4078   17.7326 H   0  0  0  0  0  0  0  0  0  0  0  0
    6.2332   11.2168   22.9650 H   0  0  0  0  0  0  0  0  0  0  0  0
    6.1061   13.0076   22.9062 H   0  0  0  0  0  0  0  0  0  0  0  0
    8.8440   13.7364   21.6651 H   0  0  0  0  0  0  0  0  0  0  0  0
    9.6017   13.7708   23.2748 H   0  0  0  0  0  0  0  0  0  0  0  0
    5.5360   14.5243   22.0702 H   0  0  0  0  0  0  0  0  0  0  0  0
    6.5120   15.6846   21.2559 H   0  0  0  0  0  0  0  0  0  0  0  0
    7.5214   12.1323   20.6277 H   0  0  0  0  0  0  0  0  0  0  0  0
  1 13  1  0  0  0  0
  1 14  2  0  0  0  0
  1 17  1  0  0  0  0
  2  3  1  0  0  0  0
  2  4  1  0  0  0  0
  3  5  1  0  0  0  0
  4  5  1  0  0  0  0
  5  9  1  0  0  0  0
  5 10  1  0  0  0  0
  6 11  1  0  0  0  0
  7 11  1  0  0  0  0
  8 11  1  0  0  0  0
  9 13  1  0  0  0  0
 10 18  1  0  0  0  0
 11 17  1  0  0  0  0
 12 18  1  0  0  0  0
 15 18  2  0  0  0  0
 16 18  2  0  0  0  0
  2 19  1  0  0  0  0
  2 20  1  0  0  0  0
  3 21  1  0  0  0  0
  3 22  1  0  0  0  0
  4 23  1  0  0  0  0
  4 24  1  0  0  0  0
  6 25  1  0  0  0  0
  6 26  1  0  0  0  0
  6 27  1  0  0  0  0
  7 28  1  0  0  0  0
  7 29  1  0  0  0  0
  7 30  1  0  0  0  0
  8 31  1  0  0  0  0
  8 32  1  0  0  0  0
  8 33  1  0  0  0  0
  9 34  1  0  0  0  0
  9 35  1  0  0  0  0
 10 36  1  0  0  0  0
 10 37  1  0  0  0  0
 12 38  1  0  0  0  0
 12 39  1  0  0  0  0
 13 40  1  0  0  0  0
M  END
> <Mol Weight>
278,37

> <Formula>
C11H22N2O4S

> <ID>
EN300-39869865

> <name>
Sulfonamides

> <LogP>
0,32

> <ROCS_ShapeQuery>
x0310_0A_x0719_0A_x1080_0A_x0739_0A_x0929_0A_x0526_0A_x0911_0A

> <ROCS_TanimotoCombo>
0.338 

> <ROCS_ShapeTanimoto>
0.199 

> <ROCS_ColorTanimoto>
0.140 

> <ROCS_RefTversky>
0.189 

> <ROCS_RefColorTversky>
0.157 

> <ROCS_RefTverskyCombo>
0.346 

> <ROCS_FitTversky>
1.339 

> <ROCS_FitColorTversky>
0.560 

> <ROCS_FitTverskyCombo>
1.899 

> <ROCS_ColorScore>
-4.573

> <ROCS_Overlap>
1515.551

> <ROCS_Rank>
93                  

$$$$
untitled-dbase-1474_671
  -OEChem-02092407103D

 30 30  0     0  0  0  0  0  0999 V2000
    7.3111   13.3010   22.3416 C   0  0  0  0  0  0  0  0  0  0  0  0
    9.2821   10.0857   24.2118 C   0  0  0  0  0  0  0  0  0  0  0  0
    9.6501   10.6302   22.8326 C   0  0  0  0  0  0  0  0  0  0  0  0
    7.8738   10.5220   24.6132 C   0  0  0  0  0  0  0  0  0  0  0  0
    9.4559   12.1425   22.7662 C   0  0  0  0  0  0  0  0  0  0  0  0
    7.7119   12.0372   24.5124 C   0  0  0  0  0  0  0  0  0  0  0  0
    5.9943   17.4043   24.2369 C   0  0  0  0  0  0  0  0  0  0  0  0
    5.9280   13.6388   22.8383 C   0  0  0  0  0  0  0  0  0  0  0  0
    8.1012   12.5150   23.1797 N   0  0  0  0  0  0  0  0  0  0  0  0
    5.8484   15.0656   22.9205 N   0  0  0  0  0  0  0  0  0  0  0  0
    7.6756   13.7220   21.2407 O   0  0  0  0  0  0  0  0  0  0  0  0
    8.0969   16.3434   23.0950 O   0  0  0  0  0  0  0  0  0  0  0  0
    7.1527   15.2597   25.1664 O   0  0  0  0  0  0  0  0  0  0  0  0
    6.9608   15.9491   23.9050 S   0  0  0  0  0  0  0  0  0  0  0  0
    9.3471    8.9920   24.2100 H   0  0  0  0  0  0  0  0  0  0  0  0
   10.0033   10.4502   24.9535 H   0  0  0  0  0  0  0  0  0  0  0  0
   10.6928   10.3813   22.6055 H   0  0  0  0  0  0  0  0  0  0  0  0
    9.0300   10.1468   22.0677 H   0  0  0  0  0  0  0  0  0  0  0  0
    7.1367   10.0311   23.9653 H   0  0  0  0  0  0  0  0  0  0  0  0
    7.6674   10.1961   25.6388 H   0  0  0  0  0  0  0  0  0  0  0  0
   10.1547   12.6488   23.4427 H   0  0  0  0  0  0  0  0  0  0  0  0
    9.6668   12.4979   21.7526 H   0  0  0  0  0  0  0  0  0  0  0  0
    6.6845   12.3082   24.7614 H   0  0  0  0  0  0  0  0  0  0  0  0
    8.3635   12.5392   25.2376 H   0  0  0  0  0  0  0  0  0  0  0  0
    6.5838   18.0732   24.8658 H   0  0  0  0  0  0  0  0  0  0  0  0
    5.7564   17.8839   23.2863 H   0  0  0  0  0  0  0  0  0  0  0  0
    5.0813   17.1011   24.7516 H   0  0  0  0  0  0  0  0  0  0  0  0
    5.7969   13.1801   23.8138 H   0  0  0  0  0  0  0  0  0  0  0  0
    5.2070   13.2441   22.1284 H   0  0  0  0  0  0  0  0  0  0  0  0
    5.5665   15.5617   22.0435 H   0  0  0  0  0  0  0  0  0  0  0  0
  1  8  1  0  0  0  0
  1  9  1  0  0  0  0
  1 11  2  0  0  0  0
  2  3  1  0  0  0  0
  2  4  1  0  0  0  0
  3  5  1  0  0  0  0
  4  6  1  0  0  0  0
  5  9  1  0  0  0  0
  6  9  1  0  0  0  0
  7 14  1  0  0  0  0
  8 10  1  0  0  0  0
 10 14  1  0  0  0  0
 12 14  2  0  0  0  0
 13 14  2  0  0  0  0
  2 15  1  0  0  0  0
  2 16  1  0  0  0  0
  3 17  1  0  0  0  0
  3 18  1  0  0  0  0
  4 19  1  0  0  0  0
  4 20  1  0  0  0  0
  5 21  1  0  0  0  0
  5 22  1  0  0  0  0
  6 23  1  0  0  0  0
  6 24  1  0  0  0  0
  7 25  1  0  0  0  0
  7 26  1  0  0  0  0
  7 27  1  0  0  0  0
  8 28  1  0  0  0  0
  8 29  1  0  0  0  0
 10 30  1  0  0  0  0
M  END
> <Mol Weight>
220,29

> <Formula>
C8H16N2O3S

> <ID>
EN300-7530328

> <name>
Sulfonamides

> <LogP>
-1,34

> <ROCS_ShapeQuery>
x0310_0A_x0719_0A_x1080_0A_x0739_0A_x0929_0A_x0526_0A_x0911_0A

> <ROCS_TanimotoCombo>
0.338 

> <ROCS_ShapeTanimoto>
0.175 

> <ROCS_ColorTanimoto>
0.163 

> <ROCS_RefTversky>
0.167 

> <ROCS_RefColorTversky>
0.170 

> <ROCS_RefTverskyCombo>
0.337 

> <ROCS_FitTversky>
1.395 

> <ROCS_FitColorTversky>
0.788 

> <ROCS_FitTverskyCombo>
2.183 

> <ROCS_ColorScore>
-4.937

> <ROCS_Overlap>
1337.807

> <ROCS_Rank>
94                  

$$$$
untitled-dbase-2266_11
  -OEChem-02092407103D

 27 27  0     0  0  0  0  0  0999 V2000
   10.0625   14.1053   23.0831 C   0  0  0  0  0  0  0  0  0  0  0  0
    8.5060   12.5798   24.3746 C   0  0  0  0  0  0  0  0  0  0  0  0
    9.4858   11.8731   22.0883 C   0  0  0  0  0  0  0  0  0  0  0  0
    9.3350   11.4281   24.9238 C   0  0  0  0  0  0  0  0  0  0  0  0
    8.7444   10.5644   22.3258 C   0  0  0  0  0  0  0  0  0  0  0  0
    8.9556   13.0411   22.9623 C   0  0  0  0  0  0  0  0  0  0  0  0
    7.7939   13.6679   22.2854 C   0  0  0  0  0  0  0  0  0  0  0  0
   10.8963   14.9070   23.1742 N   0  0  0  0  0  0  0  0  0  0  0  0
    5.8980   15.5261   22.2239 N   0  0  0  0  0  0  0  0  0  0  0  0
    7.8516    9.3129   24.4477 O   0  0  0  0  0  0  0  0  0  0  0  0
   10.3208    9.2117   23.9345 O   0  0  0  0  0  0  0  0  0  0  0  0
    6.6417   14.5185   24.4708 O   0  0  0  0  0  0  0  0  0  0  0  0
    8.2025   16.0701   23.2290 O   0  0  0  0  0  0  0  0  0  0  0  0
    9.0679    9.9412   23.9693 S   0  0  0  0  0  0  0  0  0  0  0  0
    7.1900   15.0234   23.2197 S   0  0  0  0  0  0  0  0  0  0  0  0
    7.4577   12.2764   24.3486 H   0  0  0  0  0  0  0  0  0  0  0  0
    8.5711   13.4232   25.0660 H   0  0  0  0  0  0  0  0  0  0  0  0
   10.5467   11.7206   22.2960 H   0  0  0  0  0  0  0  0  0  0  0  0
    9.4058   12.1344   21.0324 H   0  0  0  0  0  0  0  0  0  0  0  0
   10.3988   11.6545   24.8600 H   0  0  0  0  0  0  0  0  0  0  0  0
    9.0886   11.2024   25.9593 H   0  0  0  0  0  0  0  0  0  0  0  0
    7.6677   10.6787   22.2238 H   0  0  0  0  0  0  0  0  0  0  0  0
    9.0820    9.7989   21.6283 H   0  0  0  0  0  0  0  0  0  0  0  0
    6.9954   12.9416   22.1852 H   0  0  0  0  0  0  0  0  0  0  0  0
    8.0945   14.0339   21.3104 H   0  0  0  0  0  0  0  0  0  0  0  0
    6.1323   15.9770   21.3309 H   0  0  0  0  0  0  0  0  0  0  0  0
    5.0694   14.9204   22.1769 H   0  0  0  0  0  0  0  0  0  0  0  0
  1  6  1  0  0  0  0
  1  8  3  0  0  0  0
  2  4  1  0  0  0  0
  2  6  1  0  0  0  0
  3  5  1  0  0  0  0
  3  6  1  0  0  0  0
  4 14  1  0  0  0  0
  5 14  1  0  0  0  0
  6  7  1  0  0  0  0
  7 15  1  0  0  0  0
  9 15  1  0  0  0  0
 10 14  2  0  0  0  0
 11 14  2  0  0  0  0
 12 15  2  0  0  0  0
 13 15  2  0  0  0  0
  2 16  1  0  0  0  0
  2 17  1  0  0  0  0
  3 18  1  0  0  0  0
  3 19  1  0  0  0  0
  4 20  1  0  0  0  0
  4 21  1  0  0  0  0
  5 22  1  0  0  0  0
  5 23  1  0  0  0  0
  7 24  1  0  0  0  0
  7 25  1  0  0  0  0
  9 26  1  0  0  0  0
  9 27  1  0  0  0  0
M  END
> <Mol Weight>
252,30

> <Formula>
C7H12N2O4S2

> <ID>
EN300-6764855

> <name>
Sulfonamides

> <LogP>
-2,45

> <ROCS_ShapeQuery>
x0310_0A_x0719_0A_x1080_0A_x0739_0A_x0929_0A_x0526_0A_x0911_0A

> <ROCS_TanimotoCombo>
0.337 

> <ROCS_ShapeTanimoto>
0.171 

> <ROCS_ColorTanimoto>
0.166 

> <ROCS_RefTversky>
0.164 

> <ROCS_RefColorTversky>
0.183 

> <ROCS_RefTverskyCombo>
0.347 

> <ROCS_FitTversky>
1.328 

> <ROCS_FitColorTversky>
0.651 

> <ROCS_FitTverskyCombo>
1.978 

> <ROCS_ColorScore>
-5.316

> <ROCS_Overlap>
1313.120

> <ROCS_Rank>
95                  

$$$$
untitled-dbase-2686_27
  -OEChem-02092407103D

 26 26  0     0  0  0  0  0  0999 V2000
    2.5469   12.8450   21.0764 C   0  0  0  0  0  0  0  0  0  0  0  0
    3.6413   13.3680   21.7650 C   0  0  0  0  0  0  0  0  0  0  0  0
    5.0639   12.8815   19.8738 C   0  0  0  0  0  0  0  0  0  0  0  0
    3.9695   12.3584   19.1851 C   0  0  0  0  0  0  0  0  0  0  0  0
    2.7110   12.3400   19.7864 C   0  0  0  0  0  0  0  0  0  0  0  0
    4.8998   13.3864   21.1637 C   0  0  0  0  0  0  0  0  0  0  0  0
    5.0517   16.5094   21.8852 C   0  0  0  0  0  0  0  0  0  0  0  0
    4.1495   11.8515   17.8796 N   0  0  0  0  0  0  0  0  0  0  0  0
    6.2325   15.6908   21.5750 N   0  0  0  0  0  0  0  0  0  0  0  0
    6.0108   13.9463   23.4576 O   0  0  0  0  0  0  0  0  0  0  0  0
    7.4733   13.4362   21.4764 O   0  0  0  0  0  0  0  0  0  0  0  0
    0.4430   14.0331   18.8015 O   0  0  0  0  0  0  0  0  0  0  0  0
    1.0655   12.6060   16.7985 O   0  0  0  0  0  0  0  0  0  0  0  0
    1.6289   11.8331   19.1309 O   0  0  0  0  0  0  0  0  0  0  0  0
   -0.7660   12.0259   18.2492 F   0  0  0  0  0  0  0  0  0  0  0  0
    6.2687   14.0429   22.0267 S   0  0  0  0  0  0  0  0  0  0  0  0
    0.6518   12.7398   18.1811 S   0  0  0  0  0  0  0  0  0  0  0  0
    1.5693   12.8329   21.5507 H   0  0  0  0  0  0  0  0  0  0  0  0
    3.5019   13.7585   22.7695 H   0  0  0  0  0  0  0  0  0  0  0  0
    6.0452   12.8958   19.4050 H   0  0  0  0  0  0  0  0  0  0  0  0
    4.5341   16.0904   22.7607 H   0  0  0  0  0  0  0  0  0  0  0  0
    5.3674   17.5400   22.1045 H   0  0  0  0  0  0  0  0  0  0  0  0
    4.3696   16.5107   21.0222 H   0  0  0  0  0  0  0  0  0  0  0  0
    3.3731   11.4350   17.4083 H   0  0  0  0  0  0  0  0  0  0  0  0
    5.0685   11.8329   17.4879 H   0  0  0  0  0  0  0  0  0  0  0  0
    6.7927   15.9950   20.7694 H   0  0  0  0  0  0  0  0  0  0  0  0
  1  2  2  0  0  0  0
  1  5  1  0  0  0  0
  2  6  1  0  0  0  0
  3  4  1  0  0  0  0
  3  6  2  0  0  0  0
  4  5  2  0  0  0  0
  4  8  1  0  0  0  0
  5 14  1  0  0  0  0
  6 16  1  0  0  0  0
  7  9  1  0  0  0  0
  9 16  1  0  0  0  0
 10 16  2  0  0  0  0
 11 16  2  0  0  0  0
 12 17  2  0  0  0  0
 13 17  2  0  0  0  0
 14 17  1  0  0  0  0
 15 17  1  0  0  0  0
  1 18  1  0  0  0  0
  2 19  1  0  0  0  0
  3 20  1  0  0  0  0
  7 21  1  0  0  0  0
  7 22  1  0  0  0  0
  7 23  1  0  0  0  0
  8 24  1  0  0  0  0
  8 25  1  0  0  0  0
  9 26  1  0  0  0  0
M  END
> <Mol Weight>
284,28

> <Formula>
C7H9FN2O5S2

> <ID>
EN300-7489981

> <name>
Sulfonamides

> <LogP>
-0,33

> <ROCS_ShapeQuery>
x0310_0A_x0719_0A_x1080_0A_x0739_0A_x0929_0A_x0526_0A_x0911_0A

> <ROCS_TanimotoCombo>
0.337 

> <ROCS_ShapeTanimoto>
0.178 

> <ROCS_ColorTanimoto>
0.159 

> <ROCS_RefTversky>
0.171 

> <ROCS_RefColorTversky>
0.181 

> <ROCS_RefTverskyCombo>
0.352 

> <ROCS_FitTversky>
1.257 

> <ROCS_FitColorTversky>
0.577 

> <ROCS_FitTverskyCombo>
1.835 

> <ROCS_ColorScore>
-5.265

> <ROCS_Overlap>
1372.648

> <ROCS_Rank>
96                  

$$$$
untitled-dbase-1181_2
  -OEChem-02092407103D

 27 28  0     0  0  0  0  0  0999 V2000
    7.6336    8.4176   24.1212 C   0  0  0  0  0  0  0  0  0  0  0  0
    8.5015    8.2194   23.0360 C   0  0  0  0  0  0  0  0  0  0  0  0
    7.4999    9.6793   24.7045 C   0  0  0  0  0  0  0  0  0  0  0  0
    9.2484    9.2802   22.5191 C   0  0  0  0  0  0  0  0  0  0  0  0
    8.2355   10.7276   24.1775 C   0  0  0  0  0  0  0  0  0  0  0  0
    9.1006   10.5302   23.0965 C   0  0  0  0  0  0  0  0  0  0  0  0
    8.2846   12.1464   24.6521 C   0  0  0  0  0  0  0  0  0  0  0  0
    9.8139   11.7973   22.7414 C   0  0  0  0  0  0  0  0  0  0  0  0
    8.9489   12.8616   23.4539 C   0  0  0  0  0  0  0  0  0  0  0  0
    7.8986   13.4514   22.5054 C   0  0  0  0  0  0  0  0  0  0  0  0
    6.1602   15.3647   21.8983 N   0  0  0  0  0  0  0  0  0  0  0  0
    6.5279   14.6900   24.3531 O   0  0  0  0  0  0  0  0  0  0  0  0
    8.3429   15.9502   23.1271 O   0  0  0  0  0  0  0  0  0  0  0  0
    7.2701   14.9665   23.1319 S   0  0  0  0  0  0  0  0  0  0  0  0
    7.0646    7.5791   24.5137 H   0  0  0  0  0  0  0  0  0  0  0  0
    8.5970    7.2293   22.5986 H   0  0  0  0  0  0  0  0  0  0  0  0
    6.8367    9.8280   25.5497 H   0  0  0  0  0  0  0  0  0  0  0  0
    9.9266    9.1224   21.6874 H   0  0  0  0  0  0  0  0  0  0  0  0
    7.2908   12.5426   24.8805 H   0  0  0  0  0  0  0  0  0  0  0  0
    8.9207   12.2109   25.5416 H   0  0  0  0  0  0  0  0  0  0  0  0
   10.8252   11.7762   23.1620 H   0  0  0  0  0  0  0  0  0  0  0  0
    9.8682   11.9542   21.6601 H   0  0  0  0  0  0  0  0  0  0  0  0
    9.5745   13.6917   23.8032 H   0  0  0  0  0  0  0  0  0  0  0  0
    7.0666   12.7613   22.3985 H   0  0  0  0  0  0  0  0  0  0  0  0
    8.3446   13.6485   21.5349 H   0  0  0  0  0  0  0  0  0  0  0  0
    6.5415   15.6574   20.9902 H   0  0  0  0  0  0  0  0  0  0  0  0
    5.3054   14.7993   21.8255 H   0  0  0  0  0  0  0  0  0  0  0  0
  1  2  1  0  0  0  0
  1  3  2  0  0  0  0
  2  4  2  0  0  0  0
  3  5  1  0  0  0  0
  4  6  1  0  0  0  0
  5  6  2  0  0  0  0
  5  7  1  0  0  0  0
  6  8  1  0  0  0  0
  7  9  1  0  0  0  0
  8  9  1  0  0  0  0
  9 10  1  0  0  0  0
 10 14  1  0  0  0  0
 11 14  1  0  0  0  0
 12 14  2  0  0  0  0
 13 14  2  0  0  0  0
  1 15  1  0  0  0  0
  2 16  1  0  0  0  0
  3 17  1  0  0  0  0
  4 18  1  0  0  0  0
  7 19  1  0  0  0  0
  7 20  1  0  0  0  0
  8 21  1  0  0  0  0
  8 22  1  0  0  0  0
  9 23  1  0  0  0  0
 10 24  1  0  0  0  0
 10 25  1  0  0  0  0
 11 26  1  0  0  0  0
 11 27  1  0  0  0  0
M  END
> <Mol Weight>
211,28

> <Formula>
C10H13NO2S

> <ID>
EN300-177740

> <name>
Sulfonamides

> <LogP>
1,04

> <ROCS_ShapeQuery>
x0310_0A_x0719_0A_x1080_0A_x0739_0A_x0929_0A_x0526_0A_x0911_0A

> <ROCS_TanimotoCombo>
0.337 

> <ROCS_ShapeTanimoto>
0.180 

> <ROCS_ColorTanimoto>
0.157 

> <ROCS_RefTversky>
0.172 

> <ROCS_RefColorTversky>
0.165 

> <ROCS_RefTverskyCombo>
0.336 

> <ROCS_FitTversky>
1.394 

> <ROCS_FitColorTversky>
0.761 

> <ROCS_FitTverskyCombo>
2.155 

> <ROCS_ColorScore>
-4.781

> <ROCS_Overlap>
1373.743

> <ROCS_Rank>
97                  

$$$$
untitled-dbase-2825_0
  -OEChem-02092407103D

 39 40  0     0  0  0  0  0  0999 V2000
    5.9339   13.3734   21.8727 B   0  0  0  0  0  0  0  0  0  0  0  0
    3.4461   13.7811   21.3793 C   0  0  0  0  0  0  0  0  0  0  0  0
    2.3172   13.6689   20.5679 C   0  0  0  0  0  0  0  0  0  0  0  0
    4.7534   12.6039   19.7233 C   0  0  0  0  0  0  0  0  0  0  0  0
    4.6643   13.2486   20.9571 C   0  0  0  0  0  0  0  0  0  0  0  0
    3.6245   12.4917   18.9119 C   0  0  0  0  0  0  0  0  0  0  0  0
    2.4063   13.0242   19.3341 C   0  0  0  0  0  0  0  0  0  0  0  0
    7.2184   13.7433   23.7324 C   0  0  0  0  0  0  0  0  0  0  0  0
    8.1295   13.3447   22.5236 C   0  0  0  0  0  0  0  0  0  0  0  0
    7.0090   12.6297   24.7831 C   0  0  0  0  0  0  0  0  0  0  0  0
    7.6571   15.0139   24.4739 C   0  0  0  0  0  0  0  0  0  0  0  0
    9.1261   12.2146   22.8177 C   0  0  0  0  0  0  0  0  0  0  0  0
    8.9137   14.5145   21.8876 C   0  0  0  0  0  0  0  0  0  0  0  0
    3.7396   11.8361   17.6658 N   0  0  0  0  0  0  0  0  0  0  0  0
    0.3173   11.4276   18.8966 N   0  0  0  0  0  0  0  0  0  0  0  0
    0.0680   13.9873   18.7192 O   0  0  0  0  0  0  0  0  0  0  0  0
    1.3773   12.7510   16.9570 O   0  0  0  0  0  0  0  0  0  0  0  0
    5.9152   14.0025   23.1176 O   0  0  0  0  0  0  0  0  0  0  0  0
    7.1827   12.8652   21.5151 O   0  0  0  0  0  0  0  0  0  0  0  0
    0.9669   12.9070   18.3438 S   0  0  0  0  0  0  0  0  0  0  0  0
    3.3481   14.2890   22.3371 H   0  0  0  0  0  0  0  0  0  0  0  0
    1.3735   14.0874   20.9080 H   0  0  0  0  0  0  0  0  0  0  0  0
    5.6974   12.1834   19.3788 H   0  0  0  0  0  0  0  0  0  0  0  0
    6.3686   13.0062   25.5709 H   0  0  0  0  0  0  0  0  0  0  0  0
    7.9712   12.3467   25.1912 H   0  0  0  0  0  0  0  0  0  0  0  0
    6.5445   11.7772   24.3034 H   0  0  0  0  0  0  0  0  0  0  0  0
    6.9697   15.2104   25.2915 H   0  0  0  0  0  0  0  0  0  0  0  0
    7.6516   15.8538   23.7854 H   0  0  0  0  0  0  0  0  0  0  0  0
    8.6594   14.8740   24.8681 H   0  0  0  0  0  0  0  0  0  0  0  0
    9.7113   12.0080   21.9264 H   0  0  0  0  0  0  0  0  0  0  0  0
    8.5827   11.3209   23.1101 H   0  0  0  0  0  0  0  0  0  0  0  0
    9.7877   12.5173   23.6242 H   0  0  0  0  0  0  0  0  0  0  0  0
    9.5081   14.1334   21.0668 H   0  0  0  0  0  0  0  0  0  0  0  0
    9.5577   14.9546   22.6386 H   0  0  0  0  0  0  0  0  0  0  0  0
    8.2095   15.2525   21.5243 H   0  0  0  0  0  0  0  0  0  0  0  0
    4.6357   11.5084   17.3705 H   0  0  0  0  0  0  0  0  0  0  0  0
    2.9440   11.7963   17.0631 H   0  0  0  0  0  0  0  0  0  0  0  0
   -0.5342   11.4606   19.4704 H   0  0  0  0  0  0  0  0  0  0  0  0
    0.3624   10.6172   18.2670 H   0  0  0  0  0  0  0  0  0  0  0  0
  1  5  1  0  0  0  0
  1 18  1  0  0  0  0
  1 19  1  0  0  0  0
  2  3  2  0  0  0  0
  2  5  1  0  0  0  0
  3  7  1  0  0  0  0
  4  5  2  0  0  0  0
  4  6  1  0  0  0  0
  6  7  2  0  0  0  0
  6 14  1  0  0  0  0
  7 20  1  0  0  0  0
  8  9  1  0  0  0  0
  8 10  1  0  0  0  0
  8 11  1  0  0  0  0
  8 18  1  0  0  0  0
  9 12  1  0  0  0  0
  9 13  1  0  0  0  0
  9 19  1  0  0  0  0
 15 20  1  0  0  0  0
 16 20  2  0  0  0  0
 17 20  2  0  0  0  0
  2 21  1  0  0  0  0
  3 22  1  0  0  0  0
  4 23  1  0  0  0  0
 10 24  1  0  0  0  0
 10 25  1  0  0  0  0
 10 26  1  0  0  0  0
 11 27  1  0  0  0  0
 11 28  1  0  0  0  0
 11 29  1  0  0  0  0
 12 30  1  0  0  0  0
 12 31  1  0  0  0  0
 12 32  1  0  0  0  0
 13 33  1  0  0  0  0
 13 34  1  0  0  0  0
 13 35  1  0  0  0  0
 14 36  1  0  0  0  0
 14 37  1  0  0  0  0
 15 38  1  0  0  0  0
 15 39  1  0  0  0  0
M  END
> <Mol Weight>
298,16

> <Formula>
C12H19BN2O4S

> <ID>
EN300-2010035

> <name>
Sulfonamides

> <LogP>
1,75

> <ROCS_ShapeQuery>
x0310_0A_x0719_0A_x1080_0A_x0739_0A_x0929_0A_x0526_0A_x0911_0A

> <ROCS_TanimotoCombo>
0.337 

> <ROCS_ShapeTanimoto>
0.240 

> <ROCS_ColorTanimoto>
0.097 

> <ROCS_RefTversky>
0.223 

> <ROCS_RefColorTversky>
0.119 

> <ROCS_RefTverskyCombo>
0.342 

> <ROCS_FitTversky>
1.443 

> <ROCS_FitColorTversky>
0.346 

> <ROCS_FitTverskyCombo>
1.789 

> <ROCS_ColorScore>
-3.481

> <ROCS_Overlap>
1790.042

> <ROCS_Rank>
98                  

$$$$
untitled-dbase-1351_670
  -OEChem-02092407103D

 27 27  0     0  0  0  0  0  0999 V2000
    9.2109    9.4874   23.6548 C   0  0  0  0  0  0  0  0  0  0  0  0
    8.3410    9.6983   24.7245 C   0  0  0  0  0  0  0  0  0  0  0  0
    9.7719   10.5760   22.9869 C   0  0  0  0  0  0  0  0  0  0  0  0
    8.0318   10.9978   25.1262 C   0  0  0  0  0  0  0  0  0  0  0  0
    9.4627   11.8755   23.3886 C   0  0  0  0  0  0  0  0  0  0  0  0
    8.5927   12.0864   24.4583 C   0  0  0  0  0  0  0  0  0  0  0  0
    8.2624   13.4762   24.8872 C   0  0  0  0  0  0  0  0  0  0  0  0
    7.0275   15.3489   24.1865 C   0  0  0  0  0  0  0  0  0  0  0  0
    7.9420   15.9471   23.1353 C   0  0  0  0  0  0  0  0  0  0  0  0
    5.9296   15.9286   21.4029 N   0  0  0  0  0  0  0  0  0  0  0  0
    8.3536   16.1018   20.5597 O   0  0  0  0  0  0  0  0  0  0  0  0
    7.5323   13.9210   21.5369 O   0  0  0  0  0  0  0  0  0  0  0  0
    7.1185   13.9310   24.1748 O   0  0  0  0  0  0  0  0  0  0  0  0
    7.5374   15.3731   21.5146 S   0  0  0  0  0  0  0  0  0  0  0  0
    9.4526    8.4755   23.3429 H   0  0  0  0  0  0  0  0  0  0  0  0
    7.9050    8.8509   25.2454 H   0  0  0  0  0  0  0  0  0  0  0  0
   10.4501   10.4122   22.1547 H   0  0  0  0  0  0  0  0  0  0  0  0
    7.3528   11.1526   25.9606 H   0  0  0  0  0  0  0  0  0  0  0  0
    9.9043   12.7175   22.8622 H   0  0  0  0  0  0  0  0  0  0  0  0
    8.0471   13.5230   25.9635 H   0  0  0  0  0  0  0  0  0  0  0  0
    9.0975   14.1617   24.6887 H   0  0  0  0  0  0  0  0  0  0  0  0
    7.3141   15.6954   25.1844 H   0  0  0  0  0  0  0  0  0  0  0  0
    5.9827   15.6251   24.0146 H   0  0  0  0  0  0  0  0  0  0  0  0
    8.9880   15.6776   23.3076 H   0  0  0  0  0  0  0  0  0  0  0  0
    7.8456   17.0361   23.1114 H   0  0  0  0  0  0  0  0  0  0  0  0
    5.7376   16.7137   20.7687 H   0  0  0  0  0  0  0  0  0  0  0  0
    5.1783   15.2285   21.4344 H   0  0  0  0  0  0  0  0  0  0  0  0
  1  2  1  0  0  0  0
  1  3  2  0  0  0  0
  2  4  2  0  0  0  0
  3  5  1  0  0  0  0
  4  6  1  0  0  0  0
  5  6  2  0  0  0  0
  6  7  1  0  0  0  0
  7 13  1  0  0  0  0
  8  9  1  0  0  0  0
  8 13  1  0  0  0  0
  9 14  1  0  0  0  0
 10 14  1  0  0  0  0
 11 14  2  0  0  0  0
 12 14  2  0  0  0  0
  1 15  1  0  0  0  0
  2 16  1  0  0  0  0
  3 17  1  0  0  0  0
  4 18  1  0  0  0  0
  5 19  1  0  0  0  0
  7 20  1  0  0  0  0
  7 21  1  0  0  0  0
  8 22  1  0  0  0  0
  8 23  1  0  0  0  0
  9 24  1  0  0  0  0
  9 25  1  0  0  0  0
 10 26  1  0  0  0  0
 10 27  1  0  0  0  0
M  END
> <Mol Weight>
215,27

> <Formula>
C9H13NO3S

> <ID>
EN300-223697

> <name>
Sulfonamides

> <LogP>
0,29

> <ROCS_ShapeQuery>
x0310_0A_x0719_0A_x1080_0A_x0739_0A_x0929_0A_x0526_0A_x0911_0A

> <ROCS_TanimotoCombo>
0.337 

> <ROCS_ShapeTanimoto>
0.181 

> <ROCS_ColorTanimoto>
0.155 

> <ROCS_RefTversky>
0.172 

> <ROCS_RefColorTversky>
0.163 

> <ROCS_RefTverskyCombo>
0.336 

> <ROCS_FitTversky>
1.432 

> <ROCS_FitColorTversky>
0.757 

> <ROCS_FitTverskyCombo>
2.189 

> <ROCS_ColorScore>
-4.742

> <ROCS_Overlap>
1377.726

> <ROCS_Rank>
99                  

$$$$
untitled-dbase-2712_623
  -OEChem-02092407103D

 37 37  0     0  0  0  0  0  0999 V2000
    4.3011   10.9905   18.1671 C   0  0  0  0  0  0  0  0  0  0  0  0
    4.8469   11.4134   19.3790 C   0  0  0  0  0  0  0  0  0  0  0  0
    3.0300   11.4209   17.7867 C   0  0  0  0  0  0  0  0  0  0  0  0
    2.8504   12.6968   19.8304 C   0  0  0  0  0  0  0  0  0  0  0  0
    4.1216   12.2665   20.2107 C   0  0  0  0  0  0  0  0  0  0  0  0
    2.3046   12.2740   18.6184 C   0  0  0  0  0  0  0  0  0  0  0  0
    5.8995   13.4332   21.4764 C   0  0  0  0  0  0  0  0  0  0  0  0
    8.4427   14.6647   21.9774 C   0  0  0  0  0  0  0  0  0  0  0  0
    8.6925   12.9720   23.8164 C   0  0  0  0  0  0  0  0  0  0  0  0
    8.5012   12.2085   21.4313 C   0  0  0  0  0  0  0  0  0  0  0  0
    3.9989   12.3915   22.7288 C   0  0  0  0  0  0  0  0  0  0  0  0
    8.0703   13.2608   22.4520 C   0  0  0  0  0  0  0  0  0  0  0  0
   -0.2621   11.5848   18.8229 N   0  0  0  0  0  0  0  0  0  0  0  0
    4.6881   12.7056   21.4685 N   0  0  0  0  0  0  0  0  0  0  0  0
    6.2977   14.1829   20.5882 O   0  0  0  0  0  0  0  0  0  0  0  0
    0.4302   14.0680   18.8219 O   0  0  0  0  0  0  0  0  0  0  0  0
    0.6142   12.7359   16.6913 O   0  0  0  0  0  0  0  0  0  0  0  0
    6.6518   13.1936   22.6031 O   0  0  0  0  0  0  0  0  0  0  0  0
    0.7133   12.8116   18.1423 S   0  0  0  0  0  0  0  0  0  0  0  0
    4.8659   10.3267   17.5190 H   0  0  0  0  0  0  0  0  0  0  0  0
    5.8387   11.0720   19.6646 H   0  0  0  0  0  0  0  0  0  0  0  0
    2.6139   11.0851   16.8406 H   0  0  0  0  0  0  0  0  0  0  0  0
    2.2841   13.3622   20.4784 H   0  0  0  0  0  0  0  0  0  0  0  0
    7.9980   14.8758   20.9983 H   0  0  0  0  0  0  0  0  0  0  0  0
    8.1081   15.4313   22.6839 H   0  0  0  0  0  0  0  0  0  0  0  0
    9.5272   14.7599   21.8513 H   0  0  0  0  0  0  0  0  0  0  0  0
    8.4278   11.9657   24.1607 H   0  0  0  0  0  0  0  0  0  0  0  0
    8.3125   13.6673   24.5737 H   0  0  0  0  0  0  0  0  0  0  0  0
    9.7839   13.0529   23.7880 H   0  0  0  0  0  0  0  0  0  0  0  0
    8.2341   11.2014   21.7715 H   0  0  0  0  0  0  0  0  0  0  0  0
    8.0350   12.3785   20.4554 H   0  0  0  0  0  0  0  0  0  0  0  0
    9.5896   12.2130   21.3029 H   0  0  0  0  0  0  0  0  0  0  0  0
    4.3591   11.4260   23.1135 H   0  0  0  0  0  0  0  0  0  0  0  0
    4.2065   13.1805   23.4666 H   0  0  0  0  0  0  0  0  0  0  0  0
    2.9152   12.3333   22.5494 H   0  0  0  0  0  0  0  0  0  0  0  0
   -0.8357   11.8235   19.6411 H   0  0  0  0  0  0  0  0  0  0  0  0
   -0.7075   10.9138   18.1853 H   0  0  0  0  0  0  0  0  0  0  0  0
  1  2  2  0  0  0  0
  1  3  1  0  0  0  0
  2  5  1  0  0  0  0
  3  6  2  0  0  0  0
  4  5  2  0  0  0  0
  4  6  1  0  0  0  0
  5 14  1  0  0  0  0
  6 19  1  0  0  0  0
  7 14  1  0  0  0  0
  7 15  2  0  0  0  0
  7 18  1  0  0  0  0
  8 12  1  0  0  0  0
  9 12  1  0  0  0  0
 10 12  1  0  0  0  0
 11 14  1  0  0  0  0
 12 18  1  0  0  0  0
 13 19  1  0  0  0  0
 16 19  2  0  0  0  0
 17 19  2  0  0  0  0
  1 20  1  0  0  0  0
  2 21  1  0  0  0  0
  3 22  1  0  0  0  0
  4 23  1  0  0  0  0
  8 24  1  0  0  0  0
  8 25  1  0  0  0  0
  8 26  1  0  0  0  0
  9 27  1  0  0  0  0
  9 28  1  0  0  0  0
  9 29  1  0  0  0  0
 10 30  1  0  0  0  0
 10 31  1  0  0  0  0
 10 32  1  0  0  0  0
 11 33  1  0  0  0  0
 11 34  1  0  0  0  0
 11 35  1  0  0  0  0
 13 36  1  0  0  0  0
 13 37  1  0  0  0  0
M  END
> <Mol Weight>
286,35

> <Formula>
C12H18N2O4S

> <ID>
EN300-28221874

> <name>
Sulfonamides

> <LogP>
1,35

> <ROCS_ShapeQuery>
x0310_0A_x0719_0A_x1080_0A_x0739_0A_x0929_0A_x0526_0A_x0911_0A

> <ROCS_TanimotoCombo>
0.336 

> <ROCS_ShapeTanimoto>
0.211 

> <ROCS_ColorTanimoto>
0.124 

> <ROCS_RefTversky>
0.200 

> <ROCS_RefColorTversky>
0.138 

> <ROCS_RefTverskyCombo>
0.339 

> <ROCS_FitTversky>
1.350 

> <ROCS_FitColorTversky>
0.556 

> <ROCS_FitTverskyCombo>
1.906 

> <ROCS_ColorScore>
-4.015

> <ROCS_Overlap>
1607.569

> <ROCS_Rank>
100                 

$$$$
untitled-dbase-2168_147
  -OEChem-02092407103D

 35 36  0     1  0  0  0  0  0999 V2000
    8.8499   15.0783   24.9296 C   0  0  0  0  0  0  0  0  0  0  0  0
    8.8885   13.6559   25.4761 C   0  0  0  0  0  0  0  0  0  0  0  0
    9.7859   12.0837   23.6853 C   0  0  0  0  0  0  0  0  0  0  0  0
    7.8071   11.4207   25.0689 C   0  0  0  0  0  0  0  0  0  0  0  0
    9.4931   10.8686   22.8124 C   0  0  0  0  0  0  0  0  0  0  0  0
    7.6550   10.2102   24.1505 C   0  0  0  0  0  0  0  0  0  0  0  0
    7.5829   13.2836   23.3351 C   0  0  0  0  0  0  0  0  0  0  0  0
    7.4567   15.4147   24.3773 C   0  0  2  0  0  0  0  0  0  0  0  0
    8.5128   12.6175   24.3832 C   0  0  0  0  0  0  0  0  0  0  0  0
    6.5943   16.1235   25.4150 C   0  0  0  0  0  0  0  0  0  0  0  0
    4.2389   15.0036   24.9156 N   0  0  0  0  0  0  0  0  0  0  0  0
    4.3640   17.4621   25.6617 O   0  0  0  0  0  0  0  0  0  0  0  0
    5.1572   16.8251   23.3486 O   0  0  0  0  0  0  0  0  0  0  0  0
    8.9091    9.8270   23.5917 O   0  0  0  0  0  0  0  0  0  0  0  0
    6.7385   14.2442   23.9656 O   0  0  0  0  0  0  0  0  0  0  0  0
    5.0085   16.5182   24.7623 S   0  0  0  0  0  0  0  0  0  0  0  0
    9.1086   15.7782   25.7335 H   0  0  0  0  0  0  0  0  0  0  0  0
    9.6060   15.1986   24.1450 H   0  0  0  0  0  0  0  0  0  0  0  0
    9.8998   13.4480   25.8378 H   0  0  0  0  0  0  0  0  0  0  0  0
    8.2188   13.5714   26.3348 H   0  0  0  0  0  0  0  0  0  0  0  0
   10.5059   11.7825   24.4554 H   0  0  0  0  0  0  0  0  0  0  0  0
   10.2604   12.8668   23.0863 H   0  0  0  0  0  0  0  0  0  0  0  0
    6.8203   11.7019   25.4596 H   0  0  0  0  0  0  0  0  0  0  0  0
    8.4106   11.1094   25.9349 H   0  0  0  0  0  0  0  0  0  0  0  0
    8.8357   11.1144   21.9730 H   0  0  0  0  0  0  0  0  0  0  0  0
   10.4271   10.4835   22.3936 H   0  0  0  0  0  0  0  0  0  0  0  0
    7.2776    9.3587   24.7276 H   0  0  0  0  0  0  0  0  0  0  0  0
    6.9350   10.3948   23.3448 H   0  0  0  0  0  0  0  0  0  0  0  0
    8.1625   13.7755   22.5513 H   0  0  0  0  0  0  0  0  0  0  0  0
    6.9365   12.5540   22.8515 H   0  0  0  0  0  0  0  0  0  0  0  0
    7.5505   16.0863   23.5012 H   0  0  0  0  0  0  0  0  0  0  0  0
    7.0630   17.0566   25.7272 H   0  0  0  0  0  0  0  0  0  0  0  0
    6.4424   15.4849   26.2850 H   0  0  0  0  0  0  0  0  0  0  0  0
    4.5406   14.2491   24.2869 H   0  0  0  0  0  0  0  0  0  0  0  0
    4.0002   14.6831   25.8622 H   0  0  0  0  0  0  0  0  0  0  0  0
  1  2  1  0  0  0  0
  1  8  1  0  0  0  0
  2  9  1  0  0  0  0
  3  5  1  0  0  0  0
  3  9  1  0  0  0  0
  4  6  1  0  0  0  0
  4  9  1  0  0  0  0
  5 14  1  0  0  0  0
  6 14  1  0  0  0  0
  7  9  1  0  0  0  0
  7 15  1  0  0  0  0
  8 10  1  0  0  0  0
  8 15  1  0  0  0  0
 10 16  1  0  0  0  0
 11 16  1  0  0  0  0
 12 16  2  0  0  0  0
 13 16  2  0  0  0  0
  1 17  1  0  0  0  0
  1 18  1  0  0  0  0
  2 19  1  0  0  0  0
  2 20  1  0  0  0  0
  3 21  1  0  0  0  0
  3 22  1  0  0  0  0
  4 23  1  0  0  0  0
  4 24  1  0  0  0  0
  5 25  1  0  0  0  0
  5 26  1  0  0  0  0
  6 27  1  0  0  0  0
  6 28  1  0  0  0  0
  7 29  1  0  0  0  0
  7 30  1  0  0  0  0
  8 31  1  0  0  0  0
 10 32  1  0  0  0  0
 10 33  1  0  0  0  0
 11 34  1  0  0  0  0
 11 35  1  0  0  0  0
M  END
> <Mol Weight>
249,33

> <Formula>
C10H19NO4S

> <ID>
EN300-366683

> <name>
Sulfonamides

> <LogP>
-0,60

> <ROCS_ShapeQuery>
x0310_0A_x0719_0A_x1080_0A_x0739_0A_x0929_0A_x0526_0A_x0911_0A

> <ROCS_TanimotoCombo>
0.336 

> <ROCS_ShapeTanimoto>
0.196 

> <ROCS_ColorTanimoto>
0.139 

> <ROCS_RefTversky>
0.186 

> <ROCS_RefColorTversky>
0.157 

> <ROCS_RefTverskyCombo>
0.342 

> <ROCS_FitTversky>
1.413 

> <ROCS_FitColorTversky>
0.558 

> <ROCS_FitTverskyCombo>
1.971 

> <ROCS_ColorScore>
-4.560

> <ROCS_Overlap>
1487.145

> <ROCS_Rank>
101                 

$$$$
untitled-dbase-702_16
  -OEChem-02092407103D

 27 27  0     0  0  0  0  0  0999 V2000
    7.3311   11.6485   23.6774 C   0  0  0  0  0  0  0  0  0  0  0  0
    9.6892   12.0596   24.4286 C   0  0  0  0  0  0  0  0  0  0  0  0
    7.7885   10.2639   23.2345 C   0  0  0  0  0  0  0  0  0  0  0  0
   10.0144   10.6519   23.9439 C   0  0  0  0  0  0  0  0  0  0  0  0
    8.5010   12.6387   23.6524 C   0  0  0  0  0  0  0  0  0  0  0  0
    8.0858   13.9959   24.2133 C   0  0  0  0  0  0  0  0  0  0  0  0
    6.9238   14.5810   23.4324 C   0  0  0  0  0  0  0  0  0  0  0  0
    6.1620   15.9311   21.2765 N   0  0  0  0  0  0  0  0  0  0  0  0
    8.6517   15.4066   21.6547 O   0  0  0  0  0  0  0  0  0  0  0  0
    7.0681   13.5351   21.0423 O   0  0  0  0  0  0  0  0  0  0  0  0
    8.8701    9.8051   24.0445 O   0  0  0  0  0  0  0  0  0  0  0  0
    7.3405   14.7854   21.7300 S   0  0  0  0  0  0  0  0  0  0  0  0
    6.5168   11.9983   23.0331 H   0  0  0  0  0  0  0  0  0  0  0  0
    6.9379   11.5816   24.6999 H   0  0  0  0  0  0  0  0  0  0  0  0
    9.4368   12.0179   25.4959 H   0  0  0  0  0  0  0  0  0  0  0  0
   10.5687   12.7046   24.3226 H   0  0  0  0  0  0  0  0  0  0  0  0
    6.9661    9.5494   23.3405 H   0  0  0  0  0  0  0  0  0  0  0  0
    8.0944   10.2626   22.1817 H   0  0  0  0  0  0  0  0  0  0  0  0
   10.3729   10.6597   22.9079 H   0  0  0  0  0  0  0  0  0  0  0  0
   10.8056   10.2186   24.5640 H   0  0  0  0  0  0  0  0  0  0  0  0
    8.8085   12.7833   22.6080 H   0  0  0  0  0  0  0  0  0  0  0  0
    8.9440   14.6738   24.1793 H   0  0  0  0  0  0  0  0  0  0  0  0
    7.8127   13.8784   25.2665 H   0  0  0  0  0  0  0  0  0  0  0  0
    6.0474   13.9272   23.4688 H   0  0  0  0  0  0  0  0  0  0  0  0
    6.6433   15.5681   23.8118 H   0  0  0  0  0  0  0  0  0  0  0  0
    5.1863   15.6149   21.2153 H   0  0  0  0  0  0  0  0  0  0  0  0
    6.2651   16.8894   21.6323 H   0  0  0  0  0  0  0  0  0  0  0  0
  1  3  1  0  0  0  0
  1  5  1  0  0  0  0
  2  4  1  0  0  0  0
  2  5  1  0  0  0  0
  3 11  1  0  0  0  0
  4 11  1  0  0  0  0
  5  6  1  0  0  0  0
  6  7  1  0  0  0  0
  7 12  1  0  0  0  0
  8 12  1  0  0  0  0
  9 12  2  0  0  0  0
 10 12  2  0  0  0  0
  1 13  1  0  0  0  0
  1 14  1  0  0  0  0
  2 15  1  0  0  0  0
  2 16  1  0  0  0  0
  3 17  1  0  0  0  0
  3 18  1  0  0  0  0
  4 19  1  0  0  0  0
  4 20  1  0  0  0  0
  5 21  1  0  0  0  0
  6 22  1  0  0  0  0
  6 23  1  0  0  0  0
  7 24  1  0  0  0  0
  7 25  1  0  0  0  0
  8 26  1  0  0  0  0
  8 27  1  0  0  0  0
M  END
> <Mol Weight>
193,26

> <Formula>
C7H15NO3S

> <ID>
EN300-222625

> <name>
Sulfonamides

> <LogP>
-0,59

> <ROCS_ShapeQuery>
x0310_0A_x0719_0A_x1080_0A_x0739_0A_x0929_0A_x0526_0A_x0911_0A

> <ROCS_TanimotoCombo>
0.336 

> <ROCS_ShapeTanimoto>
0.151 

> <ROCS_ColorTanimoto>
0.184 

> <ROCS_RefTversky>
0.146 

> <ROCS_RefColorTversky>
0.189 

> <ROCS_RefTverskyCombo>
0.335 

> <ROCS_FitTversky>
1.343 

> <ROCS_FitColorTversky>
0.876 

> <ROCS_FitTverskyCombo>
2.219 

> <ROCS_ColorScore>
-5.488

> <ROCS_Overlap>
1165.876

> <ROCS_Rank>
102                 

$$$$
untitled-dbase-2597_382
  -OEChem-02092407103D

 31 32  0     0  0  0  0  0  0999 V2000
    8.5017   11.0055   22.2324 C   0  0  0  0  0  0  0  0  0  0  0  0
    9.1352   10.1625   23.1454 C   0  0  0  0  0  0  0  0  0  0  0  0
    9.1104   11.9290   24.7935 C   0  0  0  0  0  0  0  0  0  0  0  0
    8.1726   12.3103   22.5998 C   0  0  0  0  0  0  0  0  0  0  0  0
    8.4770   12.7720   23.8804 C   0  0  0  0  0  0  0  0  0  0  0  0
    9.4395   10.6242   24.4260 C   0  0  0  0  0  0  0  0  0  0  0  0
    3.4097   12.7679   19.6106 C   0  0  0  0  0  0  0  0  0  0  0  0
    3.4844   11.2788   19.4521 C   0  0  0  0  0  0  0  0  0  0  0  0
    4.1509   11.9416   20.6313 C   0  0  0  0  0  0  0  0  0  0  0  0
    5.6651   12.0106   20.7154 C   0  0  0  0  0  0  0  0  0  0  0  0
    6.1298   13.0983   21.6716 C   0  0  0  0  0  0  0  0  0  0  0  0
    8.6558   14.4161   25.9707 N   0  0  0  0  0  0  0  0  0  0  0  0
    8.8685   15.3259   23.5681 O   0  0  0  0  0  0  0  0  0  0  0  0
    6.6241   14.5300   24.3909 O   0  0  0  0  0  0  0  0  0  0  0  0
    7.5556   13.1167   21.6911 O   0  0  0  0  0  0  0  0  0  0  0  0
    8.0737   14.4035   24.3650 S   0  0  0  0  0  0  0  0  0  0  0  0
   10.2245    9.5846   25.5507 Cl  0  0  0  0  0  0  0  0  0  0  0  0
    8.2692   10.6398   21.2358 H   0  0  0  0  0  0  0  0  0  0  0  0
    9.3873    9.1488   22.8446 H   0  0  0  0  0  0  0  0  0  0  0  0
    9.3490   12.2912   25.7909 H   0  0  0  0  0  0  0  0  0  0  0  0
    3.9822   13.3762   18.9213 H   0  0  0  0  0  0  0  0  0  0  0  0
    2.4595   13.1972   19.9041 H   0  0  0  0  0  0  0  0  0  0  0  0
    2.5853   10.7051   19.6404 H   0  0  0  0  0  0  0  0  0  0  0  0
    4.1084   10.8871   18.6584 H   0  0  0  0  0  0  0  0  0  0  0  0
    3.6930   11.8157   21.6047 H   0  0  0  0  0  0  0  0  0  0  0  0
    6.0854   12.1926   19.7190 H   0  0  0  0  0  0  0  0  0  0  0  0
    6.0647   11.0417   21.0381 H   0  0  0  0  0  0  0  0  0  0  0  0
    5.7730   14.0815   21.3485 H   0  0  0  0  0  0  0  0  0  0  0  0
    5.7700   12.9053   22.6874 H   0  0  0  0  0  0  0  0  0  0  0  0
    8.1394   13.8742   26.6743 H   0  0  0  0  0  0  0  0  0  0  0  0
    9.6731   14.4197   26.1141 H   0  0  0  0  0  0  0  0  0  0  0  0
  1  2  2  0  0  0  0
  1  4  1  0  0  0  0
  2  6  1  0  0  0  0
  3  5  1  0  0  0  0
  3  6  2  0  0  0  0
  4  5  2  0  0  0  0
  4 15  1  0  0  0  0
  5 16  1  0  0  0  0
  6 17  1  0  0  0  0
  7  8  1  0  0  0  0
  7  9  1  0  0  0  0
  8  9  1  0  0  0  0
  9 10  1  0  0  0  0
 10 11  1  0  0  0  0
 11 15  1  0  0  0  0
 12 16  1  0  0  0  0
 13 16  2  0  0  0  0
 14 16  2  0  0  0  0
  1 18  1  0  0  0  0
  2 19  1  0  0  0  0
  3 20  1  0  0  0  0
  7 21  1  0  0  0  0
  7 22  1  0  0  0  0
  8 23  1  0  0  0  0
  8 24  1  0  0  0  0
  9 25  1  0  0  0  0
 10 26  1  0  0  0  0
 10 27  1  0  0  0  0
 11 28  1  0  0  0  0
 11 29  1  0  0  0  0
 12 30  1  0  0  0  0
 12 31  1  0  0  0  0
M  END
> <Mol Weight>
275,75

> <Formula>
C11H14ClNO3S

> <ID>
EN300-13365942

> <name>
Sulfonamides

> <LogP>
2,17

> <ROCS_ShapeQuery>
x0310_0A_x0719_0A_x1080_0A_x0739_0A_x0929_0A_x0526_0A_x0911_0A

> <ROCS_TanimotoCombo>
0.335 

> <ROCS_ShapeTanimoto>
0.200 

> <ROCS_ColorTanimoto>
0.135 

> <ROCS_RefTversky>
0.189 

> <ROCS_RefColorTversky>
0.145 

> <ROCS_RefTverskyCombo>
0.334 

> <ROCS_FitTversky>
1.388 

> <ROCS_FitColorTversky>
0.669 

> <ROCS_FitTverskyCombo>
2.058 

> <ROCS_ColorScore>
-4.195

> <ROCS_Overlap>
1517.456

> <ROCS_Rank>
103                 

$$$$
untitled-dbase-924_11
  -OEChem-02092407103D

 24 24  0     0  0  0  0  0  0999 V2000
   10.2808   12.0355   24.0396 C   0  0  0  0  0  0  0  0  0  0  0  0
    9.4915   12.9471   23.3386 C   0  0  0  0  0  0  0  0  0  0  0  0
    9.7945   10.7568   24.3120 C   0  0  0  0  0  0  0  0  0  0  0  0
    7.7295   11.3015   23.1825 C   0  0  0  0  0  0  0  0  0  0  0  0
    8.2158   12.5802   22.9101 C   0  0  0  0  0  0  0  0  0  0  0  0
    8.5189   10.3898   23.8835 C   0  0  0  0  0  0  0  0  0  0  0  0
    8.9046    8.2601   24.8690 C   0  0  0  0  0  0  0  0  0  0  0  0
    7.3718   13.5552   22.1611 C   0  0  0  0  0  0  0  0  0  0  0  0
    5.7118   15.6072   22.4523 N   0  0  0  0  0  0  0  0  0  0  0  0
    6.7122   14.4556   24.5235 O   0  0  0  0  0  0  0  0  0  0  0  0
    8.2003   15.8688   23.0491 O   0  0  0  0  0  0  0  0  0  0  0  0
    8.0446    9.1418   24.1488 O   0  0  0  0  0  0  0  0  0  0  0  0
    7.0895   14.9457   23.2087 S   0  0  0  0  0  0  0  0  0  0  0  0
   11.2741   12.3211   24.3728 H   0  0  0  0  0  0  0  0  0  0  0  0
    9.8787   13.9412   23.1315 H   0  0  0  0  0  0  0  0  0  0  0  0
   10.4143   10.0513   24.8585 H   0  0  0  0  0  0  0  0  0  0  0  0
    6.7352   11.0127   22.8499 H   0  0  0  0  0  0  0  0  0  0  0  0
    8.4045    7.2992   25.0131 H   0  0  0  0  0  0  0  0  0  0  0  0
    9.1533    8.7023   25.8370 H   0  0  0  0  0  0  0  0  0  0  0  0
    9.8209    8.1086   24.2936 H   0  0  0  0  0  0  0  0  0  0  0  0
    6.3969   13.1366   21.8863 H   0  0  0  0  0  0  0  0  0  0  0  0
    7.8615   13.9146   21.2487 H   0  0  0  0  0  0  0  0  0  0  0  0
    5.8387   16.0581   21.5379 H   0  0  0  0  0  0  0  0  0  0  0  0
    4.8253   15.0957   22.5423 H   0  0  0  0  0  0  0  0  0  0  0  0
  1  2  1  0  0  0  0
  1  3  2  0  0  0  0
  2  5  2  0  0  0  0
  3  6  1  0  0  0  0
  4  5  1  0  0  0  0
  4  6  2  0  0  0  0
  5  8  1  0  0  0  0
  6 12  1  0  0  0  0
  7 12  1  0  0  0  0
  8 13  1  0  0  0  0
  9 13  1  0  0  0  0
 10 13  2  0  0  0  0
 11 13  2  0  0  0  0
  1 14  1  0  0  0  0
  2 15  1  0  0  0  0
  3 16  1  0  0  0  0
  4 17  1  0  0  0  0
  7 18  1  0  0  0  0
  7 19  1  0  0  0  0
  7 20  1  0  0  0  0
  8 21  1  0  0  0  0
  8 22  1  0  0  0  0
  9 23  1  0  0  0  0
  9 24  1  0  0  0  0
M  END
> <Mol Weight>
201,24

> <Formula>
C8H11NO3S

> <ID>
EN300-133680

> <name>
Sulfonamides

> <LogP>
0,18

> <ROCS_ShapeQuery>
x0310_0A_x0719_0A_x1080_0A_x0739_0A_x0929_0A_x0526_0A_x0911_0A

> <ROCS_TanimotoCombo>
0.335 

> <ROCS_ShapeTanimoto>
0.158 

> <ROCS_ColorTanimoto>
0.177 

> <ROCS_RefTversky>
0.152 

> <ROCS_RefColorTversky>
0.183 

> <ROCS_RefTverskyCombo>
0.335 

> <ROCS_FitTversky>
1.305 

> <ROCS_FitColorTversky>
0.846 

> <ROCS_FitTverskyCombo>
2.151 

> <ROCS_ColorScore>
-5.303

> <ROCS_Overlap>
1217.663

> <ROCS_Rank>
104                 

$$$$
untitled-dbase-654_56
  -OEChem-02092407103D

 29 29  0     0  0  0  0  0  0999 V2000
    8.7286    9.9479   23.3840 C   0  0  0  0  0  0  0  0  0  0  0  0
    7.5128   10.7570   23.8246 C   0  0  0  0  0  0  0  0  0  0  0  0
    9.7040   10.7877   22.5652 C   0  0  0  0  0  0  0  0  0  0  0  0
    7.9201   12.0295   24.5654 C   0  0  0  0  0  0  0  0  0  0  0  0
   10.1123   12.0600   23.3057 C   0  0  0  0  0  0  0  0  0  0  0  0
    8.9118   12.8954   23.7745 C   0  0  0  0  0  0  0  0  0  0  0  0
    6.2093   16.6074   21.2223 C   0  0  0  0  0  0  0  0  0  0  0  0
    8.2296   13.6105   22.6050 C   0  0  0  0  0  0  0  0  0  0  0  0
    6.2680   15.2794   21.8591 N   0  0  0  0  0  0  0  0  0  0  0  0
    6.6024   14.6801   24.3538 O   0  0  0  0  0  0  0  0  0  0  0  0
    8.2835   16.1529   23.1871 O   0  0  0  0  0  0  0  0  0  0  0  0
    7.3545   15.0315   23.1575 S   0  0  0  0  0  0  0  0  0  0  0  0
    9.2411    9.5431   24.2657 H   0  0  0  0  0  0  0  0  0  0  0  0
    8.3971    9.0883   22.7863 H   0  0  0  0  0  0  0  0  0  0  0  0
    6.9075   11.0181   22.9490 H   0  0  0  0  0  0  0  0  0  0  0  0
    6.8812   10.1418   24.4773 H   0  0  0  0  0  0  0  0  0  0  0  0
   10.5986   10.1939   22.3407 H   0  0  0  0  0  0  0  0  0  0  0  0
    9.2465   11.0510   21.6047 H   0  0  0  0  0  0  0  0  0  0  0  0
    7.0142   12.6166   24.7952 H   0  0  0  0  0  0  0  0  0  0  0  0
    8.3585   11.7552   25.5394 H   0  0  0  0  0  0  0  0  0  0  0  0
   10.7386   11.7881   24.1716 H   0  0  0  0  0  0  0  0  0  0  0  0
   10.7545   12.6688   22.6461 H   0  0  0  0  0  0  0  0  0  0  0  0
    9.2963   13.6783   24.4623 H   0  0  0  0  0  0  0  0  0  0  0  0
    7.2177   17.0459   21.1939 H   0  0  0  0  0  0  0  0  0  0  0  0
    5.8250   16.5053   20.1966 H   0  0  0  0  0  0  0  0  0  0  0  0
    5.5410   17.2621   21.8008 H   0  0  0  0  0  0  0  0  0  0  0  0
    7.5146   12.9465   22.1235 H   0  0  0  0  0  0  0  0  0  0  0  0
    8.9718   13.9383   21.8800 H   0  0  0  0  0  0  0  0  0  0  0  0
    5.3574   14.8059   21.9213 H   0  0  0  0  0  0  0  0  0  0  0  0
  1  2  1  0  0  0  0
  1  3  1  0  0  0  0
  2  4  1  0  0  0  0
  3  5  1  0  0  0  0
  4  6  1  0  0  0  0
  5  6  1  0  0  0  0
  6  8  1  0  0  0  0
  7  9  1  0  0  0  0
  8 12  1  0  0  0  0
  9 12  1  0  0  0  0
 10 12  2  0  0  0  0
 11 12  2  0  0  0  0
  1 13  1  0  0  0  0
  1 14  1  0  0  0  0
  2 15  1  0  0  0  0
  2 16  1  0  0  0  0
  3 17  1  0  0  0  0
  3 18  1  0  0  0  0
  4 19  1  0  0  0  0
  4 20  1  0  0  0  0
  5 21  1  0  0  0  0
  5 22  1  0  0  0  0
  6 23  1  0  0  0  0
  7 24  1  0  0  0  0
  7 25  1  0  0  0  0
  7 26  1  0  0  0  0
  8 27  1  0  0  0  0
  8 28  1  0  0  0  0
  9 29  1  0  0  0  0
M  END
> <Mol Weight>
191,29

> <Formula>
C8H17NO2S

> <ID>
EN300-91261

> <name>
Sulfonamides

> <LogP>
0,95

> <ROCS_ShapeQuery>
x0310_0A_x0719_0A_x1080_0A_x0739_0A_x0929_0A_x0526_0A_x0911_0A

> <ROCS_TanimotoCombo>
0.335 

> <ROCS_ShapeTanimoto>
0.169 

> <ROCS_ColorTanimoto>
0.166 

> <ROCS_RefTversky>
0.160 

> <ROCS_RefColorTversky>
0.168 

> <ROCS_RefTverskyCombo>
0.328 

> <ROCS_FitTversky>
1.483 

> <ROCS_FitColorTversky>
0.918 

> <ROCS_FitTverskyCombo>
2.401 

> <ROCS_ColorScore>
-4.880

> <ROCS_Overlap>
1278.806

> <ROCS_Rank>
105                 

$$$$
untitled-dbase-2596_12682
  -OEChem-02092407103D

 31 31  0     0  0  0  0  0  0999 V2000
    2.9561   10.8852   18.0767 C   0  0  0  0  0  0  0  0  0  0  0  0
    2.2514   12.7631   19.4235 C   0  0  0  0  0  0  0  0  0  0  0  0
    4.0947   10.7435   18.8699 C   0  0  0  0  0  0  0  0  0  0  0  0
    3.3900   12.6214   20.2168 C   0  0  0  0  0  0  0  0  0  0  0  0
    2.0345   11.8951   18.3534 C   0  0  0  0  0  0  0  0  0  0  0  0
    4.3116   11.6116   19.9399 C   0  0  0  0  0  0  0  0  0  0  0  0
    0.8467   12.0434   17.5273 C   0  0  0  0  0  0  0  0  0  0  0  0
    9.1196   12.2554   23.6098 C   0  0  0  0  0  0  0  0  0  0  0  0
    5.5429   11.4572   20.7984 C   0  0  0  0  0  0  0  0  0  0  0  0
   -0.4343   11.2921   17.9063 C   0  0  0  0  0  0  0  0  0  0  0  0
    5.3230   11.9056   22.2412 C   0  0  0  0  0  0  0  0  0  0  0  0
    6.5383   11.7762   23.0651 N   0  0  0  0  0  0  0  0  0  0  0  0
    0.8667   12.7764   16.5176 O   0  0  0  0  0  0  0  0  0  0  0  0
    7.2399   13.9453   24.2889 O   0  0  0  0  0  0  0  0  0  0  0  0
    7.7976   13.6526   21.8476 O   0  0  0  0  0  0  0  0  0  0  0  0
    7.6148   13.0968   23.1747 S   0  0  0  0  0  0  0  0  0  0  0  0
   -1.0313   11.7802   19.5058 Cl  0  0  0  0  0  0  0  0  0  0  0  0
    2.7963   10.2036   17.2453 H   0  0  0  0  0  0  0  0  0  0  0  0
    1.5402   13.5536   19.6485 H   0  0  0  0  0  0  0  0  0  0  0  0
    4.8072    9.9538   18.6472 H   0  0  0  0  0  0  0  0  0  0  0  0
    3.5508   13.3020   21.0488 H   0  0  0  0  0  0  0  0  0  0  0  0
    9.9118   12.9984   23.7144 H   0  0  0  0  0  0  0  0  0  0  0  0
    8.9604   11.7308   24.5532 H   0  0  0  0  0  0  0  0  0  0  0  0
    9.3610   11.5483   22.8148 H   0  0  0  0  0  0  0  0  0  0  0  0
    6.3533   12.0491   20.3543 H   0  0  0  0  0  0  0  0  0  0  0  0
    5.8833   10.4141   20.7749 H   0  0  0  0  0  0  0  0  0  0  0  0
   -1.2206   11.5178   17.1817 H   0  0  0  0  0  0  0  0  0  0  0  0
   -0.2323   10.2190   17.9464 H   0  0  0  0  0  0  0  0  0  0  0  0
    5.0373   12.9620   22.2639 H   0  0  0  0  0  0  0  0  0  0  0  0
    4.5309   11.3271   22.7278 H   0  0  0  0  0  0  0  0  0  0  0  0
    6.4086   11.2106   23.9140 H   0  0  0  0  0  0  0  0  0  0  0  0
  1  3  2  0  0  0  0
  1  5  1  0  0  0  0
  2  4  1  0  0  0  0
  2  5  2  0  0  0  0
  3  6  1  0  0  0  0
  4  6  2  0  0  0  0
  5  7  1  0  0  0  0
  6  9  1  0  0  0  0
  7 10  1  0  0  0  0
  7 13  2  0  0  0  0
  8 16  1  0  0  0  0
  9 11  1  0  0  0  0
 10 17  1  0  0  0  0
 11 12  1  0  0  0  0
 12 16  1  0  0  0  0
 14 16  2  0  0  0  0
 15 16  2  0  0  0  0
  1 18  1  0  0  0  0
  2 19  1  0  0  0  0
  3 20  1  0  0  0  0
  4 21  1  0  0  0  0
  8 22  1  0  0  0  0
  8 23  1  0  0  0  0
  8 24  1  0  0  0  0
  9 25  1  0  0  0  0
  9 26  1  0  0  0  0
 10 27  1  0  0  0  0
 10 28  1  0  0  0  0
 11 29  1  0  0  0  0
 11 30  1  0  0  0  0
 12 31  1  0  0  0  0
M  END
> <Mol Weight>
275,75

> <Formula>
C11H14ClNO3S

> <ID>
EN300-23500

> <name>
Sulfonamides

> <LogP>
0,80

> <ROCS_ShapeQuery>
x0310_0A_x0719_0A_x1080_0A_x0739_0A_x0929_0A_x0526_0A_x0911_0A

> <ROCS_TanimotoCombo>
0.334 

> <ROCS_ShapeTanimoto>
0.208 

> <ROCS_ColorTanimoto>
0.126 

> <ROCS_RefTversky>
0.196 

> <ROCS_RefColorTversky>
0.136 

> <ROCS_RefTverskyCombo>
0.332 

> <ROCS_FitTversky>
1.454 

> <ROCS_FitColorTversky>
0.630 

> <ROCS_FitTverskyCombo>
2.084 

> <ROCS_ColorScore>
-3.947

> <ROCS_Overlap>
1568.331

> <ROCS_Rank>
106                 

$$$$
untitled-dbase-2812_48
  -OEChem-02092407103D

 40 41  0     0  0  0  0  0  0999 V2000
    5.6526   12.9328   21.0330 B   0  0  0  0  0  0  0  0  0  0  0  0
    4.0734   10.6734   18.3365 C   0  0  0  0  0  0  0  0  0  0  0  0
    5.0123   11.3051   19.1519 C   0  0  0  0  0  0  0  0  0  0  0  0
    2.7162   10.9597   18.4844 C   0  0  0  0  0  0  0  0  0  0  0  0
    3.2370   12.5093   20.2633 C   0  0  0  0  0  0  0  0  0  0  0  0
    4.5942   12.2230   20.1153 C   0  0  0  0  0  0  0  0  0  0  0  0
    2.2980   11.8776   19.4479 C   0  0  0  0  0  0  0  0  0  0  0  0
    6.5673   14.4371   22.4976 C   0  0  0  0  0  0  0  0  0  0  0  0
    7.6388   13.3734   22.0846 C   0  0  0  0  0  0  0  0  0  0  0  0
    5.9849   14.2552   23.9174 C   0  0  0  0  0  0  0  0  0  0  0  0
    7.0261   15.8957   22.3601 C   0  0  0  0  0  0  0  0  0  0  0  0
    8.3764   12.7171   23.2602 C   0  0  0  0  0  0  0  0  0  0  0  0
    8.7003   13.8765   21.0805 C   0  0  0  0  0  0  0  0  0  0  0  0
   -1.3039   12.0527   18.0800 C   0  0  0  0  0  0  0  0  0  0  0  0
    0.9085   12.1702   19.5979 N   0  0  0  0  0  0  0  0  0  0  0  0
   -0.3469   14.3197   18.9240 O   0  0  0  0  0  0  0  0  0  0  0  0
    0.9165   13.0690   17.1394 O   0  0  0  0  0  0  0  0  0  0  0  0
    5.4710   14.2142   21.5532 O   0  0  0  0  0  0  0  0  0  0  0  0
    6.8596   12.3389   21.4019 O   0  0  0  0  0  0  0  0  0  0  0  0
    0.1278   13.0718   18.3555 S   0  0  0  0  0  0  0  0  0  0  0  0
    4.3992    9.9588   17.5862 H   0  0  0  0  0  0  0  0  0  0  0  0
    6.0643   11.0622   19.0142 H   0  0  0  0  0  0  0  0  0  0  0  0
    1.9928   10.4621   17.8437 H   0  0  0  0  0  0  0  0  0  0  0  0
    2.8932   13.2234   21.0107 H   0  0  0  0  0  0  0  0  0  0  0  0
    5.2587   15.0369   24.1018 H   0  0  0  0  0  0  0  0  0  0  0  0
    6.7903   14.3203   24.6381 H   0  0  0  0  0  0  0  0  0  0  0  0
    5.5089   13.2847   23.9799 H   0  0  0  0  0  0  0  0  0  0  0  0
    6.2218   16.5577   22.6673 H   0  0  0  0  0  0  0  0  0  0  0  0
    7.2858   16.0964   21.3248 H   0  0  0  0  0  0  0  0  0  0  0  0
    7.8942   16.0621   22.9911 H   0  0  0  0  0  0  0  0  0  0  0  0
    9.0955   11.9978   22.8791 H   0  0  0  0  0  0  0  0  0  0  0  0
    7.6591   12.2095   23.8984 H   0  0  0  0  0  0  0  0  0  0  0  0
    8.8952   13.4805   23.8326 H   0  0  0  0  0  0  0  0  0  0  0  0
    9.3881   13.0691   20.8630 H   0  0  0  0  0  0  0  0  0  0  0  0
    9.2336   14.7092   21.5216 H   0  0  0  0  0  0  0  0  0  0  0  0
    8.2022   14.1939   20.1730 H   0  0  0  0  0  0  0  0  0  0  0  0
   -1.9084   12.5126   17.2966 H   0  0  0  0  0  0  0  0  0  0  0  0
   -0.9671   11.0620   17.7712 H   0  0  0  0  0  0  0  0  0  0  0  0
   -1.8677   11.9919   19.0121 H   0  0  0  0  0  0  0  0  0  0  0  0
    0.6316   12.4322   20.5584 H   0  0  0  0  0  0  0  0  0  0  0  0
  1  6  1  0  0  0  0
  1 18  1  0  0  0  0
  1 19  1  0  0  0  0
  2  3  2  0  0  0  0
  2  4  1  0  0  0  0
  3  6  1  0  0  0  0
  4  7  2  0  0  0  0
  5  6  2  0  0  0  0
  5  7  1  0  0  0  0
  7 15  1  0  0  0  0
  8  9  1  0  0  0  0
  8 10  1  0  0  0  0
  8 11  1  0  0  0  0
  8 18  1  0  0  0  0
  9 12  1  0  0  0  0
  9 13  1  0  0  0  0
  9 19  1  0  0  0  0
 14 20  1  0  0  0  0
 15 20  1  0  0  0  0
 16 20  2  0  0  0  0
 17 20  2  0  0  0  0
  2 21  1  0  0  0  0
  3 22  1  0  0  0  0
  4 23  1  0  0  0  0
  5 24  1  0  0  0  0
 10 25  1  0  0  0  0
 10 26  1  0  0  0  0
 10 27  1  0  0  0  0
 11 28  1  0  0  0  0
 11 29  1  0  0  0  0
 11 30  1  0  0  0  0
 12 31  1  0  0  0  0
 12 32  1  0  0  0  0
 12 33  1  0  0  0  0
 13 34  1  0  0  0  0
 13 35  1  0  0  0  0
 13 36  1  0  0  0  0
 14 37  1  0  0  0  0
 14 38  1  0  0  0  0
 14 39  1  0  0  0  0
 15 40  1  0  0  0  0
M  END
> <Mol Weight>
297,18

> <Formula>
C13H20BNO4S

> <ID>
EN300-3224935

> <name>
Sulfonamides

> <LogP>
2,41

> <ROCS_ShapeQuery>
x0310_0A_x0719_0A_x1080_0A_x0739_0A_x0929_0A_x0526_0A_x0911_0A

> <ROCS_TanimotoCombo>
0.334 

> <ROCS_ShapeTanimoto>
0.224 

> <ROCS_ColorTanimoto>
0.110 

> <ROCS_RefTversky>
0.211 

> <ROCS_RefColorTversky>
0.127 

> <ROCS_RefTverskyCombo>
0.338 

> <ROCS_FitTversky>
1.375 

> <ROCS_FitColorTversky>
0.452 

> <ROCS_FitTverskyCombo>
1.827 

> <ROCS_ColorScore>
-3.695

> <ROCS_Overlap>
1696.330

> <ROCS_Rank>
107                 

$$$$
untitled-dbase-2470_205
  -OEChem-02092407103D

 26 26  0     0  0  0  0  0  0999 V2000
    7.9064   11.3648   24.8428 C   0  0  0  0  0  0  0  0  0  0  0  0
    9.0744    9.9548   23.2664 C   0  0  0  0  0  0  0  0  0  0  0  0
    9.2191   12.3589   23.0749 C   0  0  0  0  0  0  0  0  0  0  0  0
    8.3922   12.4975   24.1897 C   0  0  0  0  0  0  0  0  0  0  0  0
    8.2475   10.0935   24.3812 C   0  0  0  0  0  0  0  0  0  0  0  0
    9.5602   11.0875   22.6132 C   0  0  0  0  0  0  0  0  0  0  0  0
    9.4296    8.6287   22.7855 C   0  0  0  0  0  0  0  0  0  0  0  0
    8.9047   14.3156   25.6345 C   0  0  0  0  0  0  0  0  0  0  0  0
    9.7451   14.4720   19.8895 C   0  0  0  0  0  0  0  0  0  0  0  0
    9.7235   13.5125   22.3973 N   0  0  0  0  0  0  0  0  0  0  0  0
    8.7634    8.0156   21.9471 O   0  0  0  0  0  0  0  0  0  0  0  0
    7.6021   13.4330   20.9361 O   0  0  0  0  0  0  0  0  0  0  0  0
    8.3865   15.6750   21.7749 O   0  0  0  0  0  0  0  0  0  0  0  0
    8.0479   13.7310   24.6560 O   0  0  0  0  0  0  0  0  0  0  0  0
    7.7746    9.0119   25.0168 F   0  0  0  0  0  0  0  0  0  0  0  0
   10.3558   10.9543   21.5410 F   0  0  0  0  0  0  0  0  0  0  0  0
    8.6772   14.3348   21.3056 S   0  0  0  0  0  0  0  0  0  0  0  0
    7.2618   11.4655   25.7117 H   0  0  0  0  0  0  0  0  0  0  0  0
   10.3472    8.1618   23.2046 H   0  0  0  0  0  0  0  0  0  0  0  0
    8.5167   15.2963   25.9204 H   0  0  0  0  0  0  0  0  0  0  0  0
    9.9126   14.4162   25.2242 H   0  0  0  0  0  0  0  0  0  0  0  0
    8.9344   13.6676   26.5137 H   0  0  0  0  0  0  0  0  0  0  0  0
    9.2006   14.9868   19.0962 H   0  0  0  0  0  0  0  0  0  0  0  0
   10.6291   15.0423   20.1788 H   0  0  0  0  0  0  0  0  0  0  0  0
   10.0254   13.4669   19.5709 H   0  0  0  0  0  0  0  0  0  0  0  0
   10.3016   14.1305   22.9891 H   0  0  0  0  0  0  0  0  0  0  0  0
  1  4  1  0  0  0  0
  1  5  2  0  0  0  0
  2  5  1  0  0  0  0
  2  6  2  0  0  0  0
  2  7  1  0  0  0  0
  3  4  2  0  0  0  0
  3  6  1  0  0  0  0
  3 10  1  0  0  0  0
  4 14  1  0  0  0  0
  5 15  1  0  0  0  0
  6 16  1  0  0  0  0
  7 11  2  0  0  0  0
  8 14  1  0  0  0  0
  9 17  1  0  0  0  0
 10 17  1  0  0  0  0
 12 17  2  0  0  0  0
 13 17  2  0  0  0  0
  1 18  1  0  0  0  0
  7 19  1  0  0  0  0
  8 20  1  0  0  0  0
  8 21  1  0  0  0  0
  8 22  1  0  0  0  0
  9 23  1  0  0  0  0
  9 24  1  0  0  0  0
  9 25  1  0  0  0  0
 10 26  1  0  0  0  0
M  END
> <Mol Weight>
265,23

> <Formula>
C9H9F2NO4S

> <ID>
EN300-45201952

> <name>
Sulfonamides

> <LogP>
0,19

> <ROCS_ShapeQuery>
x0310_0A_x0719_0A_x1080_0A_x0739_0A_x0929_0A_x0526_0A_x0911_0A

> <ROCS_TanimotoCombo>
0.334 

> <ROCS_ShapeTanimoto>
0.180 

> <ROCS_ColorTanimoto>
0.154 

> <ROCS_RefTversky>
0.174 

> <ROCS_RefColorTversky>
0.167 

> <ROCS_RefTverskyCombo>
0.341 

> <ROCS_FitTversky>
1.244 

> <ROCS_FitColorTversky>
0.672 

> <ROCS_FitTverskyCombo>
1.916 

> <ROCS_ColorScore>
-4.850

> <ROCS_Overlap>
1393.832

> <ROCS_Rank>
108                 

$$$$
untitled-dbase-1313_4
  -OEChem-02092407103D

 23 24  0     0  0  0  0  0  0999 V2000
   11.0304   13.5099   21.8788 C   0  0  0  0  0  0  0  0  0  0  0  0
   10.9293   12.1736   22.2664 C   0  0  0  0  0  0  0  0  0  0  0  0
   10.0070   14.4071   22.1861 C   0  0  0  0  0  0  0  0  0  0  0  0
    9.8003   11.7358   22.9592 C   0  0  0  0  0  0  0  0  0  0  0  0
    8.7885   12.6402   23.2911 C   0  0  0  0  0  0  0  0  0  0  0  0
    8.8844   13.9734   22.8916 C   0  0  0  0  0  0  0  0  0  0  0  0
    8.4305   10.0055   23.6770 C   0  0  0  0  0  0  0  0  0  0  0  0
    7.8346   11.0118   24.6421 C   0  0  0  0  0  0  0  0  0  0  0  0
    6.6241   14.9378   21.8590 N   0  0  0  0  0  0  0  0  0  0  0  0
    6.8828   14.6562   24.4084 O   0  0  0  0  0  0  0  0  0  0  0  0
    8.1871   16.4603   23.2288 O   0  0  0  0  0  0  0  0  0  0  0  0
    9.7484   10.4077   23.2935 O   0  0  0  0  0  0  0  0  0  0  0  0
    7.6720   12.2788   23.9986 O   0  0  0  0  0  0  0  0  0  0  0  0
    7.6120   15.1239   23.2397 S   0  0  0  0  0  0  0  0  0  0  0  0
   11.9091   13.8533   21.3403 H   0  0  0  0  0  0  0  0  0  0  0  0
   11.7373   11.4852   22.0344 H   0  0  0  0  0  0  0  0  0  0  0  0
   10.0946   15.4421   21.8659 H   0  0  0  0  0  0  0  0  0  0  0  0
    8.4856    9.0037   24.1204 H   0  0  0  0  0  0  0  0  0  0  0  0
    7.8236    9.9450   22.7683 H   0  0  0  0  0  0  0  0  0  0  0  0
    6.8584   10.6828   25.0188 H   0  0  0  0  0  0  0  0  0  0  0  0
    8.5005   11.1573   25.4982 H   0  0  0  0  0  0  0  0  0  0  0  0
    6.9737   15.3026   20.9645 H   0  0  0  0  0  0  0  0  0  0  0  0
    6.0802   14.0709   21.7697 H   0  0  0  0  0  0  0  0  0  0  0  0
  1  2  1  0  0  0  0
  1  3  2  0  0  0  0
  2  4  2  0  0  0  0
  3  6  1  0  0  0  0
  4  5  1  0  0  0  0
  4 12  1  0  0  0  0
  5  6  2  0  0  0  0
  5 13  1  0  0  0  0
  6 14  1  0  0  0  0
  7  8  1  0  0  0  0
  7 12  1  0  0  0  0
  8 13  1  0  0  0  0
  9 14  1  0  0  0  0
 10 14  2  0  0  0  0
 11 14  2  0  0  0  0
  1 15  1  0  0  0  0
  2 16  1  0  0  0  0
  3 17  1  0  0  0  0
  7 18  1  0  0  0  0
  7 19  1  0  0  0  0
  8 20  1  0  0  0  0
  8 21  1  0  0  0  0
  9 22  1  0  0  0  0
  9 23  1  0  0  0  0
M  END
> <Mol Weight>
215,22

> <Formula>
C8H9NO4S

> <ID>
EN300-120195

> <name>
Sulfonamides

> <LogP>
0,09

> <ROCS_ShapeQuery>
x0310_0A_x0719_0A_x1080_0A_x0739_0A_x0929_0A_x0526_0A_x0911_0A

> <ROCS_TanimotoCombo>
0.334 

> <ROCS_ShapeTanimoto>
0.183 

> <ROCS_ColorTanimoto>
0.151 

> <ROCS_RefTversky>
0.174 

> <ROCS_RefColorTversky>
0.168 

> <ROCS_RefTverskyCombo>
0.342 

> <ROCS_FitTversky>
1.383 

> <ROCS_FitColorTversky>
0.599 

> <ROCS_FitTverskyCombo>
1.982 

> <ROCS_ColorScore>
-4.895

> <ROCS_Overlap>
1392.389

> <ROCS_Rank>
109                 

$$$$
untitled-dbase-1727_271
  -OEChem-02092407103D

 30 31  0     1  0  0  0  0  0999 V2000
    2.6730   11.3948   17.5298 C   0  0  0  0  0  0  0  0  0  0  0  0
    2.2229   12.0172   18.6712 C   0  0  0  0  0  0  0  0  0  0  0  0
    4.3907   12.3589   18.3591 C   0  0  0  0  0  0  0  0  0  0  0  0
    5.7467   12.9139   18.6223 C   0  0  0  0  0  0  0  0  0  0  0  0
    5.9030   13.3793   20.0728 C   0  0  0  0  0  0  0  0  0  0  0  0
    3.4065   13.3795   20.4203 C   0  0  0  0  0  0  0  0  0  0  0  0
    4.6912   14.2176   20.5155 C   0  0  1  0  0  0  0  0  0  0  0  0
    8.2476   14.0273   22.0811 C   0  0  0  0  0  0  0  0  0  0  0  0
    4.8809   14.7511   21.9327 C   0  0  0  0  0  0  0  0  0  0  0  0
    4.0165   11.6107   17.3407 N   0  0  0  0  0  0  0  0  0  0  0  0
    3.3278   12.6265   19.1844 N   0  0  0  0  0  0  0  0  0  0  0  0
    6.0462   15.5685   21.9893 N   0  0  0  0  0  0  0  0  0  0  0  0
    6.7980   14.4707   24.2148 O   0  0  0  0  0  0  0  0  0  0  0  0
    8.1846   16.3505   23.2661 O   0  0  0  0  0  0  0  0  0  0  0  0
    7.3392   15.1874   23.0766 S   0  0  0  0  0  0  0  0  0  0  0  0
    2.0982   10.8004   16.8347 H   0  0  0  0  0  0  0  0  0  0  0  0
    1.2514   12.0684   19.1424 H   0  0  0  0  0  0  0  0  0  0  0  0
    6.5094   12.1619   18.3923 H   0  0  0  0  0  0  0  0  0  0  0  0
    5.9126   13.7617   17.9466 H   0  0  0  0  0  0  0  0  0  0  0  0
    6.0051   12.5050   20.7294 H   0  0  0  0  0  0  0  0  0  0  0  0
    6.8284   13.9594   20.1683 H   0  0  0  0  0  0  0  0  0  0  0  0
    3.3544   12.6428   21.2309 H   0  0  0  0  0  0  0  0  0  0  0  0
    2.5220   14.0236   20.4767 H   0  0  0  0  0  0  0  0  0  0  0  0
    4.6016   15.0767   19.8367 H   0  0  0  0  0  0  0  0  0  0  0  0
    9.1153   13.6903   22.6504 H   0  0  0  0  0  0  0  0  0  0  0  0
    7.5926   13.1863   21.8485 H   0  0  0  0  0  0  0  0  0  0  0  0
    8.5627   14.5314   21.1663 H   0  0  0  0  0  0  0  0  0  0  0  0
    3.9937   15.3313   22.1817 H   0  0  0  0  0  0  0  0  0  0  0  0
    4.9846   13.8902   22.5915 H   0  0  0  0  0  0  0  0  0  0  0  0
    6.3681   15.9857   21.0819 H   0  0  0  0  0  0  0  0  0  0  0  0
  1  2  2  0  0  0  0
  1 10  1  0  0  0  0
  2 11  1  0  0  0  0
  3  4  1  0  0  0  0
  3 10  2  0  0  0  0
  3 11  1  0  0  0  0
  4  5  1  0  0  0  0
  5  7  1  0  0  0  0
  6  7  1  0  0  0  0
  6 11  1  0  0  0  0
  7  9  1  0  0  0  0
  8 15  1  0  0  0  0
  9 12  1  0  0  0  0
 12 15  1  0  0  0  0
 13 15  2  0  0  0  0
 14 15  2  0  0  0  0
  1 16  1  0  0  0  0
  2 17  1  0  0  0  0
  4 18  1  0  0  0  0
  4 19  1  0  0  0  0
  5 20  1  0  0  0  0
  5 21  1  0  0  0  0
  6 22  1  0  0  0  0
  6 23  1  0  0  0  0
  7 24  1  0  0  0  0
  8 25  1  0  0  0  0
  8 26  1  0  0  0  0
  8 27  1  0  0  0  0
  9 28  1  0  0  0  0
  9 29  1  0  0  0  0
 12 30  1  0  0  0  0
M  END
> <Mol Weight>
229,30

> <Formula>
C9H15N3O2S

> <ID>
EN300-158527

> <name>
Sulfonamides

> <LogP>
-0,95

> <ROCS_ShapeQuery>
x0310_0A_x0719_0A_x1080_0A_x0739_0A_x0929_0A_x0526_0A_x0911_0A

> <ROCS_TanimotoCombo>
0.334 

> <ROCS_ShapeTanimoto>
0.154 

> <ROCS_ColorTanimoto>
0.180 

> <ROCS_RefTversky>
0.150 

> <ROCS_RefColorTversky>
0.195 

> <ROCS_RefTverskyCombo>
0.346 

> <ROCS_FitTversky>
1.172 

> <ROCS_FitColorTversky>
0.694 

> <ROCS_FitTverskyCombo>
1.866 

> <ROCS_ColorScore>
-5.685

> <ROCS_Overlap>
1205.430

> <ROCS_Rank>
110                 

$$$$
untitled-dbase-1514_1045
  -OEChem-02092407103D

 28 28  0     0  0  0  0  0  0999 V2000
    8.3283   12.4067   24.0620 C   0  0  0  0  0  0  0  0  0  0  0  0
    8.7807   10.5595   22.7394 C   0  0  0  0  0  0  0  0  0  0  0  0
    9.5257   10.4627   24.0476 C   0  0  0  0  0  0  0  0  0  0  0  0
    2.0099   12.6560   18.5577 C   0  0  0  0  0  0  0  0  0  0  0  0
    6.1118   12.1163   21.5804 C   0  0  0  0  0  0  0  0  0  0  0  0
    7.5901   12.4928   21.6533 C   0  0  0  0  0  0  0  0  0  0  0  0
    5.3684   12.7609   20.4124 C   0  0  0  0  0  0  0  0  0  0  0  0
    8.2610   11.8924   22.7857 N   0  0  0  0  0  0  0  0  0  0  0  0
    3.9863   12.3706   20.3551 N   0  0  0  0  0  0  0  0  0  0  0  0
    7.8799   13.4710   24.4653 O   0  0  0  0  0  0  0  0  0  0  0  0
    2.8125   10.2927   19.3455 O   0  0  0  0  0  0  0  0  0  0  0  0
    4.3271   11.6712   17.8751 O   0  0  0  0  0  0  0  0  0  0  0  0
    8.9873   11.5115   24.8695 O   0  0  0  0  0  0  0  0  0  0  0  0
    3.3647   11.5753   18.9559 S   0  0  0  0  0  0  0  0  0  0  0  0
    9.4283   10.4100   21.8721 H   0  0  0  0  0  0  0  0  0  0  0  0
    7.9401    9.8602   22.7013 H   0  0  0  0  0  0  0  0  0  0  0  0
    9.3688    9.4995   24.5412 H   0  0  0  0  0  0  0  0  0  0  0  0
   10.5998   10.6380   23.9283 H   0  0  0  0  0  0  0  0  0  0  0  0
    1.5096   12.2680   17.6690 H   0  0  0  0  0  0  0  0  0  0  0  0
    1.3235   12.6746   19.4055 H   0  0  0  0  0  0  0  0  0  0  0  0
    2.4095   13.6532   18.3669 H   0  0  0  0  0  0  0  0  0  0  0  0
    5.6299   12.4077   22.5217 H   0  0  0  0  0  0  0  0  0  0  0  0
    6.0192   11.0267   21.4950 H   0  0  0  0  0  0  0  0  0  0  0  0
    8.1260   12.1909   20.7483 H   0  0  0  0  0  0  0  0  0  0  0  0
    7.6935   13.5772   21.7615 H   0  0  0  0  0  0  0  0  0  0  0  0
    5.8245   12.4541   19.4658 H   0  0  0  0  0  0  0  0  0  0  0  0
    5.4056   13.8532   20.4671 H   0  0  0  0  0  0  0  0  0  0  0  0
    3.5670   12.0517   21.2561 H   0  0  0  0  0  0  0  0  0  0  0  0
  1  8  1  0  0  0  0
  1 10  2  0  0  0  0
  1 13  1  0  0  0  0
  2  3  1  0  0  0  0
  2  8  1  0  0  0  0
  3 13  1  0  0  0  0
  4 14  1  0  0  0  0
  5  6  1  0  0  0  0
  5  7  1  0  0  0  0
  6  8  1  0  0  0  0
  7  9  1  0  0  0  0
  9 14  1  0  0  0  0
 11 14  2  0  0  0  0
 12 14  2  0  0  0  0
  2 15  1  0  0  0  0
  2 16  1  0  0  0  0
  3 17  1  0  0  0  0
  3 18  1  0  0  0  0
  4 19  1  0  0  0  0
  4 20  1  0  0  0  0
  4 21  1  0  0  0  0
  5 22  1  0  0  0  0
  5 23  1  0  0  0  0
  6 24  1  0  0  0  0
  6 25  1  0  0  0  0
  7 26  1  0  0  0  0
  7 27  1  0  0  0  0
  9 28  1  0  0  0  0
M  END
> <Mol Weight>
222,26

> <Formula>
C7H14N2O4S

> <ID>
EN300-7434014

> <name>
Sulfonamides

> <LogP>
-1,56

> <ROCS_ShapeQuery>
x0310_0A_x0719_0A_x1080_0A_x0739_0A_x0929_0A_x0526_0A_x0911_0A

> <ROCS_TanimotoCombo>
0.334 

> <ROCS_ShapeTanimoto>
0.194 

> <ROCS_ColorTanimoto>
0.140 

> <ROCS_RefTversky>
0.182 

> <ROCS_RefColorTversky>
0.149 

> <ROCS_RefTverskyCombo>
0.331 

> <ROCS_FitTversky>
1.508 

> <ROCS_FitColorTversky>
0.692 

> <ROCS_FitTverskyCombo>
2.200 

> <ROCS_ColorScore>
-4.337

> <ROCS_Overlap>
1454.695

> <ROCS_Rank>
111                 

$$$$
untitled-dbase-1699_6
  -OEChem-02092407103D

 26 27  0     0  0  0  0  0  0999 V2000
    6.5352   11.8931   24.2131 C   0  0  0  0  0  0  0  0  0  0  0  0
    6.2325   13.2337   23.9729 C   0  0  0  0  0  0  0  0  0  0  0  0
    8.4689   13.5945   23.1274 C   0  0  0  0  0  0  0  0  0  0  0  0
    7.8035   11.4018   23.9025 C   0  0  0  0  0  0  0  0  0  0  0  0
    8.7767   12.2573   23.3801 C   0  0  0  0  0  0  0  0  0  0  0  0
    7.1961   14.0817   23.4261 C   0  0  0  0  0  0  0  0  0  0  0  0
    9.2142    9.6081   23.4800 C   0  0  0  0  0  0  0  0  0  0  0  0
   10.3545   10.5845   23.6928 C   0  0  0  0  0  0  0  0  0  0  0  0
    5.1511   16.6427   21.1078 C   0  0  0  0  0  0  0  0  0  0  0  0
    6.2094   15.7098   21.5204 N   0  0  0  0  0  0  0  0  0  0  0  0
    5.7292   16.1592   24.0112 O   0  0  0  0  0  0  0  0  0  0  0  0
    8.0571   16.5091   23.1266 O   0  0  0  0  0  0  0  0  0  0  0  0
    8.0344   10.0723   24.1420 O   0  0  0  0  0  0  0  0  0  0  0  0
   10.0493   11.8427   23.0853 O   0  0  0  0  0  0  0  0  0  0  0  0
    6.8096   15.7567   23.1199 S   0  0  0  0  0  0  0  0  0  0  0  0
    5.7764   11.2377   24.6321 H   0  0  0  0  0  0  0  0  0  0  0  0
    5.2401   13.6063   24.2125 H   0  0  0  0  0  0  0  0  0  0  0  0
    9.2234   14.2556   22.7083 H   0  0  0  0  0  0  0  0  0  0  0  0
    8.9894    9.4756   22.4143 H   0  0  0  0  0  0  0  0  0  0  0  0
    9.4685    8.6294   23.8991 H   0  0  0  0  0  0  0  0  0  0  0  0
   10.5520   10.7485   24.7593 H   0  0  0  0  0  0  0  0  0  0  0  0
   11.2709   10.2049   23.2300 H   0  0  0  0  0  0  0  0  0  0  0  0
    5.1955   17.5476   21.7317 H   0  0  0  0  0  0  0  0  0  0  0  0
    5.2959   16.9177   20.0526 H   0  0  0  0  0  0  0  0  0  0  0  0
    4.1698   16.1611   21.2299 H   0  0  0  0  0  0  0  0  0  0  0  0
    6.2589   14.8256   20.9995 H   0  0  0  0  0  0  0  0  0  0  0  0
  1  2  2  0  0  0  0
  1  4  1  0  0  0  0
  2  6  1  0  0  0  0
  3  5  1  0  0  0  0
  3  6  2  0  0  0  0
  4  5  2  0  0  0  0
  4 13  1  0  0  0  0
  5 14  1  0  0  0  0
  6 15  1  0  0  0  0
  7  8  1  0  0  0  0
  7 13  1  0  0  0  0
  8 14  1  0  0  0  0
  9 10  1  0  0  0  0
 10 15  1  0  0  0  0
 11 15  2  0  0  0  0
 12 15  2  0  0  0  0
  1 16  1  0  0  0  0
  2 17  1  0  0  0  0
  3 18  1  0  0  0  0
  7 19  1  0  0  0  0
  7 20  1  0  0  0  0
  8 21  1  0  0  0  0
  8 22  1  0  0  0  0
  9 23  1  0  0  0  0
  9 24  1  0  0  0  0
  9 25  1  0  0  0  0
 10 26  1  0  0  0  0
M  END
> <Mol Weight>
229,25

> <Formula>
C9H11NO4S

> <ID>
EN300-05794

> <name>
Sulfonamides

> <LogP>
0,32

> <ROCS_ShapeQuery>
x0310_0A_x0719_0A_x1080_0A_x0739_0A_x0929_0A_x0526_0A_x0911_0A

> <ROCS_TanimotoCombo>
0.334 

> <ROCS_ShapeTanimoto>
0.186 

> <ROCS_ColorTanimoto>
0.148 

> <ROCS_RefTversky>
0.177 

> <ROCS_RefColorTversky>
0.165 

> <ROCS_RefTverskyCombo>
0.342 

> <ROCS_FitTversky>
1.362 

> <ROCS_FitColorTversky>
0.588 

> <ROCS_FitTverskyCombo>
1.950 

> <ROCS_ColorScore>
-4.807

> <ROCS_Overlap>
1416.806

> <ROCS_Rank>
112                 

$$$$
untitled-dbase-1765_18
  -OEChem-02092407103D

 26 26  0     0  0  0  0  0  0999 V2000
    8.8066   10.8616   24.6905 C   0  0  0  0  0  0  0  0  0  0  0  0
    8.6261   10.2860   23.2985 C   0  0  0  0  0  0  0  0  0  0  0  0
    8.4601   12.3346   24.5126 C   0  0  0  0  0  0  0  0  0  0  0  0
    9.2538   11.3477   22.4068 C   0  0  0  0  0  0  0  0  0  0  0  0
    8.9007   12.6967   23.0740 C   0  0  0  0  0  0  0  0  0  0  0  0
    7.7549   13.3898   22.3236 C   0  0  0  0  0  0  0  0  0  0  0  0
   10.1222   13.6238   23.0904 C   0  0  0  0  0  0  0  0  0  0  0  0
    6.0143   15.3836   22.1085 N   0  0  0  0  0  0  0  0  0  0  0  0
    6.6731   14.4937   24.4303 O   0  0  0  0  0  0  0  0  0  0  0  0
    8.3543   15.8164   23.0852 O   0  0  0  0  0  0  0  0  0  0  0  0
   11.1408   13.0147   23.7086 F   0  0  0  0  0  0  0  0  0  0  0  0
   10.4793   13.9193   21.8350 F   0  0  0  0  0  0  0  0  0  0  0  0
    9.8206   14.7530   23.7421 F   0  0  0  0  0  0  0  0  0  0  0  0
    7.2601   14.8593   23.1499 S   0  0  0  0  0  0  0  0  0  0  0  0
    8.1563   10.3872   25.4181 H   0  0  0  0  0  0  0  0  0  0  0  0
    9.8367   10.7465   25.0171 H   0  0  0  0  0  0  0  0  0  0  0  0
    9.1570    9.3443   23.2069 H   0  0  0  0  0  0  0  0  0  0  0  0
    7.5836   10.1258   23.0524 H   0  0  0  0  0  0  0  0  0  0  0  0
    7.3745   12.4654   24.6213 H   0  0  0  0  0  0  0  0  0  0  0  0
    8.9399   12.9640   25.2714 H   0  0  0  0  0  0  0  0  0  0  0  0
   10.3328   11.2034   22.2918 H   0  0  0  0  0  0  0  0  0  0  0  0
    8.8054   11.2899   21.4071 H   0  0  0  0  0  0  0  0  0  0  0  0
    6.8917   12.7310   22.2687 H   0  0  0  0  0  0  0  0  0  0  0  0
    8.0755   13.6622   21.3212 H   0  0  0  0  0  0  0  0  0  0  0  0
    5.0474   15.3151   22.4493 H   0  0  0  0  0  0  0  0  0  0  0  0
    6.1925   16.2159   21.5331 H   0  0  0  0  0  0  0  0  0  0  0  0
  1  2  1  0  0  0  0
  1  3  1  0  0  0  0
  2  4  1  0  0  0  0
  3  5  1  0  0  0  0
  4  5  1  0  0  0  0
  5  6  1  0  0  0  0
  5  7  1  0  0  0  0
  6 14  1  0  0  0  0
  7 11  1  0  0  0  0
  7 12  1  0  0  0  0
  7 13  1  0  0  0  0
  8 14  1  0  0  0  0
  9 14  2  0  0  0  0
 10 14  2  0  0  0  0
  1 15  1  0  0  0  0
  1 16  1  0  0  0  0
  2 17  1  0  0  0  0
  2 18  1  0  0  0  0
  3 19  1  0  0  0  0
  3 20  1  0  0  0  0
  4 21  1  0  0  0  0
  4 22  1  0  0  0  0
  6 23  1  0  0  0  0
  6 24  1  0  0  0  0
  8 25  1  0  0  0  0
  8 26  1  0  0  0  0
M  END
> <Mol Weight>
231,23

> <Formula>
C7H12F3NO2S

> <ID>
EN300-27733632

> <name>
Sulfonamides

> <LogP>
1,03

> <ROCS_ShapeQuery>
x0310_0A_x0719_0A_x1080_0A_x0739_0A_x0929_0A_x0526_0A_x0911_0A

> <ROCS_TanimotoCombo>
0.333 

> <ROCS_ShapeTanimoto>
0.172 

> <ROCS_ColorTanimoto>
0.161 

> <ROCS_RefTversky>
0.165 

> <ROCS_RefColorTversky>
0.164 

> <ROCS_RefTverskyCombo>
0.329 

> <ROCS_FitTversky>
1.329 

> <ROCS_FitColorTversky>
0.895 

> <ROCS_FitTverskyCombo>
2.224 

> <ROCS_ColorScore>
-4.760

> <ROCS_Overlap>
1320.608

> <ROCS_Rank>
113                 

$$$$
untitled-dbase-1094_2
  -OEChem-02092407103D

 23 24  0     0  0  0  0  0  0999 V2000
    8.7071    9.9203   23.9170 C   0  0  0  0  0  0  0  0  0  0  0  0
    7.6463   10.7589   24.2462 C   0  0  0  0  0  0  0  0  0  0  0  0
   11.0224   13.6633   21.8428 C   0  0  0  0  0  0  0  0  0  0  0  0
    9.8142   10.4285   23.2369 C   0  0  0  0  0  0  0  0  0  0  0  0
    7.6886   12.1089   23.8967 C   0  0  0  0  0  0  0  0  0  0  0  0
   10.9801   12.3133   22.1925 C   0  0  0  0  0  0  0  0  0  0  0  0
    9.9616   14.5019   22.1721 C   0  0  0  0  0  0  0  0  0  0  0  0
    9.8737   11.7847   22.8771 C   0  0  0  0  0  0  0  0  0  0  0  0
    8.7950   12.6375   23.2119 C   0  0  0  0  0  0  0  0  0  0  0  0
    8.8544   13.9937   22.8522 C   0  0  0  0  0  0  0  0  0  0  0  0
    6.6031   14.9807   21.8215 N   0  0  0  0  0  0  0  0  0  0  0  0
    6.8325   14.6249   24.3644 O   0  0  0  0  0  0  0  0  0  0  0  0
    8.1441   16.4673   23.2540 O   0  0  0  0  0  0  0  0  0  0  0  0
    7.5687   15.1338   23.2202 S   0  0  0  0  0  0  0  0  0  0  0  0
    8.6731    8.8695   24.1893 H   0  0  0  0  0  0  0  0  0  0  0  0
    6.7854   10.3622   24.7765 H   0  0  0  0  0  0  0  0  0  0  0  0
   11.8847   14.0601   21.3150 H   0  0  0  0  0  0  0  0  0  0  0  0
   10.6315    9.7541   22.9895 H   0  0  0  0  0  0  0  0  0  0  0  0
    6.8371   12.7237   24.1756 H   0  0  0  0  0  0  0  0  0  0  0  0
   11.8204   11.6758   21.9255 H   0  0  0  0  0  0  0  0  0  0  0  0
   10.0104   15.5514   21.8934 H   0  0  0  0  0  0  0  0  0  0  0  0
    5.6973   14.5047   21.9133 H   0  0  0  0  0  0  0  0  0  0  0  0
    6.5956   15.7626   21.1553 H   0  0  0  0  0  0  0  0  0  0  0  0
  1  2  1  0  0  0  0
  1  4  2  0  0  0  0
  2  5  2  0  0  0  0
  3  6  1  0  0  0  0
  3  7  2  0  0  0  0
  4  8  1  0  0  0  0
  5  9  1  0  0  0  0
  6  8  2  0  0  0  0
  7 10  1  0  0  0  0
  8  9  1  0  0  0  0
  9 10  2  0  0  0  0
 10 14  1  0  0  0  0
 11 14  1  0  0  0  0
 12 14  2  0  0  0  0
 13 14  2  0  0  0  0
  1 15  1  0  0  0  0
  2 16  1  0  0  0  0
  3 17  1  0  0  0  0
  4 18  1  0  0  0  0
  5 19  1  0  0  0  0
  6 20  1  0  0  0  0
  7 21  1  0  0  0  0
 11 22  1  0  0  0  0
 11 23  1  0  0  0  0
M  END
> <Mol Weight>
207,25

> <Formula>
C10H9NO2S

> <ID>
EN300-169977

> <name>
Sulfonamides

> <LogP>
1,57

> <ROCS_ShapeQuery>
x0310_0A_x0719_0A_x1080_0A_x0739_0A_x0929_0A_x0526_0A_x0911_0A

> <ROCS_TanimotoCombo>
0.333 

> <ROCS_ShapeTanimoto>
0.178 

> <ROCS_ColorTanimoto>
0.155 

> <ROCS_RefTversky>
0.170 

> <ROCS_RefColorTversky>
0.163 

> <ROCS_RefTverskyCombo>
0.333 

> <ROCS_FitTversky>
1.358 

> <ROCS_FitColorTversky>
0.756 

> <ROCS_FitTverskyCombo>
2.114 

> <ROCS_ColorScore>
-4.741

> <ROCS_Overlap>
1360.751

> <ROCS_Rank>
114                 

$$$$
untitled-dbase-2665_18163
  -OEChem-02092407103D

 28 28  0     0  0  0  0  0  0999 V2000
    3.0729   11.6982   18.4120 C   0  0  0  0  0  0  0  0  0  0  0  0
    4.0507   11.8541   19.4366 C   0  0  0  0  0  0  0  0  0  0  0  0
    2.0498   12.6131   18.5295 C   0  0  0  0  0  0  0  0  0  0  0  0
    3.7377   12.8826   20.2982 C   0  0  0  0  0  0  0  0  0  0  0  0
    0.8969   12.7782   17.7055 C   0  0  0  0  0  0  0  0  0  0  0  0
    8.2450   15.9639   23.0002 C   0  0  0  0  0  0  0  0  0  0  0  0
    4.5091   13.3670   21.5012 C   0  0  0  0  0  0  0  0  0  0  0  0
   -0.4217   13.3201   18.3051 C   0  0  0  0  0  0  0  0  0  0  0  0
    4.9094   14.8368   21.3997 C   0  0  0  0  0  0  0  0  0  0  0  0
    5.6852   15.2936   22.5667 N   0  0  0  0  0  0  0  0  0  0  0  0
    0.9178   12.4914   16.4766 O   0  0  0  0  0  0  0  0  0  0  0  0
    7.5987   13.7325   21.7948 O   0  0  0  0  0  0  0  0  0  0  0  0
    7.1052   13.9809   24.2547 O   0  0  0  0  0  0  0  0  0  0  0  0
    2.2702   13.6546   19.8708 S   0  0  0  0  0  0  0  0  0  0  0  0
    7.1777   14.5439   22.9201 S   0  0  0  0  0  0  0  0  0  0  0  0
   -1.4613   12.0289   18.9416 Cl  0  0  0  0  0  0  0  0  0  0  0  0
    3.1219   10.9507   17.6303 H   0  0  0  0  0  0  0  0  0  0  0  0
    4.9377   11.2409   19.5331 H   0  0  0  0  0  0  0  0  0  0  0  0
    9.2565   15.6222   23.2251 H   0  0  0  0  0  0  0  0  0  0  0  0
    8.2181   16.4698   22.0340 H   0  0  0  0  0  0  0  0  0  0  0  0
    7.8804   16.6245   23.7883 H   0  0  0  0  0  0  0  0  0  0  0  0
    5.4117   12.7518   21.6067 H   0  0  0  0  0  0  0  0  0  0  0  0
    3.9206   13.1979   22.4121 H   0  0  0  0  0  0  0  0  0  0  0  0
   -0.1898   13.9915   19.1355 H   0  0  0  0  0  0  0  0  0  0  0  0
   -0.9847   13.8385   17.5253 H   0  0  0  0  0  0  0  0  0  0  0  0
    5.5423   14.9910   20.5200 H   0  0  0  0  0  0  0  0  0  0  0  0
    4.0342   15.4885   21.3091 H   0  0  0  0  0  0  0  0  0  0  0  0
    5.1061   15.5769   23.3678 H   0  0  0  0  0  0  0  0  0  0  0  0
  1  2  1  0  0  0  0
  1  3  2  0  0  0  0
  2  4  2  0  0  0  0
  3  5  1  0  0  0  0
  3 14  1  0  0  0  0
  4  7  1  0  0  0  0
  4 14  1  0  0  0  0
  5  8  1  0  0  0  0
  5 11  2  0  0  0  0
  6 15  1  0  0  0  0
  7  9  1  0  0  0  0
  8 16  1  0  0  0  0
  9 10  1  0  0  0  0
 10 15  1  0  0  0  0
 12 15  2  0  0  0  0
 13 15  2  0  0  0  0
  1 17  1  0  0  0  0
  2 18  1  0  0  0  0
  6 19  1  0  0  0  0
  6 20  1  0  0  0  0
  6 21  1  0  0  0  0
  7 22  1  0  0  0  0
  7 23  1  0  0  0  0
  8 24  1  0  0  0  0
  8 25  1  0  0  0  0
  9 26  1  0  0  0  0
  9 27  1  0  0  0  0
 10 28  1  0  0  0  0
M  END
> <Mol Weight>
281,77

> <Formula>
C9H12ClNO3S2

> <ID>
EN300-15407

> <name>
Sulfonamides

> <LogP>
0,84

> <ROCS_ShapeQuery>
x0310_0A_x0719_0A_x1080_0A_x0739_0A_x0929_0A_x0526_0A_x0911_0A

> <ROCS_TanimotoCombo>
0.333 

> <ROCS_ShapeTanimoto>
0.193 

> <ROCS_ColorTanimoto>
0.140 

> <ROCS_RefTversky>
0.182 

> <ROCS_RefColorTversky>
0.149 

> <ROCS_RefTverskyCombo>
0.332 

> <ROCS_FitTversky>
1.436 

> <ROCS_FitColorTversky>
0.691 

> <ROCS_FitTverskyCombo>
2.127 

> <ROCS_ColorScore>
-4.330

> <ROCS_Overlap>
1461.238

> <ROCS_Rank>
115                 

$$$$
untitled-dbase-2817_29
  -OEChem-02092407103D

 40 41  0     0  0  0  0  0  0999 V2000
    5.4415   13.0411   20.9973 B   0  0  0  0  0  0  0  0  0  0  0  0
    4.7047   11.3522   19.2065 C   0  0  0  0  0  0  0  0  0  0  0  0
    3.0088   12.7367   20.2281 C   0  0  0  0  0  0  0  0  0  0  0  0
    2.3943   11.1233   18.5381 C   0  0  0  0  0  0  0  0  0  0  0  0
    4.3442   12.3515   20.1104 C   0  0  0  0  0  0  0  0  0  0  0  0
    3.7298   10.7381   18.4203 C   0  0  0  0  0  0  0  0  0  0  0  0
    2.0338   12.1226   19.4420 C   0  0  0  0  0  0  0  0  0  0  0  0
    6.4453   14.5640   22.3822 C   0  0  0  0  0  0  0  0  0  0  0  0
    7.4451   13.4079   22.0443 C   0  0  0  0  0  0  0  0  0  0  0  0
    4.1144    9.6698   17.4533 C   0  0  0  0  0  0  0  0  0  0  0  0
    5.8412   14.5058   23.8034 C   0  0  0  0  0  0  0  0  0  0  0  0
    7.0033   15.9776   22.1653 C   0  0  0  0  0  0  0  0  0  0  0  0
    8.1274   12.7737   23.2646 C   0  0  0  0  0  0  0  0  0  0  0  0
    8.5459   13.7782   21.0250 C   0  0  0  0  0  0  0  0  0  0  0  0
   -0.3759   11.5739   18.4435 N   0  0  0  0  0  0  0  0  0  0  0  0
   -0.1056   12.2389   20.9194 O   0  0  0  0  0  0  0  0  0  0  0  0
    0.2349   13.9804   19.1309 O   0  0  0  0  0  0  0  0  0  0  0  0
    5.3435   14.3602   21.4398 O   0  0  0  0  0  0  0  0  0  0  0  0
    6.6025   12.3899   21.4140 O   0  0  0  0  0  0  0  0  0  0  0  0
    0.3619   12.6042   19.5896 S   0  0  0  0  0  0  0  0  0  0  0  0
    5.7419   11.0379   19.1003 H   0  0  0  0  0  0  0  0  0  0  0  0
    2.7105   13.5147   20.9295 H   0  0  0  0  0  0  0  0  0  0  0  0
    1.6352   10.6437   17.9243 H   0  0  0  0  0  0  0  0  0  0  0  0
    4.0724    8.6853   17.9352 H   0  0  0  0  0  0  0  0  0  0  0  0
    3.4452    9.6601   16.5833 H   0  0  0  0  0  0  0  0  0  0  0  0
    5.1312    9.8266   17.0701 H   0  0  0  0  0  0  0  0  0  0  0  0
    5.1684   15.3442   23.9335 H   0  0  0  0  0  0  0  0  0  0  0  0
    6.6437   14.5586   24.5283 H   0  0  0  0  0  0  0  0  0  0  0  0
    5.2997   13.5749   23.9168 H   0  0  0  0  0  0  0  0  0  0  0  0
    6.2436   16.7093   22.4240 H   0  0  0  0  0  0  0  0  0  0  0  0
    7.2839   16.0989   21.1231 H   0  0  0  0  0  0  0  0  0  0  0  0
    7.8760   16.1220   22.7955 H   0  0  0  0  0  0  0  0  0  0  0  0
    8.7988   11.9864   22.9344 H   0  0  0  0  0  0  0  0  0  0  0  0
    7.3724   12.3542   23.9230 H   0  0  0  0  0  0  0  0  0  0  0  0
    8.6925   13.5328   23.7975 H   0  0  0  0  0  0  0  0  0  0  0  0
    9.1788   12.9148   20.8628 H   0  0  0  0  0  0  0  0  0  0  0  0
    9.1313   14.5975   21.4229 H   0  0  0  0  0  0  0  0  0  0  0  0
    8.0774   14.0745   20.0948 H   0  0  0  0  0  0  0  0  0  0  0  0
   -0.9571   10.8022   18.7929 H   0  0  0  0  0  0  0  0  0  0  0  0
   -0.7221   11.9925   17.5716 H   0  0  0  0  0  0  0  0  0  0  0  0
  1  5  1  0  0  0  0
  1 18  1  0  0  0  0
  1 19  1  0  0  0  0
  2  5  2  0  0  0  0
  2  6  1  0  0  0  0
  3  5  1  0  0  0  0
  3  7  2  0  0  0  0
  4  6  2  0  0  0  0
  4  7  1  0  0  0  0
  6 10  1  0  0  0  0
  7 20  1  0  0  0  0
  8  9  1  0  0  0  0
  8 11  1  0  0  0  0
  8 12  1  0  0  0  0
  8 18  1  0  0  0  0
  9 13  1  0  0  0  0
  9 14  1  0  0  0  0
  9 19  1  0  0  0  0
 15 20  1  0  0  0  0
 16 20  2  0  0  0  0
 17 20  2  0  0  0  0
  2 21  1  0  0  0  0
  3 22  1  0  0  0  0
  4 23  1  0  0  0  0
 10 24  1  0  0  0  0
 10 25  1  0  0  0  0
 10 26  1  0  0  0  0
 11 27  1  0  0  0  0
 11 28  1  0  0  0  0
 11 29  1  0  0  0  0
 12 30  1  0  0  0  0
 12 31  1  0  0  0  0
 12 32  1  0  0  0  0
 13 33  1  0  0  0  0
 13 34  1  0  0  0  0
 13 35  1  0  0  0  0
 14 36  1  0  0  0  0
 14 37  1  0  0  0  0
 14 38  1  0  0  0  0
 15 39  1  0  0  0  0
 15 40  1  0  0  0  0
M  END
> <Mol Weight>
297,18

> <Formula>
C13H20BNO4S

> <ID>
EN300-12622197

> <name>
Sulfonamides

> <LogP>
3,00

> <ROCS_ShapeQuery>
x0310_0A_x0719_0A_x1080_0A_x0739_0A_x0929_0A_x0526_0A_x0911_0A

> <ROCS_TanimotoCombo>
0.333 

> <ROCS_ShapeTanimoto>
0.217 

> <ROCS_ColorTanimoto>
0.116 

> <ROCS_RefTversky>
0.205 

> <ROCS_RefColorTversky>
0.133 

> <ROCS_RefTverskyCombo>
0.339 

> <ROCS_FitTversky>
1.335 

> <ROCS_FitColorTversky>
0.475 

> <ROCS_FitTverskyCombo>
1.810 

> <ROCS_ColorScore>
-3.882

> <ROCS_Overlap>
1647.794

> <ROCS_Rank>
116                 

$$$$
untitled-dbase-2367_1244
  -OEChem-02092407103D

 31 31  0     0  0  0  0  0  0999 V2000
    3.6419   12.9261   21.1170 C   0  0  0  0  0  0  0  0  0  0  0  0
    4.5682   11.7294   19.2337 C   0  0  0  0  0  0  0  0  0  0  0  0
    2.4516   13.1114   20.4139 C   0  0  0  0  0  0  0  0  0  0  0  0
    3.3778   11.9146   18.5306 C   0  0  0  0  0  0  0  0  0  0  0  0
    4.7003   12.2352   20.5269 C   0  0  0  0  0  0  0  0  0  0  0  0
    2.3195   12.6056   19.1207 C   0  0  0  0  0  0  0  0  0  0  0  0
    6.9345   12.9710   23.3855 C   0  0  0  0  0  0  0  0  0  0  0  0
    9.5318   10.7507   23.3714 C   0  0  0  0  0  0  0  0  0  0  0  0
    5.9819   12.0363   21.2831 C   0  0  0  0  0  0  0  0  0  0  0  0
    8.5328   11.4552   24.2643 C   0  0  0  0  0  0  0  0  0  0  0  0
   -0.0393   11.4374   18.7011 N   0  0  0  0  0  0  0  0  0  0  0  0
    6.2406   13.1199   22.2031 N   0  0  0  0  0  0  0  0  0  0  0  0
    7.1749   13.8631   24.1923 O   0  0  0  0  0  0  0  0  0  0  0  0
    0.1528   14.0069   18.7810 O   0  0  0  0  0  0  0  0  0  0  0  0
    1.1162   12.7590   16.8157 O   0  0  0  0  0  0  0  0  0  0  0  0
    7.3212   11.6685   23.5312 O   0  0  0  0  0  0  0  0  0  0  0  0
    0.8289   12.8354   18.2414 S   0  0  0  0  0  0  0  0  0  0  0  0
    3.7358   13.3240   22.1239 H   0  0  0  0  0  0  0  0  0  0  0  0
    5.3876   11.1902   18.7657 H   0  0  0  0  0  0  0  0  0  0  0  0
    1.6334   13.6516   20.8828 H   0  0  0  0  0  0  0  0  0  0  0  0
    3.2858   11.5167   17.5234 H   0  0  0  0  0  0  0  0  0  0  0  0
    9.1467    9.7809   23.0440 H   0  0  0  0  0  0  0  0  0  0  0  0
    9.7562   11.3583   22.4885 H   0  0  0  0  0  0  0  0  0  0  0  0
   10.4785   10.5949   23.8994 H   0  0  0  0  0  0  0  0  0  0  0  0
    5.9498   11.1051   21.8592 H   0  0  0  0  0  0  0  0  0  0  0  0
    6.8347   11.9667   20.5997 H   0  0  0  0  0  0  0  0  0  0  0  0
    8.9241   12.4242   24.5881 H   0  0  0  0  0  0  0  0  0  0  0  0
    8.3091   10.8464   25.1454 H   0  0  0  0  0  0  0  0  0  0  0  0
    0.2671   10.5332   18.3216 H   0  0  0  0  0  0  0  0  0  0  0  0
   -0.3935   11.3849   19.6640 H   0  0  0  0  0  0  0  0  0  0  0  0
    5.8916   14.0433   21.9657 H   0  0  0  0  0  0  0  0  0  0  0  0
  1  3  2  0  0  0  0
  1  5  1  0  0  0  0
  2  4  1  0  0  0  0
  2  5  2  0  0  0  0
  3  6  1  0  0  0  0
  4  6  2  0  0  0  0
  5  9  1  0  0  0  0
  6 17  1  0  0  0  0
  7 12  1  0  0  0  0
  7 13  2  0  0  0  0
  7 16  1  0  0  0  0
  8 10  1  0  0  0  0
  9 12  1  0  0  0  0
 10 16  1  0  0  0  0
 11 17  1  0  0  0  0
 14 17  2  0  0  0  0
 15 17  2  0  0  0  0
  1 18  1  0  0  0  0
  2 19  1  0  0  0  0
  3 20  1  0  0  0  0
  4 21  1  0  0  0  0
  8 22  1  0  0  0  0
  8 23  1  0  0  0  0
  8 24  1  0  0  0  0
  9 25  1  0  0  0  0
  9 26  1  0  0  0  0
 10 27  1  0  0  0  0
 10 28  1  0  0  0  0
 11 29  1  0  0  0  0
 11 30  1  0  0  0  0
 12 31  1  0  0  0  0
M  END
> <Mol Weight>
258,29

> <Formula>
C10H14N2O4S

> <ID>
EN300-13547

> <name>
Sulfonamides

> <LogP>
0,50

> <ROCS_ShapeQuery>
x0310_0A_x0719_0A_x1080_0A_x0739_0A_x0929_0A_x0526_0A_x0911_0A

> <ROCS_TanimotoCombo>
0.333 

> <ROCS_ShapeTanimoto>
0.225 

> <ROCS_ColorTanimoto>
0.108 

> <ROCS_RefTversky>
0.209 

> <ROCS_RefColorTversky>
0.121 

> <ROCS_RefTverskyCombo>
0.330 

> <ROCS_FitTversky>
1.528 

> <ROCS_FitColorTversky>
0.489 

> <ROCS_FitTverskyCombo>
2.016 

> <ROCS_ColorScore>
-3.528

> <ROCS_Overlap>
1673.010

> <ROCS_Rank>
117                 

$$$$
untitled-dbase-2813_302
  -OEChem-02092407103D

 40 41  0     0  0  0  0  0  0999 V2000
    4.2498   11.7933   19.8711 B   0  0  0  0  0  0  0  0  0  0  0  0
    6.9560   10.4797   22.2678 C   0  0  0  0  0  0  0  0  0  0  0  0
    5.8385   10.5355   21.4348 C   0  0  0  0  0  0  0  0  0  0  0  0
    7.7340   11.6199   22.4684 C   0  0  0  0  0  0  0  0  0  0  0  0
    6.2772   12.8717   21.0029 C   0  0  0  0  0  0  0  0  0  0  0  0
    5.4992   11.7315   20.8024 C   0  0  0  0  0  0  0  0  0  0  0  0
    7.3947   12.8159   21.8359 C   0  0  0  0  0  0  0  0  0  0  0  0
    2.1399   12.2723   19.1419 C   0  0  0  0  0  0  0  0  0  0  0  0
    2.9243   11.4852   18.0378 C   0  0  0  0  0  0  0  0  0  0  0  0
    1.4609   13.5589   18.6511 C   0  0  0  0  0  0  0  0  0  0  0  0
    1.0842   11.4411   19.9056 C   0  0  0  0  0  0  0  0  0  0  0  0
    3.4097   12.3449   16.8486 C   0  0  0  0  0  0  0  0  0  0  0  0
    2.1801   10.2698   17.4670 C   0  0  0  0  0  0  0  0  0  0  0  0
    8.2280   14.0342   22.0502 C   0  0  0  0  0  0  0  0  0  0  0  0
    5.9398   15.3776   22.1527 N   0  0  0  0  0  0  0  0  0  0  0  0
    6.9534   14.3940   24.3025 O   0  0  0  0  0  0  0  0  0  0  0  0
    8.0673   16.3756   23.1989 O   0  0  0  0  0  0  0  0  0  0  0  0
    3.1743   12.6449   20.1101 O   0  0  0  0  0  0  0  0  0  0  0  0
    4.1196   11.0014   18.7330 O   0  0  0  0  0  0  0  0  0  0  0  0
    7.3312   15.1262   23.1056 S   0  0  0  0  0  0  0  0  0  0  0  0
    7.2218    9.5485   22.7594 H   0  0  0  0  0  0  0  0  0  0  0  0
    5.2498    9.6304   21.2972 H   0  0  0  0  0  0  0  0  0  0  0  0
    8.6028   11.5661   23.1187 H   0  0  0  0  0  0  0  0  0  0  0  0
    6.0278   13.8140   20.5169 H   0  0  0  0  0  0  0  0  0  0  0  0
    0.9492   14.0254   19.4835 H   0  0  0  0  0  0  0  0  0  0  0  0
    0.7505   13.3063   17.8739 H   0  0  0  0  0  0  0  0  0  0  0  0
    2.2172   14.2273   18.2591 H   0  0  0  0  0  0  0  0  0  0  0  0
    0.5962   12.0690   20.6453 H   0  0  0  0  0  0  0  0  0  0  0  0
    1.5716   10.6072   20.4022 H   0  0  0  0  0  0  0  0  0  0  0  0
    0.3450   11.0645   19.2046 H   0  0  0  0  0  0  0  0  0  0  0  0
    3.9394   11.7149   16.1400 H   0  0  0  0  0  0  0  0  0  0  0  0
    4.0762   13.1213   17.2126 H   0  0  0  0  0  0  0  0  0  0  0  0
    2.5538   12.8010   16.3596 H   0  0  0  0  0  0  0  0  0  0  0  0
    2.8022    9.7979   16.7169 H   0  0  0  0  0  0  0  0  0  0  0  0
    1.2516   10.6043   17.0215 H   0  0  0  0  0  0  0  0  0  0  0  0
    1.9761    9.5738   18.2710 H   0  0  0  0  0  0  0  0  0  0  0  0
    8.4367   14.5653   21.1146 H   0  0  0  0  0  0  0  0  0  0  0  0
    9.1831   13.8045   22.5362 H   0  0  0  0  0  0  0  0  0  0  0  0
    6.0390   15.9453   21.3021 H   0  0  0  0  0  0  0  0  0  0  0  0
    5.2805   14.5958   22.0540 H   0  0  0  0  0  0  0  0  0  0  0  0
  1  6  1  0  0  0  0
  1 18  1  0  0  0  0
  1 19  1  0  0  0  0
  2  3  2  0  0  0  0
  2  4  1  0  0  0  0
  3  6  1  0  0  0  0
  4  7  2  0  0  0  0
  5  6  2  0  0  0  0
  5  7  1  0  0  0  0
  7 14  1  0  0  0  0
  8  9  1  0  0  0  0
  8 10  1  0  0  0  0
  8 11  1  0  0  0  0
  8 18  1  0  0  0  0
  9 12  1  0  0  0  0
  9 13  1  0  0  0  0
  9 19  1  0  0  0  0
 14 20  1  0  0  0  0
 15 20  1  0  0  0  0
 16 20  2  0  0  0  0
 17 20  2  0  0  0  0
  2 21  1  0  0  0  0
  3 22  1  0  0  0  0
  4 23  1  0  0  0  0
  5 24  1  0  0  0  0
 10 25  1  0  0  0  0
 10 26  1  0  0  0  0
 10 27  1  0  0  0  0
 11 28  1  0  0  0  0
 11 29  1  0  0  0  0
 11 30  1  0  0  0  0
 12 31  1  0  0  0  0
 12 32  1  0  0  0  0
 12 33  1  0  0  0  0
 13 34  1  0  0  0  0
 13 35  1  0  0  0  0
 13 36  1  0  0  0  0
 14 37  1  0  0  0  0
 14 38  1  0  0  0  0
 15 39  1  0  0  0  0
 15 40  1  0  0  0  0
M  END
> <Mol Weight>
297,18

> <Formula>
C13H20BNO4S

> <ID>
EN300-12575765

> <name>
Sulfonamides

> <LogP>
2,38

> <ROCS_ShapeQuery>
x0310_0A_x0719_0A_x1080_0A_x0739_0A_x0929_0A_x0526_0A_x0911_0A

> <ROCS_TanimotoCombo>
0.333 

> <ROCS_ShapeTanimoto>
0.210 

> <ROCS_ColorTanimoto>
0.123 

> <ROCS_RefTversky>
0.200 

> <ROCS_RefColorTversky>
0.140 

> <ROCS_RefTverskyCombo>
0.340 

> <ROCS_FitTversky>
1.300 

> <ROCS_FitColorTversky>
0.500 

> <ROCS_FitTverskyCombo>
1.800 

> <ROCS_ColorScore>
-4.085

> <ROCS_Overlap>
1603.749

> <ROCS_Rank>
118                 

$$$$
untitled-dbase-2564_10
  -OEChem-02092407103D

 34 34  0     0  0  0  0  0  0999 V2000
    4.6121   11.3016   18.4184 C   0  0  0  0  0  0  0  0  0  0  0  0
    5.0589   11.7697   19.6541 C   0  0  0  0  0  0  0  0  0  0  0  0
    3.3294   11.6217   17.9736 C   0  0  0  0  0  0  0  0  0  0  0  0
    2.9401   12.8779   20.0004 C   0  0  0  0  0  0  0  0  0  0  0  0
    4.2229   12.5578   20.4451 C   0  0  0  0  0  0  0  0  0  0  0  0
    2.4934   12.4098   18.7646 C   0  0  0  0  0  0  0  0  0  0  0  0
    5.9696   13.3335   22.0754 C   0  0  0  0  0  0  0  0  0  0  0  0
    7.8219   15.2553   23.1025 C   0  0  0  0  0  0  0  0  0  0  0  0
    6.9931   14.5677   25.3717 C   0  0  0  0  0  0  0  0  0  0  0  0
    8.1376   12.8879   23.8964 C   0  0  0  0  0  0  0  0  0  0  0  0
    7.2301   14.1167   23.9321 C   0  0  0  0  0  0  0  0  0  0  0  0
   -0.0121   11.5039   18.8447 N   0  0  0  0  0  0  0  0  0  0  0  0
    4.6756   13.0324   21.6972 N   0  0  0  0  0  0  0  0  0  0  0  0
    6.9875   13.2486   21.3992 O   0  0  0  0  0  0  0  0  0  0  0  0
    0.4649   14.0372   18.8672 O   0  0  0  0  0  0  0  0  0  0  0  0
    0.8677   12.7254   16.7542 O   0  0  0  0  0  0  0  0  0  0  0  0
    5.9625   13.7621   23.3781 O   0  0  0  0  0  0  0  0  0  0  0  0
    0.8877   12.8094   18.2079 S   0  0  0  0  0  0  0  0  0  0  0  0
    5.2630   10.6884   17.8021 H   0  0  0  0  0  0  0  0  0  0  0  0
    6.0607   11.5143   19.9900 H   0  0  0  0  0  0  0  0  0  0  0  0
    2.9910   11.2515   17.0096 H   0  0  0  0  0  0  0  0  0  0  0  0
    2.2876   13.4926   20.6166 H   0  0  0  0  0  0  0  0  0  0  0  0
    7.9936   14.9357   22.0684 H   0  0  0  0  0  0  0  0  0  0  0  0
    7.1641   16.1305   23.0913 H   0  0  0  0  0  0  0  0  0  0  0  0
    8.7976   15.5608   23.4976 H   0  0  0  0  0  0  0  0  0  0  0  0
    6.5685   13.7538   25.9706 H   0  0  0  0  0  0  0  0  0  0  0  0
    6.2683   15.3890   25.4092 H   0  0  0  0  0  0  0  0  0  0  0  0
    7.9204   14.9015   25.8484 H   0  0  0  0  0  0  0  0  0  0  0  0
    7.7133   12.0710   24.4914 H   0  0  0  0  0  0  0  0  0  0  0  0
    8.2890   12.5279   22.8736 H   0  0  0  0  0  0  0  0  0  0  0  0
    9.1165   13.1135   24.3347 H   0  0  0  0  0  0  0  0  0  0  0  0
   -0.6440   11.6928   19.6325 H   0  0  0  0  0  0  0  0  0  0  0  0
   -0.3664   10.7972   18.1887 H   0  0  0  0  0  0  0  0  0  0  0  0
    3.9603   13.1690   22.4073 H   0  0  0  0  0  0  0  0  0  0  0  0
  1  2  2  0  0  0  0
  1  3  1  0  0  0  0
  2  5  1  0  0  0  0
  3  6  2  0  0  0  0
  4  5  2  0  0  0  0
  4  6  1  0  0  0  0
  5 13  1  0  0  0  0
  6 18  1  0  0  0  0
  7 13  1  0  0  0  0
  7 14  2  0  0  0  0
  7 17  1  0  0  0  0
  8 11  1  0  0  0  0
  9 11  1  0  0  0  0
 10 11  1  0  0  0  0
 11 17  1  0  0  0  0
 12 18  1  0  0  0  0
 15 18  2  0  0  0  0
 16 18  2  0  0  0  0
  1 19  1  0  0  0  0
  2 20  1  0  0  0  0
  3 21  1  0  0  0  0
  4 22  1  0  0  0  0
  8 23  1  0  0  0  0
  8 24  1  0  0  0  0
  8 25  1  0  0  0  0
  9 26  1  0  0  0  0
  9 27  1  0  0  0  0
  9 28  1  0  0  0  0
 10 29  1  0  0  0  0
 10 30  1  0  0  0  0
 10 31  1  0  0  0  0
 12 32  1  0  0  0  0
 12 33  1  0  0  0  0
 13 34  1  0  0  0  0
M  END
> <Mol Weight>
272,32

> <Formula>
C11H16N2O4S

> <ID>
EN300-1878313

> <name>
Sulfonamides

> <LogP>
1,49

> <ROCS_ShapeQuery>
x0310_0A_x0719_0A_x1080_0A_x0739_0A_x0929_0A_x0526_0A_x0911_0A

> <ROCS_TanimotoCombo>
0.332 

> <ROCS_ShapeTanimoto>
0.224 

> <ROCS_ColorTanimoto>
0.108 

> <ROCS_RefTversky>
0.210 

> <ROCS_RefColorTversky>
0.125 

> <ROCS_RefTverskyCombo>
0.334 

> <ROCS_FitTversky>
1.462 

> <ROCS_FitColorTversky>
0.445 

> <ROCS_FitTverskyCombo>
1.907 

> <ROCS_ColorScore>
-3.634

> <ROCS_Overlap>
1680.333

> <ROCS_Rank>
119                 

$$$$
untitled-dbase-2678_89
  -OEChem-02092407103D

 40 41  0     1  0  0  0  0  0999 V2000
    5.1400   12.4260   22.9164 C   0  0  0  0  0  0  0  0  0  0  0  0
    6.6043   13.4949   21.3194 C   0  0  0  0  0  0  0  0  0  0  0  0
    4.2984   12.0274   21.8779 C   0  0  0  0  0  0  0  0  0  0  0  0
    5.7627   13.0962   20.2809 C   0  0  0  0  0  0  0  0  0  0  0  0
    6.2930   13.1598   22.6371 C   0  0  0  0  0  0  0  0  0  0  0  0
    4.6098   12.3624   20.5602 C   0  0  0  0  0  0  0  0  0  0  0  0
    9.5259   10.0678   23.5892 C   0  0  0  0  0  0  0  0  0  0  0  0
    7.5397   11.3430   24.4888 C   0  0  0  0  0  0  0  0  0  0  0  0
    9.0820   12.4302   22.8115 C   0  0  0  0  0  0  0  0  0  0  0  0
    8.6062   10.2871   24.7994 C   0  0  1  0  0  0  0  0  0  0  0  0
   10.1597   11.3819   23.1093 C   0  0  2  0  0  0  0  0  0  0  0  0
    8.1650   12.6527   24.0133 C   0  0  0  0  0  0  0  0  0  0  0  0
    7.9548    8.9730   25.2268 C   0  0  0  0  0  0  0  0  0  0  0  0
   11.0323   11.1415   21.8788 C   0  0  0  0  0  0  0  0  0  0  0  0
    2.4909   13.1977   19.1754 N   0  0  0  0  0  0  0  0  0  0  0  0
    4.3364   11.8073   18.0323 O   0  0  0  0  0  0  0  0  0  0  0  0
    2.8059   10.6942   19.6955 O   0  0  0  0  0  0  0  0  0  0  0  0
    7.1196   13.5509   23.6565 O   0  0  0  0  0  0  0  0  0  0  0  0
    3.5558   11.8642   19.2601 S   0  0  0  0  0  0  0  0  0  0  0  0
    4.8927   12.1614   23.9409 H   0  0  0  0  0  0  0  0  0  0  0  0
    7.5010   14.0664   21.0956 H   0  0  0  0  0  0  0  0  0  0  0  0
    3.4029   11.4562   22.1068 H   0  0  0  0  0  0  0  0  0  0  0  0
    6.0144   13.3628   19.2579 H   0  0  0  0  0  0  0  0  0  0  0  0
   10.3168    9.3552   23.8548 H   0  0  0  0  0  0  0  0  0  0  0  0
    8.9540    9.6133   22.7691 H   0  0  0  0  0  0  0  0  0  0  0  0
    6.8445   10.9699   23.7244 H   0  0  0  0  0  0  0  0  0  0  0  0
    6.9241   11.5358   25.3765 H   0  0  0  0  0  0  0  0  0  0  0  0
    9.5470   13.3826   22.5264 H   0  0  0  0  0  0  0  0  0  0  0  0
    8.4813   12.1256   21.9439 H   0  0  0  0  0  0  0  0  0  0  0  0
    9.2173   10.6481   25.6374 H   0  0  0  0  0  0  0  0  0  0  0  0
   10.8052   11.7667   23.9102 H   0  0  0  0  0  0  0  0  0  0  0  0
    8.7298   13.1078   24.8357 H   0  0  0  0  0  0  0  0  0  0  0  0
    7.3394    8.5858   24.4165 H   0  0  0  0  0  0  0  0  0  0  0  0
    7.3292    9.1392   26.1021 H   0  0  0  0  0  0  0  0  0  0  0  0
    8.7241    8.2425   25.4712 H   0  0  0  0  0  0  0  0  0  0  0  0
   10.4219   10.7583   21.0629 H   0  0  0  0  0  0  0  0  0  0  0  0
   11.8096   10.4164   22.1140 H   0  0  0  0  0  0  0  0  0  0  0  0
   11.4975   12.0756   21.5684 H   0  0  0  0  0  0  0  0  0  0  0  0
    2.5710   13.8277   18.3678 H   0  0  0  0  0  0  0  0  0  0  0  0
    1.5271   13.0666   19.5057 H   0  0  0  0  0  0  0  0  0  0  0  0
  1  3  2  0  0  0  0
  1  5  1  0  0  0  0
  2  4  1  0  0  0  0
  2  5  2  0  0  0  0
  3  6  1  0  0  0  0
  4  6  2  0  0  0  0
  5 18  1  0  0  0  0
  6 19  1  0  0  0  0
  7 10  1  0  0  0  0
  7 11  1  0  0  0  0
  8 10  1  0  0  0  0
  8 12  1  0  0  0  0
  9 11  1  0  0  0  0
  9 12  1  0  0  0  0
 10 13  1  0  0  0  0
 11 14  1  0  0  0  0
 12 18  1  0  0  0  0
 15 19  1  0  0  0  0
 16 19  2  0  0  0  0
 17 19  2  0  0  0  0
  1 20  1  0  0  0  0
  2 21  1  0  0  0  0
  3 22  1  0  0  0  0
  4 23  1  0  0  0  0
  7 24  1  0  0  0  0
  7 25  1  0  0  0  0
  8 26  1  0  0  0  0
  8 27  1  0  0  0  0
  9 28  1  0  0  0  0
  9 29  1  0  0  0  0
 10 30  1  0  0  0  0
 11 31  1  0  0  0  0
 12 32  1  0  0  0  0
 13 33  1  0  0  0  0
 13 34  1  0  0  0  0
 13 35  1  0  0  0  0
 14 36  1  0  0  0  0
 14 37  1  0  0  0  0
 14 38  1  0  0  0  0
 15 39  1  0  0  0  0
 15 40  1  0  0  0  0
M  END
> <Mol Weight>
283,39

> <Formula>
C14H21NO3S

> <ID>
EN300-296494

> <name>
Sulfonamides

> <LogP>
2,79

> <ROCS_ShapeQuery>
x0310_0A_x0719_0A_x1080_0A_x0739_0A_x0929_0A_x0526_0A_x0911_0A

> <ROCS_TanimotoCombo>
0.332 

> <ROCS_ShapeTanimoto>
0.219 

> <ROCS_ColorTanimoto>
0.113 

> <ROCS_RefTversky>
0.206 

> <ROCS_RefColorTversky>
0.127 

> <ROCS_RefTverskyCombo>
0.333 

> <ROCS_FitTversky>
1.402 

> <ROCS_FitColorTversky>
0.511 

> <ROCS_FitTverskyCombo>
1.913 

> <ROCS_ColorScore>
-3.688

> <ROCS_Overlap>
1653.139

> <ROCS_Rank>
120                 

$$$$
untitled-dbase-2028_14
  -OEChem-02092407103D

 35 35  0     1  0  0  0  0  0999 V2000
    8.6588    9.8424   23.9395 C   0  0  0  0  0  0  0  0  0  0  0  0
    9.8774   10.4384   23.6149 C   0  0  0  0  0  0  0  0  0  0  0  0
    7.5156   10.6280   24.0868 C   0  0  0  0  0  0  0  0  0  0  0  0
    9.9529   11.8199   23.4377 C   0  0  0  0  0  0  0  0  0  0  0  0
    7.5910   12.0095   23.9096 C   0  0  0  0  0  0  0  0  0  0  0  0
    8.8097   12.6054   23.5850 C   0  0  0  0  0  0  0  0  0  0  0  0
    9.0491   14.5676   26.4628 C   0  0  0  0  0  0  0  0  0  0  0  0
    6.6798   15.3675   26.3713 C   0  0  0  0  0  0  0  0  0  0  0  0
   11.2444   15.0955   21.0633 C   0  0  0  0  0  0  0  0  0  0  0  0
    7.8966   14.9370   24.2150 C   0  0  0  0  0  0  0  0  0  0  0  0
    8.8908   14.1016   23.3934 C   0  0  2  0  0  0  0  0  0  0  0  0
    7.7348   14.4958   25.6843 C   0  0  0  0  0  0  0  0  0  0  0  0
   10.2192   14.0365   21.0652 N   0  0  0  0  0  0  0  0  0  0  0  0
    7.7109   13.4091   21.1621 O   0  0  0  0  0  0  0  0  0  0  0  0
    8.4108   15.8101   21.4813 O   0  0  0  0  0  0  0  0  0  0  0  0
    8.6569   14.3912   21.6555 S   0  0  0  0  0  0  0  0  0  0  0  0
    8.5999    8.7666   24.0762 H   0  0  0  0  0  0  0  0  0  0  0  0
   10.7675    9.8268   23.4992 H   0  0  0  0  0  0  0  0  0  0  0  0
    6.5664   10.1642   24.3384 H   0  0  0  0  0  0  0  0  0  0  0  0
   10.9067   12.2756   23.1851 H   0  0  0  0  0  0  0  0  0  0  0  0
    6.6952   12.6136   24.0264 H   0  0  0  0  0  0  0  0  0  0  0  0
    9.4467   15.5884   26.4593 H   0  0  0  0  0  0  0  0  0  0  0  0
    9.8066   13.9091   26.0247 H   0  0  0  0  0  0  0  0  0  0  0  0
    8.9098   14.2795   27.5090 H   0  0  0  0  0  0  0  0  0  0  0  0
    6.9849   16.4194   26.3723 H   0  0  0  0  0  0  0  0  0  0  0  0
    6.5230   15.0583   27.4103 H   0  0  0  0  0  0  0  0  0  0  0  0
    5.7194   15.3006   25.8491 H   0  0  0  0  0  0  0  0  0  0  0  0
   11.1141   15.7343   21.9493 H   0  0  0  0  0  0  0  0  0  0  0  0
   12.2444   14.6377   21.0853 H   0  0  0  0  0  0  0  0  0  0  0  0
   11.1401   15.7049   20.1535 H   0  0  0  0  0  0  0  0  0  0  0  0
    6.9120   14.9296   23.7294 H   0  0  0  0  0  0  0  0  0  0  0  0
    8.2218   15.9864   24.1932 H   0  0  0  0  0  0  0  0  0  0  0  0
    9.9090   14.4556   23.5921 H   0  0  0  0  0  0  0  0  0  0  0  0
    7.3751   13.4603   25.7143 H   0  0  0  0  0  0  0  0  0  0  0  0
   10.2785   13.3968   20.2623 H   0  0  0  0  0  0  0  0  0  0  0  0
  1  2  1  0  0  0  0
  1  3  2  0  0  0  0
  2  4  2  0  0  0  0
  3  5  1  0  0  0  0
  4  6  1  0  0  0  0
  5  6  2  0  0  0  0
  6 11  1  0  0  0  0
  7 12  1  0  0  0  0
  8 12  1  0  0  0  0
  9 13  1  0  0  0  0
 10 11  1  0  0  0  0
 10 12  1  0  0  0  0
 11 16  1  0  0  0  0
 13 16  1  0  0  0  0
 14 16  2  0  0  0  0
 15 16  2  0  0  0  0
  1 17  1  0  0  0  0
  2 18  1  0  0  0  0
  3 19  1  0  0  0  0
  4 20  1  0  0  0  0
  5 21  1  0  0  0  0
  7 22  1  0  0  0  0
  7 23  1  0  0  0  0
  7 24  1  0  0  0  0
  8 25  1  0  0  0  0
  8 26  1  0  0  0  0
  8 27  1  0  0  0  0
  9 28  1  0  0  0  0
  9 29  1  0  0  0  0
  9 30  1  0  0  0  0
 10 31  1  0  0  0  0
 10 32  1  0  0  0  0
 11 33  1  0  0  0  0
 12 34  1  0  0  0  0
 13 35  1  0  0  0  0
M  END
> <Mol Weight>
241,35

> <Formula>
C12H19NO2S

> <ID>
EN300-680272

> <name>
Sulfonamides

> <LogP>
2,39

> <ROCS_ShapeQuery>
x0310_0A_x0719_0A_x1080_0A_x0739_0A_x0929_0A_x0526_0A_x0911_0A

> <ROCS_TanimotoCombo>
0.332 

> <ROCS_ShapeTanimoto>
0.170 

> <ROCS_ColorTanimoto>
0.162 

> <ROCS_RefTversky>
0.164 

> <ROCS_RefColorTversky>
0.169 

> <ROCS_RefTverskyCombo>
0.334 

> <ROCS_FitTversky>
1.270 

> <ROCS_FitColorTversky>
0.784 

> <ROCS_FitTverskyCombo>
2.054 

> <ROCS_ColorScore>
-4.914

> <ROCS_Overlap>
1317.256

> <ROCS_Rank>
121                 

$$$$
untitled-dbase-2471_119
  -OEChem-02092407103D

 29 30  0     0  0  0  0  0  0999 V2000
    5.6802   10.5410   20.7769 C   0  0  0  0  0  0  0  0  0  0  0  0
    5.5172   12.9317   21.0854 C   0  0  0  0  0  0  0  0  0  0  0  0
    6.6750   10.4829   21.7528 C   0  0  0  0  0  0  0  0  0  0  0  0
    6.5120   12.8735   22.0615 C   0  0  0  0  0  0  0  0  0  0  0  0
    4.0213   11.4942   18.1003 C   0  0  0  0  0  0  0  0  0  0  0  0
    2.7068   11.7956   17.6707 C   0  0  0  0  0  0  0  0  0  0  0  0
    5.1013   11.7655   20.4431 C   0  0  0  0  0  0  0  0  0  0  0  0
    7.0909   11.6491   22.3952 C   0  0  0  0  0  0  0  0  0  0  0  0
    4.0725   11.8255   19.4343 C   0  0  0  0  0  0  0  0  0  0  0  0
    2.0484   12.2893   18.7728 C   0  0  0  0  0  0  0  0  0  0  0  0
    0.7143   12.7536   18.9453 C   0  0  0  0  0  0  0  0  0  0  0  0
   10.2044   13.1471   22.3415 C   0  0  0  0  0  0  0  0  0  0  0  0
    9.7633   11.7919   22.7015 N   0  0  0  0  0  0  0  0  0  0  0  0
    0.3544   13.9410   18.7822 O   0  0  0  0  0  0  0  0  0  0  0  0
    8.1812   12.7152   24.5129 O   0  0  0  0  0  0  0  0  0  0  0  0
    8.3378   10.2287   24.1703 O   0  0  0  0  0  0  0  0  0  0  0  0
    2.8739   12.3107   19.8520 O   0  0  0  0  0  0  0  0  0  0  0  0
    8.3358   11.5764   23.6166 S   0  0  0  0  0  0  0  0  0  0  0  0
    5.3667    9.6233   20.2851 H   0  0  0  0  0  0  0  0  0  0  0  0
    5.0754   13.8937   20.8365 H   0  0  0  0  0  0  0  0  0  0  0  0
    7.1193    9.5238   22.0053 H   0  0  0  0  0  0  0  0  0  0  0  0
    6.8286   13.7882   22.5557 H   0  0  0  0  0  0  0  0  0  0  0  0
    4.8278   11.0875   17.5069 H   0  0  0  0  0  0  0  0  0  0  0  0
    2.2952   11.6680   16.6794 H   0  0  0  0  0  0  0  0  0  0  0  0
   -0.0818   12.0167   19.2489 H   0  0  0  0  0  0  0  0  0  0  0  0
    9.8221   13.8662   23.0809 H   0  0  0  0  0  0  0  0  0  0  0  0
   11.3037   13.1835   22.3291 H   0  0  0  0  0  0  0  0  0  0  0  0
    9.8177   13.4057   21.3447 H   0  0  0  0  0  0  0  0  0  0  0  0
   10.0665   11.0376   22.0735 H   0  0  0  0  0  0  0  0  0  0  0  0
  1  3  2  0  0  0  0
  1  7  1  0  0  0  0
  2  4  1  0  0  0  0
  2  7  2  0  0  0  0
  3  8  1  0  0  0  0
  4  8  2  0  0  0  0
  5  6  1  0  0  0  0
  5  9  2  0  0  0  0
  6 10  2  0  0  0  0
  7  9  1  0  0  0  0
  8 18  1  0  0  0  0
  9 17  1  0  0  0  0
 10 11  1  0  0  0  0
 10 17  1  0  0  0  0
 11 14  2  0  0  0  0
 12 13  1  0  0  0  0
 13 18  1  0  0  0  0
 15 18  2  0  0  0  0
 16 18  2  0  0  0  0
  1 19  1  0  0  0  0
  2 20  1  0  0  0  0
  3 21  1  0  0  0  0
  4 22  1  0  0  0  0
  5 23  1  0  0  0  0
  6 24  1  0  0  0  0
 11 25  1  0  0  0  0
 12 26  1  0  0  0  0
 12 27  1  0  0  0  0
 12 28  1  0  0  0  0
 13 29  1  0  0  0  0
M  END
> <Mol Weight>
265,28

> <Formula>
C12H11NO4S

> <ID>
EN300-24701

> <name>
Sulfonamides

> <LogP>
1,14

> <ROCS_ShapeQuery>
x0310_0A_x0719_0A_x1080_0A_x0739_0A_x0929_0A_x0526_0A_x0911_0A

> <ROCS_TanimotoCombo>
0.332 

> <ROCS_ShapeTanimoto>
0.229 

> <ROCS_ColorTanimoto>
0.104 

> <ROCS_RefTversky>
0.213 

> <ROCS_RefColorTversky>
0.120 

> <ROCS_RefTverskyCombo>
0.333 

> <ROCS_FitTversky>
1.461 

> <ROCS_FitColorTversky>
0.428 

> <ROCS_FitTverskyCombo>
1.890 

> <ROCS_ColorScore>
-3.497

> <ROCS_Overlap>
1709.115

> <ROCS_Rank>
122                 

$$$$
untitled-dbase-2049_110
  -OEChem-02092407103D

 30 30  0     0  0  0  0  0  0999 V2000
    4.4707   11.3213   18.9159 C   0  0  0  0  0  0  0  0  0  0  0  0
    3.7596   12.5271   20.8850 C   0  0  0  0  0  0  0  0  0  0  0  0
    3.2652   11.6353   18.2883 C   0  0  0  0  0  0  0  0  0  0  0  0
    2.5542   12.8412   20.2574 C   0  0  0  0  0  0  0  0  0  0  0  0
    4.7179   11.7672   20.2143 C   0  0  0  0  0  0  0  0  0  0  0  0
    2.3070   12.3953   18.9591 C   0  0  0  0  0  0  0  0  0  0  0  0
    7.9986   12.4785   23.8652 C   0  0  0  0  0  0  0  0  0  0  0  0
    9.2988   11.9472   24.3707 C   0  0  0  0  0  0  0  0  0  0  0  0
    6.0063   11.4310   20.8859 C   0  0  0  0  0  0  0  0  0  0  0  0
    6.1219   11.9942   22.3077 C   0  0  0  0  0  0  0  0  0  0  0  0
   -0.1682   11.4603   18.6367 N   0  0  0  0  0  0  0  0  0  0  0  0
    7.3816   11.6718   22.9226 N   0  0  0  0  0  0  0  0  0  0  0  0
    7.5739   13.5448   24.2945 O   0  0  0  0  0  0  0  0  0  0  0  0
    0.2633   13.9974   18.7865 O   0  0  0  0  0  0  0  0  0  0  0  0
    1.0017   12.7404   16.7316 O   0  0  0  0  0  0  0  0  0  0  0  0
    0.7990   12.7903   18.1729 S   0  0  0  0  0  0  0  0  0  0  0  0
    5.2112   10.7284   18.3857 H   0  0  0  0  0  0  0  0  0  0  0  0
    3.9434   12.8785   21.8970 H   0  0  0  0  0  0  0  0  0  0  0  0
    3.0825   11.2825   17.2768 H   0  0  0  0  0  0  0  0  0  0  0  0
    1.8144   13.4335   20.7894 H   0  0  0  0  0  0  0  0  0  0  0  0
   10.1558   12.2909   23.7694 H   0  0  0  0  0  0  0  0  0  0  0  0
    9.5153   12.2749   25.4001 H   0  0  0  0  0  0  0  0  0  0  0  0
    9.3824   10.8488   24.3929 H   0  0  0  0  0  0  0  0  0  0  0  0
    6.8447   11.8224   20.2853 H   0  0  0  0  0  0  0  0  0  0  0  0
    6.1567   10.3380   20.9133 H   0  0  0  0  0  0  0  0  0  0  0  0
    6.0471   13.0861   22.2952 H   0  0  0  0  0  0  0  0  0  0  0  0
    5.3291   11.6051   22.9551 H   0  0  0  0  0  0  0  0  0  0  0  0
    0.0331   10.5467   18.2121 H   0  0  0  0  0  0  0  0  0  0  0  0
   -0.4739   11.4047   19.6158 H   0  0  0  0  0  0  0  0  0  0  0  0
    7.8440   10.8055   22.6512 H   0  0  0  0  0  0  0  0  0  0  0  0
  1  3  2  0  0  0  0
  1  5  1  0  0  0  0
  2  4  1  0  0  0  0
  2  5  2  0  0  0  0
  3  6  1  0  0  0  0
  4  6  2  0  0  0  0
  5  9  1  0  0  0  0
  6 16  1  0  0  0  0
  7  8  1  0  0  0  0
  7 12  1  0  0  0  0
  7 13  2  0  0  0  0
  9 10  1  0  0  0  0
 10 12  1  0  0  0  0
 11 16  1  0  0  0  0
 14 16  2  0  0  0  0
 15 16  2  0  0  0  0
  1 17  1  0  0  0  0
  2 18  1  0  0  0  0
  3 19  1  0  0  0  0
  4 20  1  0  0  0  0
  8 21  1  0  0  0  0
  8 22  1  0  0  0  0
  8 23  1  0  0  0  0
  9 24  1  0  0  0  0
  9 25  1  0  0  0  0
 10 26  1  0  0  0  0
 10 27  1  0  0  0  0
 11 28  1  0  0  0  0
 11 29  1  0  0  0  0
 12 30  1  0  0  0  0
M  END
> <Mol Weight>
242,29

> <Formula>
C10H14N2O3S

> <ID>
EN300-1617963

> <name>
Sulfonamides

> <LogP>
-0,19

> <ROCS_ShapeQuery>
x0310_0A_x0719_0A_x1080_0A_x0739_0A_x0929_0A_x0526_0A_x0911_0A

> <ROCS_TanimotoCombo>
0.332 

> <ROCS_ShapeTanimoto>
0.210 

> <ROCS_ColorTanimoto>
0.122 

> <ROCS_RefTversky>
0.196 

> <ROCS_RefColorTversky>
0.136 

> <ROCS_RefTverskyCombo>
0.332 

> <ROCS_FitTversky>
1.497 

> <ROCS_FitColorTversky>
0.547 

> <ROCS_FitTverskyCombo>
2.043 

> <ROCS_ColorScore>
-3.945

> <ROCS_Overlap>
1572.696

> <ROCS_Rank>
123                 

$$$$
untitled-dbase-891_1
  -OEChem-02092407103D

 20 21  0     0  0  0  0  0  0999 V2000
   10.9409   12.9375   22.0466 C   0  0  0  0  0  0  0  0  0  0  0  0
   10.7093   11.6373   22.5018 C   0  0  0  0  0  0  0  0  0  0  0  0
    9.9965   13.9541   22.2733 C   0  0  0  0  0  0  0  0  0  0  0  0
    9.5294   11.3952   23.1748 C   0  0  0  0  0  0  0  0  0  0  0  0
    8.6049   12.3902   23.3967 C   0  0  0  0  0  0  0  0  0  0  0  0
    8.8093   13.6821   22.9576 C   0  0  0  0  0  0  0  0  0  0  0  0
    7.8572   10.5516   24.2583 C   0  0  0  0  0  0  0  0  0  0  0  0
    6.6646   14.8033   21.8405 N   0  0  0  0  0  0  0  0  0  0  0  0
    6.8382   14.5766   24.4026 O   0  0  0  0  0  0  0  0  0  0  0  0
    8.3192   16.2280   23.2079 O   0  0  0  0  0  0  0  0  0  0  0  0
    9.1344   10.1986   23.6887 O   0  0  0  0  0  0  0  0  0  0  0  0
    7.5153   11.9411   24.0771 O   0  0  0  0  0  0  0  0  0  0  0  0
    7.6381   14.9395   23.2393 S   0  0  0  0  0  0  0  0  0  0  0  0
   11.8590   13.1671   21.5122 H   0  0  0  0  0  0  0  0  0  0  0  0
   11.4344   10.8503   22.3283 H   0  0  0  0  0  0  0  0  0  0  0  0
   10.2031   14.9573   21.9079 H   0  0  0  0  0  0  0  0  0  0  0  0
    7.0816    9.9356   23.7890 H   0  0  0  0  0  0  0  0  0  0  0  0
    7.8792   10.3328   25.3321 H   0  0  0  0  0  0  0  0  0  0  0  0
    5.7192   14.4157   21.9464 H   0  0  0  0  0  0  0  0  0  0  0  0
    6.7331   15.5429   21.1309 H   0  0  0  0  0  0  0  0  0  0  0  0
  1  2  1  0  0  0  0
  1  3  2  0  0  0  0
  2  4  2  0  0  0  0
  3  6  1  0  0  0  0
  4  5  1  0  0  0  0
  4 11  1  0  0  0  0
  5  6  2  0  0  0  0
  5 12  1  0  0  0  0
  6 13  1  0  0  0  0
  7 11  1  0  0  0  0
  7 12  1  0  0  0  0
  8 13  1  0  0  0  0
  9 13  2  0  0  0  0
 10 13  2  0  0  0  0
  1 14  1  0  0  0  0
  2 15  1  0  0  0  0
  3 16  1  0  0  0  0
  7 17  1  0  0  0  0
  7 18  1  0  0  0  0
  8 19  1  0  0  0  0
  8 20  1  0  0  0  0
M  END
> <Mol Weight>
201,20

> <Formula>
C7H7NO4S

> <ID>
EN300-372006

> <name>
Sulfonamides

> <LogP>
0,20

> <ROCS_ShapeQuery>
x0310_0A_x0719_0A_x1080_0A_x0739_0A_x0929_0A_x0526_0A_x0911_0A

> <ROCS_TanimotoCombo>
0.332 

> <ROCS_ShapeTanimoto>
0.178 

> <ROCS_ColorTanimoto>
0.154 

> <ROCS_RefTversky>
0.169 

> <ROCS_RefColorTversky>
0.171 

> <ROCS_RefTverskyCombo>
0.340 

> <ROCS_FitTversky>
1.400 

> <ROCS_FitColorTversky>
0.608 

> <ROCS_FitTverskyCombo>
2.007 

> <ROCS_ColorScore>
-4.982

> <ROCS_Overlap>
1355.366

> <ROCS_Rank>
124                 

$$$$
untitled-dbase-1729_204
  -OEChem-02092407103D

 30 31  0     1  0  0  0  0  0999 V2000
    2.8208   11.3670   17.4467 C   0  0  0  0  0  0  0  0  0  0  0  0
    2.1267   12.2993   18.1826 C   0  0  0  0  0  0  0  0  0  0  0  0
    4.3076   12.4260   18.5583 C   0  0  0  0  0  0  0  0  0  0  0  0
    5.5775   12.9574   19.1288 C   0  0  0  0  0  0  0  0  0  0  0  0
    4.1705   14.7691   20.1825 C   0  0  0  0  0  0  0  0  0  0  0  0
    2.8799   14.0182   19.8524 C   0  0  0  0  0  0  0  0  0  0  0  0
    5.3339   13.7866   20.4025 C   0  0  2  0  0  0  0  0  0  0  0  0
    5.6095   16.6916   24.0425 C   0  0  0  0  0  0  0  0  0  0  0  0
    6.6037   14.5278   20.8139 C   0  0  0  0  0  0  0  0  0  0  0  0
    4.1717   11.4511   17.6818 N   0  0  0  0  0  0  0  0  0  0  0  0
    3.0878   12.9643   18.8820 N   0  0  0  0  0  0  0  0  0  0  0  0
    6.2708   15.6180   21.6677 N   0  0  0  0  0  0  0  0  0  0  0  0
    8.1080   16.4244   23.3102 O   0  0  0  0  0  0  0  0  0  0  0  0
    6.7796   14.3644   23.9005 O   0  0  0  0  0  0  0  0  0  0  0  0
    6.8646   15.6789   23.2936 S   0  0  0  0  0  0  0  0  0  0  0  0
    2.4166   10.6379   16.7598 H   0  0  0  0  0  0  0  0  0  0  0  0
    1.0737   12.5289   18.2664 H   0  0  0  0  0  0  0  0  0  0  0  0
    6.2562   12.1260   19.3525 H   0  0  0  0  0  0  0  0  0  0  0  0
    6.0646   13.5743   18.3632 H   0  0  0  0  0  0  0  0  0  0  0  0
    4.4176   15.4510   19.3581 H   0  0  0  0  0  0  0  0  0  0  0  0
    4.0124   15.3883   21.0731 H   0  0  0  0  0  0  0  0  0  0  0  0
    2.4753   13.5376   20.7506 H   0  0  0  0  0  0  0  0  0  0  0  0
    2.1262   14.7052   19.4533 H   0  0  0  0  0  0  0  0  0  0  0  0
    5.0577   13.1046   21.2185 H   0  0  0  0  0  0  0  0  0  0  0  0
    5.8555   16.8208   25.0977 H   0  0  0  0  0  0  0  0  0  0  0  0
    5.5952   17.6559   23.5323 H   0  0  0  0  0  0  0  0  0  0  0  0
    4.6487   16.1864   23.9329 H   0  0  0  0  0  0  0  0  0  0  0  0
    7.2403   13.8139   21.3340 H   0  0  0  0  0  0  0  0  0  0  0  0
    7.0785   14.8861   19.9019 H   0  0  0  0  0  0  0  0  0  0  0  0
    6.1924   16.5604   21.2127 H   0  0  0  0  0  0  0  0  0  0  0  0
  1  2  2  0  0  0  0
  1 10  1  0  0  0  0
  2 11  1  0  0  0  0
  3  4  1  0  0  0  0
  3 10  2  0  0  0  0
  3 11  1  0  0  0  0
  4  7  1  0  0  0  0
  5  6  1  0  0  0  0
  5  7  1  0  0  0  0
  6 11  1  0  0  0  0
  7  9  1  0  0  0  0
  8 15  1  0  0  0  0
  9 12  1  0  0  0  0
 12 15  1  0  0  0  0
 13 15  2  0  0  0  0
 14 15  2  0  0  0  0
  1 16  1  0  0  0  0
  2 17  1  0  0  0  0
  4 18  1  0  0  0  0
  4 19  1  0  0  0  0
  5 20  1  0  0  0  0
  5 21  1  0  0  0  0
  6 22  1  0  0  0  0
  6 23  1  0  0  0  0
  7 24  1  0  0  0  0
  8 25  1  0  0  0  0
  8 26  1  0  0  0  0
  8 27  1  0  0  0  0
  9 28  1  0  0  0  0
  9 29  1  0  0  0  0
 12 30  1  0  0  0  0
M  END
> <Mol Weight>
229,30

> <Formula>
C9H15N3O2S

> <ID>
EN300-158533

> <name>
Sulfonamides

> <LogP>
-0,99

> <ROCS_ShapeQuery>
x0310_0A_x0719_0A_x1080_0A_x0739_0A_x0929_0A_x0526_0A_x0911_0A

> <ROCS_TanimotoCombo>
0.332 

> <ROCS_ShapeTanimoto>
0.148 

> <ROCS_ColorTanimoto>
0.184 

> <ROCS_RefTversky>
0.145 

> <ROCS_RefColorTversky>
0.199 

> <ROCS_RefTverskyCombo>
0.344 

> <ROCS_FitTversky>
1.130 

> <ROCS_FitColorTversky>
0.708 

> <ROCS_FitTverskyCombo>
1.838 

> <ROCS_ColorScore>
-5.794

> <ROCS_Overlap>
1163.034

> <ROCS_Rank>
125                 

$$$$
untitled-dbase-1219_228
  -OEChem-02092407103D

 25 25  0     0  0  0  0  0  0999 V2000
    9.4648   10.5042   24.4595 C   0  0  0  0  0  0  0  0  0  0  0  0
    8.0715   10.4695   24.5157 C   0  0  0  0  0  0  0  0  0  0  0  0
   10.1068   11.4302   23.6372 C   0  0  0  0  0  0  0  0  0  0  0  0
    7.3202   11.3606   23.7496 C   0  0  0  0  0  0  0  0  0  0  0  0
    9.3554   12.3214   22.8711 C   0  0  0  0  0  0  0  0  0  0  0  0
    7.9621   12.2866   22.9273 C   0  0  0  0  0  0  0  0  0  0  0  0
    7.1580   13.2402   22.1074 C   0  0  0  0  0  0  0  0  0  0  0  0
    6.0718   17.3708   24.2845 C   0  0  0  0  0  0  0  0  0  0  0  0
    5.8055   13.6832   22.6293 C   0  0  0  0  0  0  0  0  0  0  0  0
    5.7968   15.1454   22.8143 N   0  0  0  0  0  0  0  0  0  0  0  0
    7.6113   13.6404   21.0372 O   0  0  0  0  0  0  0  0  0  0  0  0
    8.1335   16.1934   23.1830 O   0  0  0  0  0  0  0  0  0  0  0  0
    6.9576   15.0573   25.1021 O   0  0  0  0  0  0  0  0  0  0  0  0
    6.9148   15.8552   23.8917 S   0  0  0  0  0  0  0  0  0  0  0  0
   10.0498    9.8104   25.0560 H   0  0  0  0  0  0  0  0  0  0  0  0
    7.5719    9.7483   25.1559 H   0  0  0  0  0  0  0  0  0  0  0  0
   11.1916   11.4575   23.5936 H   0  0  0  0  0  0  0  0  0  0  0  0
    6.2350   11.3249   23.8011 H   0  0  0  0  0  0  0  0  0  0  0  0
    9.8663   13.0386   22.2338 H   0  0  0  0  0  0  0  0  0  0  0  0
    6.6898   17.9377   24.9826 H   0  0  0  0  0  0  0  0  0  0  0  0
    5.9249   17.9325   23.3608 H   0  0  0  0  0  0  0  0  0  0  0  0
    5.1112   17.1228   24.7385 H   0  0  0  0  0  0  0  0  0  0  0  0
    5.6082   13.2057   23.5930 H   0  0  0  0  0  0  0  0  0  0  0  0
    5.0300   13.4134   21.9066 H   0  0  0  0  0  0  0  0  0  0  0  0
    5.5756   15.6728   21.9598 H   0  0  0  0  0  0  0  0  0  0  0  0
  1  2  1  0  0  0  0
  1  3  2  0  0  0  0
  2  4  2  0  0  0  0
  3  5  1  0  0  0  0
  4  6  1  0  0  0  0
  5  6  2  0  0  0  0
  6  7  1  0  0  0  0
  7  9  1  0  0  0  0
  7 11  2  0  0  0  0
  8 14  1  0  0  0  0
  9 10  1  0  0  0  0
 10 14  1  0  0  0  0
 12 14  2  0  0  0  0
 13 14  2  0  0  0  0
  1 15  1  0  0  0  0
  2 16  1  0  0  0  0
  3 17  1  0  0  0  0
  4 18  1  0  0  0  0
  5 19  1  0  0  0  0
  8 20  1  0  0  0  0
  8 21  1  0  0  0  0
  8 22  1  0  0  0  0
  9 23  1  0  0  0  0
  9 24  1  0  0  0  0
 10 25  1  0  0  0  0
M  END
> <Mol Weight>
213,25

> <Formula>
C9H11NO3S

> <ID>
EN300-122004

> <name>
Sulfonamides

> <LogP>
-0,08

> <ROCS_ShapeQuery>
x0310_0A_x0719_0A_x1080_0A_x0739_0A_x0929_0A_x0526_0A_x0911_0A

> <ROCS_TanimotoCombo>
0.332 

> <ROCS_ShapeTanimoto>
0.164 

> <ROCS_ColorTanimoto>
0.168 

> <ROCS_RefTversky>
0.158 

> <ROCS_RefColorTversky>
0.175 

> <ROCS_RefTverskyCombo>
0.332 

> <ROCS_FitTversky>
1.302 

> <ROCS_FitColorTversky>
0.808 

> <ROCS_FitTverskyCombo>
2.111 

> <ROCS_ColorScore>
-5.066

> <ROCS_Overlap>
1264.096

> <ROCS_Rank>
126                 

$$$$
untitled-dbase-2514_11
  -OEChem-02092407103D

 29 30  0     1  0  0  0  0  0999 V2000
    6.4401   12.9961   21.9867 C   0  0  0  0  0  0  0  0  0  0  0  0
    7.3565   11.2049   20.6493 C   0  0  0  0  0  0  0  0  0  0  0  0
    5.3268   13.0526   21.1484 C   0  0  0  0  0  0  0  0  0  0  0  0
    6.2431   11.2613   19.8109 C   0  0  0  0  0  0  0  0  0  0  0  0
    7.4550   12.0723   21.7372 C   0  0  0  0  0  0  0  0  0  0  0  0
    5.2283   12.1852   20.0605 C   0  0  0  0  0  0  0  0  0  0  0  0
    8.3084   12.4294   24.0867 C   0  0  0  0  0  0  0  0  0  0  0  0
    9.0756   10.2999   24.2647 C   0  0  0  0  0  0  0  0  0  0  0  0
    8.6719   12.0109   22.6525 C   0  0  2  0  0  0  0  0  0  0  0  0
    9.8540   12.8482   22.1531 C   0  0  0  0  0  0  0  0  0  0  0  0
    8.5728   11.3857   24.9399 N   0  0  0  0  0  0  0  0  0  0  0  0
    9.1377   10.6563   22.9187 N   0  0  0  0  0  0  0  0  0  0  0  0
    2.7908   11.1425   19.7842 N   0  0  0  0  0  0  0  0  0  0  0  0
    7.8604   13.5222   24.4091 O   0  0  0  0  0  0  0  0  0  0  0  0
    9.4054    9.2249   24.7463 O   0  0  0  0  0  0  0  0  0  0  0  0
    3.2534   13.5864   19.1067 O   0  0  0  0  0  0  0  0  0  0  0  0
    4.2066   11.7184   17.7104 O   0  0  0  0  0  0  0  0  0  0  0  0
    3.8338   12.2542   19.0123 S   0  0  0  0  0  0  0  0  0  0  0  0
    6.5084   13.6761   22.8317 H   0  0  0  0  0  0  0  0  0  0  0  0
    8.1426   10.4822   20.4469 H   0  0  0  0  0  0  0  0  0  0  0  0
    4.5420   13.7765   21.3515 H   0  0  0  0  0  0  0  0  0  0  0  0
    6.1768   10.5812   18.9659 H   0  0  0  0  0  0  0  0  0  0  0  0
   10.6922   12.7654   22.8464 H   0  0  0  0  0  0  0  0  0  0  0  0
    9.5646   13.8971   22.0751 H   0  0  0  0  0  0  0  0  0  0  0  0
   10.1739   12.4975   21.1708 H   0  0  0  0  0  0  0  0  0  0  0  0
    8.4165   11.4137   25.9411 H   0  0  0  0  0  0  0  0  0  0  0  0
    9.4827   10.0296   22.1945 H   0  0  0  0  0  0  0  0  0  0  0  0
    1.9705   11.5145   20.2784 H   0  0  0  0  0  0  0  0  0  0  0  0
    2.6241   10.2389   19.3248 H   0  0  0  0  0  0  0  0  0  0  0  0
  1  3  2  0  0  0  0
  1  5  1  0  0  0  0
  2  4  1  0  0  0  0
  2  5  2  0  0  0  0
  3  6  1  0  0  0  0
  4  6  2  0  0  0  0
  5  9  1  0  0  0  0
  6 18  1  0  0  0  0
  7  9  1  0  0  0  0
  7 11  1  0  0  0  0
  7 14  2  0  0  0  0
  8 11  1  0  0  0  0
  8 12  1  0  0  0  0
  8 15  2  0  0  0  0
  9 10  1  0  0  0  0
  9 12  1  0  0  0  0
 13 18  1  0  0  0  0
 16 18  2  0  0  0  0
 17 18  2  0  0  0  0
  1 19  1  0  0  0  0
  2 20  1  0  0  0  0
  3 21  1  0  0  0  0
  4 22  1  0  0  0  0
 10 23  1  0  0  0  0
 10 24  1  0  0  0  0
 10 25  1  0  0  0  0
 11 26  1  0  0  0  0
 12 27  1  0  0  0  0
 13 28  1  0  0  0  0
 13 29  1  0  0  0  0
M  END
> <Mol Weight>
269,28

> <Formula>
C10H11N3O4S

> <ID>
EN300-64885

> <name>
Sulfonamides

> <LogP>
-0,47

> <ROCS_ShapeQuery>
x0310_0A_x0719_0A_x1080_0A_x0739_0A_x0929_0A_x0526_0A_x0911_0A

> <ROCS_TanimotoCombo>
0.331 

> <ROCS_ShapeTanimoto>
0.204 

> <ROCS_ColorTanimoto>
0.128 

> <ROCS_RefTversky>
0.194 

> <ROCS_RefColorTversky>
0.152 

> <ROCS_RefTverskyCombo>
0.346 

> <ROCS_FitTversky>
1.324 

> <ROCS_FitColorTversky>
0.441 

> <ROCS_FitTverskyCombo>
1.765 

> <ROCS_ColorScore>
-4.443

> <ROCS_Overlap>
1557.869

> <ROCS_Rank>
127                 

$$$$
untitled-dbase-2452_453
  -OEChem-02092407103D

 28 28  0     0  0  0  0  0  0999 V2000
    4.3706   11.4299   19.3308 C   0  0  0  0  0  0  0  0  0  0  0  0
    3.3715   11.5631   18.3237 C   0  0  0  0  0  0  0  0  0  0  0  0
    3.9982   12.0327   20.5121 C   0  0  0  0  0  0  0  0  0  0  0  0
    2.2733   12.2626   18.7739 C   0  0  0  0  0  0  0  0  0  0  0  0
    7.3609   13.3794   23.4797 C   0  0  0  0  0  0  0  0  0  0  0  0
    7.2163   15.7389   23.2883 C   0  0  0  0  0  0  0  0  0  0  0  0
    4.7671   12.1150   21.8079 C   0  0  0  0  0  0  0  0  0  0  0  0
    6.2794   12.1532   21.6016 C   0  0  0  0  0  0  0  0  0  0  0  0
   -0.2166   11.3896   18.3952 N   0  0  0  0  0  0  0  0  0  0  0  0
    7.0078   12.2055   22.8482 N   0  0  0  0  0  0  0  0  0  0  0  0
    7.9779   13.4671   24.5363 O   0  0  0  0  0  0  0  0  0  0  0  0
    0.2530   13.9025   18.7272 O   0  0  0  0  0  0  0  0  0  0  0  0
    0.9659   12.7878   16.5832 O   0  0  0  0  0  0  0  0  0  0  0  0
    6.9187   14.4461   22.7490 O   0  0  0  0  0  0  0  0  0  0  0  0
    2.4496   12.7555   20.4043 S   0  0  0  0  0  0  0  0  0  0  0  0
    0.7587   12.7388   18.0201 S   0  0  0  0  0  0  0  0  0  0  0  0
    5.3137   10.9167   19.1916 H   0  0  0  0  0  0  0  0  0  0  0  0
    3.4555   11.1653   17.3207 H   0  0  0  0  0  0  0  0  0  0  0  0
    6.8181   16.5114   22.6259 H   0  0  0  0  0  0  0  0  0  0  0  0
    8.2987   15.8524   23.3886 H   0  0  0  0  0  0  0  0  0  0  0  0
    6.7497   15.8297   24.2720 H   0  0  0  0  0  0  0  0  0  0  0  0
    4.5069   11.2443   22.4229 H   0  0  0  0  0  0  0  0  0  0  0  0
    4.4414   12.9949   22.3774 H   0  0  0  0  0  0  0  0  0  0  0  0
    6.6078   11.2475   21.0819 H   0  0  0  0  0  0  0  0  0  0  0  0
    6.5840   13.0189   21.0044 H   0  0  0  0  0  0  0  0  0  0  0  0
   -0.0230   10.5068   17.9068 H   0  0  0  0  0  0  0  0  0  0  0  0
   -0.5126   11.2677   19.3713 H   0  0  0  0  0  0  0  0  0  0  0  0
    7.2749   11.3282   23.2840 H   0  0  0  0  0  0  0  0  0  0  0  0
  1  2  1  0  0  0  0
  1  3  2  0  0  0  0
  2  4  2  0  0  0  0
  3  7  1  0  0  0  0
  3 15  1  0  0  0  0
  4 15  1  0  0  0  0
  4 16  1  0  0  0  0
  5 10  1  0  0  0  0
  5 11  2  0  0  0  0
  5 14  1  0  0  0  0
  6 14  1  0  0  0  0
  7  8  1  0  0  0  0
  8 10  1  0  0  0  0
  9 16  1  0  0  0  0
 12 16  2  0  0  0  0
 13 16  2  0  0  0  0
  1 17  1  0  0  0  0
  2 18  1  0  0  0  0
  6 19  1  0  0  0  0
  6 20  1  0  0  0  0
  6 21  1  0  0  0  0
  7 22  1  0  0  0  0
  7 23  1  0  0  0  0
  8 24  1  0  0  0  0
  8 25  1  0  0  0  0
  9 26  1  0  0  0  0
  9 27  1  0  0  0  0
 10 28  1  0  0  0  0
M  END
> <Mol Weight>
264,31

> <Formula>
C8H12N2O4S2

> <ID>
EN300-173085

> <name>
Sulfonamides

> <LogP>
0,51

> <ROCS_ShapeQuery>
x0310_0A_x0719_0A_x1080_0A_x0739_0A_x0929_0A_x0526_0A_x0911_0A

> <ROCS_TanimotoCombo>
0.331 

> <ROCS_ShapeTanimoto>
0.205 

> <ROCS_ColorTanimoto>
0.127 

> <ROCS_RefTversky>
0.192 

> <ROCS_RefColorTversky>
0.140 

> <ROCS_RefTverskyCombo>
0.332 

> <ROCS_FitTversky>
1.485 

> <ROCS_FitColorTversky>
0.565 

> <ROCS_FitTverskyCombo>
2.049 

> <ROCS_ColorScore>
-4.074

> <ROCS_Overlap>
1536.812

> <ROCS_Rank>
128                 

$$$$
untitled-dbase-2098_23
  -OEChem-02092407103D

 28 29  0     0  0  0  0  0  0999 V2000
    9.8362   10.8462   24.1038 C   0  0  0  0  0  0  0  0  0  0  0  0
    9.7202   12.1288   24.4503 C   0  0  0  0  0  0  0  0  0  0  0  0
    8.5264   10.3785   23.6245 C   0  0  0  0  0  0  0  0  0  0  0  0
    8.3303   12.5484   24.2104 C   0  0  0  0  0  0  0  0  0  0  0  0
    5.9186   12.7147   22.5582 C   0  0  0  0  0  0  0  0  0  0  0  0
    6.1042   10.6612   22.0028 C   0  0  0  0  0  0  0  0  0  0  0  0
    5.1547   11.8068   21.5549 C   0  0  0  0  0  0  0  0  0  0  0  0
    6.2603   11.4252   23.3355 C   0  0  0  0  0  0  0  0  0  0  0  0
    5.2134   12.2070   20.0955 C   0  0  0  0  0  0  0  0  0  0  0  0
    7.6660   11.4501   23.7128 N   0  0  0  0  0  0  0  0  0  0  0  0
    2.6271   12.5110   19.5761 N   0  0  0  0  0  0  0  0  0  0  0  0
    8.3056    9.2444   23.2351 O   0  0  0  0  0  0  0  0  0  0  0  0
    7.9098   13.6712   24.4316 O   0  0  0  0  0  0  0  0  0  0  0  0
    4.2099   11.6165   17.7564 O   0  0  0  0  0  0  0  0  0  0  0  0
    3.6403   10.1519   19.7353 O   0  0  0  0  0  0  0  0  0  0  0  0
    3.9102   11.4635   19.1703 S   0  0  0  0  0  0  0  0  0  0  0  0
   10.7211   10.2347   24.1557 H   0  0  0  0  0  0  0  0  0  0  0  0
   10.4921   12.7703   24.8406 H   0  0  0  0  0  0  0  0  0  0  0  0
    6.7848   13.2340   22.1300 H   0  0  0  0  0  0  0  0  0  0  0  0
    5.3021   13.4403   23.0958 H   0  0  0  0  0  0  0  0  0  0  0  0
    5.6423    9.6728   22.0768 H   0  0  0  0  0  0  0  0  0  0  0  0
    7.0246   10.5790   21.4120 H   0  0  0  0  0  0  0  0  0  0  0  0
    4.1157   11.6274   21.8696 H   0  0  0  0  0  0  0  0  0  0  0  0
    5.6152   11.1585   24.1072 H   0  0  0  0  0  0  0  0  0  0  0  0
    6.1551   11.8881   19.6419 H   0  0  0  0  0  0  0  0  0  0  0  0
    5.1130   13.2893   19.9841 H   0  0  0  0  0  0  0  0  0  0  0  0
    2.2560   12.4637   20.5330 H   0  0  0  0  0  0  0  0  0  0  0  0
    2.6439   13.4609   19.1851 H   0  0  0  0  0  0  0  0  0  0  0  0
  1  2  2  0  0  0  0
  1  3  1  0  0  0  0
  2  4  1  0  0  0  0
  3 10  1  0  0  0  0
  3 12  2  0  0  0  0
  4 10  1  0  0  0  0
  4 13  2  0  0  0  0
  5  7  1  0  0  0  0
  5  8  1  0  0  0  0
  6  7  1  0  0  0  0
  6  8  1  0  0  0  0
  7  9  1  0  0  0  0
  8 10  1  0  0  0  0
  9 16  1  0  0  0  0
 11 16  1  0  0  0  0
 14 16  2  0  0  0  0
 15 16  2  0  0  0  0
  1 17  1  0  0  0  0
  2 18  1  0  0  0  0
  5 19  1  0  0  0  0
  5 20  1  0  0  0  0
  6 21  1  0  0  0  0
  6 22  1  0  0  0  0
  7 23  1  0  0  0  0
  8 24  1  0  0  0  0
  9 25  1  0  0  0  0
  9 26  1  0  0  0  0
 11 27  1  0  0  0  0
 11 28  1  0  0  0  0
M  END
> <Mol Weight>
244,27

> <Formula>
C9H12N2O4S

> <ID>
EN300-37468848

> <name>
Sulfonamides

> <LogP>
-1,44

> <ROCS_ShapeQuery>
x0310_0A_x0719_0A_x1080_0A_x0739_0A_x0929_0A_x0526_0A_x0911_0A

> <ROCS_TanimotoCombo>
0.331 

> <ROCS_ShapeTanimoto>
0.193 

> <ROCS_ColorTanimoto>
0.138 

> <ROCS_RefTversky>
0.184 

> <ROCS_RefColorTversky>
0.155 

> <ROCS_RefTverskyCombo>
0.339 

> <ROCS_FitTversky>
1.363 

> <ROCS_FitColorTversky>
0.553 

> <ROCS_FitTverskyCombo>
1.915 

> <ROCS_ColorScore>
-4.516

> <ROCS_Overlap>
1470.876

> <ROCS_Rank>
129                 

$$$$
untitled-dbase-1033_255
  -OEChem-02092407103D

 32 32  0     0  0  0  0  0  0999 V2000
   10.1547   10.0984   23.4601 C   0  0  0  0  0  0  0  0  0  0  0  0
    8.6944    9.8737   23.0747 C   0  0  0  0  0  0  0  0  0  0  0  0
   10.5970   11.5561   23.5074 C   0  0  0  0  0  0  0  0  0  0  0  0
    7.7287   10.2600   24.1891 C   0  0  0  0  0  0  0  0  0  0  0  0
    9.7738   12.4667   24.4198 C   0  0  0  0  0  0  0  0  0  0  0  0
    7.3145   11.7293   24.2185 C   0  0  0  0  0  0  0  0  0  0  0  0
    8.3799   12.7743   23.8529 C   0  0  0  0  0  0  0  0  0  0  0  0
    7.9074   14.1545   24.3268 C   0  0  0  0  0  0  0  0  0  0  0  0
    6.7797   14.6692   23.4566 C   0  0  0  0  0  0  0  0  0  0  0  0
    6.1192   15.8834   21.1893 N   0  0  0  0  0  0  0  0  0  0  0  0
    8.5923   15.4378   21.7388 O   0  0  0  0  0  0  0  0  0  0  0  0
    7.0852   13.4999   21.1399 O   0  0  0  0  0  0  0  0  0  0  0  0
    7.2917   14.7914   21.7723 S   0  0  0  0  0  0  0  0  0  0  0  0
   10.3222    9.6397   24.4337 H   0  0  0  0  0  0  0  0  0  0  0  0
   10.7948    9.5731   22.7523 H   0  0  0  0  0  0  0  0  0  0  0  0
    8.4849   10.4796   22.1971 H   0  0  0  0  0  0  0  0  0  0  0  0
    8.5454    8.8364   22.7910 H   0  0  0  0  0  0  0  0  0  0  0  0
   11.6414   11.5724   23.8492 H   0  0  0  0  0  0  0  0  0  0  0  0
   10.6180   11.9689   22.4897 H   0  0  0  0  0  0  0  0  0  0  0  0
    6.8363    9.6011   24.1868 H   0  0  0  0  0  0  0  0  0  0  0  0
    8.2332   10.0470   25.1533 H   0  0  0  0  0  0  0  0  0  0  0  0
    9.7070   12.0503   25.4309 H   0  0  0  0  0  0  0  0  0  0  0  0
   10.3226   13.4125   24.5092 H   0  0  0  0  0  0  0  0  0  0  0  0
    6.4665   11.8505   23.5177 H   0  0  0  0  0  0  0  0  0  0  0  0
    6.8911   11.9657   25.2138 H   0  0  0  0  0  0  0  0  0  0  0  0
    8.4494   12.8151   22.7565 H   0  0  0  0  0  0  0  0  0  0  0  0
    8.7555   14.8414   24.3016 H   0  0  0  0  0  0  0  0  0  0  0  0
    7.5837   14.0748   25.3665 H   0  0  0  0  0  0  0  0  0  0  0  0
    5.9159   13.9981   23.4783 H   0  0  0  0  0  0  0  0  0  0  0  0
    6.4576   15.6685   23.7642 H   0  0  0  0  0  0  0  0  0  0  0  0
    6.4254   16.8375   20.9623 H   0  0  0  0  0  0  0  0  0  0  0  0
    5.3989   15.5176   20.5546 H   0  0  0  0  0  0  0  0  0  0  0  0
  1  2  1  0  0  0  0
  1  3  1  0  0  0  0
  2  4  1  0  0  0  0
  3  5  1  0  0  0  0
  4  6  1  0  0  0  0
  5  7  1  0  0  0  0
  6  7  1  0  0  0  0
  7  8  1  0  0  0  0
  8  9  1  0  0  0  0
  9 13  1  0  0  0  0
 10 13  1  0  0  0  0
 11 13  2  0  0  0  0
 12 13  2  0  0  0  0
  1 14  1  0  0  0  0
  1 15  1  0  0  0  0
  2 16  1  0  0  0  0
  2 17  1  0  0  0  0
  3 18  1  0  0  0  0
  3 19  1  0  0  0  0
  4 20  1  0  0  0  0
  4 21  1  0  0  0  0
  5 22  1  0  0  0  0
  5 23  1  0  0  0  0
  6 24  1  0  0  0  0
  6 25  1  0  0  0  0
  7 26  1  0  0  0  0
  8 27  1  0  0  0  0
  8 28  1  0  0  0  0
  9 29  1  0  0  0  0
  9 30  1  0  0  0  0
 10 31  1  0  0  0  0
 10 32  1  0  0  0  0
M  END
> <Mol Weight>
205,32

> <Formula>
C9H19NO2S

> <ID>
EN300-286733

> <name>
Sulfonamides

> <LogP>
1,54

> <ROCS_ShapeQuery>
x0310_0A_x0719_0A_x1080_0A_x0739_0A_x0929_0A_x0526_0A_x0911_0A

> <ROCS_TanimotoCombo>
0.331 

> <ROCS_ShapeTanimoto>
0.167 

> <ROCS_ColorTanimoto>
0.164 

> <ROCS_RefTversky>
0.159 

> <ROCS_RefColorTversky>
0.166 

> <ROCS_RefTverskyCombo>
0.326 

> <ROCS_FitTversky>
1.422 

> <ROCS_FitColorTversky>
0.906 

> <ROCS_FitTverskyCombo>
2.328 

> <ROCS_ColorScore>
-4.818

> <ROCS_Overlap>
1275.364

> <ROCS_Rank>
130                 

$$$$
untitled-dbase-2775_236
  -OEChem-02092407103D

 42 42  0     0  0  0  0  0  0999 V2000
    1.0551   12.8773   17.8122 C   0  0  0  0  0  0  0  0  0  0  0  0
    2.1965   12.9522   20.0124 C   0  0  0  0  0  0  0  0  0  0  0  0
    3.5124   12.3262   18.0125 C   0  0  0  0  0  0  0  0  0  0  0  0
    2.9235   11.8606   20.7990 C   0  0  0  0  0  0  0  0  0  0  0  0
    4.2121   11.2513   18.8475 C   0  0  0  0  0  0  0  0  0  0  0  0
   -1.6755   12.2630   17.2152 C   0  0  0  0  0  0  0  0  0  0  0  0
   -2.2488   14.0817   18.8500 C   0  0  0  0  0  0  0  0  0  0  0  0
   -0.9575   14.6334   16.7677 C   0  0  0  0  0  0  0  0  0  0  0  0
    5.2349   12.5953   20.5990 C   0  0  0  0  0  0  0  0  0  0  0  0
    5.4370   12.7588   22.0932 C   0  0  0  0  0  0  0  0  0  0  0  0
   -1.2173   13.5788   17.8424 C   0  0  0  0  0  0  0  0  0  0  0  0
    2.2058   12.6709   18.5787 N   0  0  0  0  0  0  0  0  0  0  0  0
    4.2645   11.5494   20.2853 N   0  0  0  0  0  0  0  0  0  0  0  0
    5.9133   15.3485   21.7504 N   0  0  0  0  0  0  0  0  0  0  0  0
    0.9811   12.6653   16.6031 O   0  0  0  0  0  0  0  0  0  0  0  0
    6.6567   14.1778   23.9169 O   0  0  0  0  0  0  0  0  0  0  0  0
    7.8625   13.6699   21.7550 O   0  0  0  0  0  0  0  0  0  0  0  0
    0.0027   13.3435   18.5549 O   0  0  0  0  0  0  0  0  0  0  0  0
    6.6433   13.9898   22.4767 S   0  0  0  0  0  0  0  0  0  0  0  0
    1.1742   13.0546   20.3921 H   0  0  0  0  0  0  0  0  0  0  0  0
    2.6930   13.9217   20.1538 H   0  0  0  0  0  0  0  0  0  0  0  0
    4.1069   13.2471   17.9937 H   0  0  0  0  0  0  0  0  0  0  0  0
    3.4042   11.9838   16.9789 H   0  0  0  0  0  0  0  0  0  0  0  0
    3.0021   12.1959   21.8535 H   0  0  0  0  0  0  0  0  0  0  0  0
    2.2920   10.9462   20.8239 H   0  0  0  0  0  0  0  0  0  0  0  0
    3.7183   10.2703   18.6680 H   0  0  0  0  0  0  0  0  0  0  0  0
    5.2451   11.1366   18.4566 H   0  0  0  0  0  0  0  0  0  0  0  0
   -0.9378   11.8986   16.4913 H   0  0  0  0  0  0  0  0  0  0  0  0
   -1.8317   11.4879   17.9725 H   0  0  0  0  0  0  0  0  0  0  0  0
   -2.6113   12.3989   16.6610 H   0  0  0  0  0  0  0  0  0  0  0  0
   -1.9242   15.0256   19.3026 H   0  0  0  0  0  0  0  0  0  0  0  0
   -2.3688   13.3694   19.6743 H   0  0  0  0  0  0  0  0  0  0  0  0
   -3.2264   14.2393   18.3830 H   0  0  0  0  0  0  0  0  0  0  0  0
   -0.6288   15.5773   17.2173 H   0  0  0  0  0  0  0  0  0  0  0  0
   -0.1927   14.3046   16.0566 H   0  0  0  0  0  0  0  0  0  0  0  0
   -1.8754   14.8584   16.2126 H   0  0  0  0  0  0  0  0  0  0  0  0
    4.8818   13.5226   20.1375 H   0  0  0  0  0  0  0  0  0  0  0  0
    6.1766   12.3089   20.1211 H   0  0  0  0  0  0  0  0  0  0  0  0
    5.8020   11.8256   22.5325 H   0  0  0  0  0  0  0  0  0  0  0  0
    4.5112   13.0489   22.5993 H   0  0  0  0  0  0  0  0  0  0  0  0
    5.8935   15.3895   20.7240 H   0  0  0  0  0  0  0  0  0  0  0  0
    5.0725   15.7354   22.1965 H   0  0  0  0  0  0  0  0  0  0  0  0
  1 12  1  0  0  0  0
  1 15  2  0  0  0  0
  1 18  1  0  0  0  0
  2  4  1  0  0  0  0
  2 12  1  0  0  0  0
  3  5  1  0  0  0  0
  3 12  1  0  0  0  0
  4 13  1  0  0  0  0
  5 13  1  0  0  0  0
  6 11  1  0  0  0  0
  7 11  1  0  0  0  0
  8 11  1  0  0  0  0
  9 10  1  0  0  0  0
  9 13  1  0  0  0  0
 10 19  1  0  0  0  0
 11 18  1  0  0  0  0
 14 19  1  0  0  0  0
 16 19  2  0  0  0  0
 17 19  2  0  0  0  0
  2 20  1  0  0  0  0
  2 21  1  0  0  0  0
  3 22  1  0  0  0  0
  3 23  1  0  0  0  0
  4 24  1  0  0  0  0
  4 25  1  0  0  0  0
  5 26  1  0  0  0  0
  5 27  1  0  0  0  0
  6 28  1  0  0  0  0
  6 29  1  0  0  0  0
  6 30  1  0  0  0  0
  7 31  1  0  0  0  0
  7 32  1  0  0  0  0
  7 33  1  0  0  0  0
  8 34  1  0  0  0  0
  8 35  1  0  0  0  0
  8 36  1  0  0  0  0
  9 37  1  0  0  0  0
  9 38  1  0  0  0  0
 10 39  1  0  0  0  0
 10 40  1  0  0  0  0
 14 41  1  0  0  0  0
 14 42  1  0  0  0  0
M  END
> <Mol Weight>
293,38

> <Formula>
C11H23N3O4S

> <ID>
EN300-91969

> <name>
Sulfonamides

> <LogP>
-0,62

> <ROCS_ShapeQuery>
x0310_0A_x0719_0A_x1080_0A_x0739_0A_x0929_0A_x0526_0A_x0911_0A

> <ROCS_TanimotoCombo>
0.331 

> <ROCS_ShapeTanimoto>
0.194 

> <ROCS_ColorTanimoto>
0.136 

> <ROCS_RefTversky>
0.186 

> <ROCS_RefColorTversky>
0.154 

> <ROCS_RefTverskyCombo>
0.340 

> <ROCS_FitTversky>
1.275 

> <ROCS_FitColorTversky>
0.548 

> <ROCS_FitTverskyCombo>
1.823 

> <ROCS_ColorScore>
-4.476

> <ROCS_Overlap>
1493.782

> <ROCS_Rank>
131                 

$$$$
untitled-dbase-2344_3
  -OEChem-02092407103D

 29 30  0     0  0  0  0  0  0999 V2000
    6.4760   12.0422   24.2740 C   0  0  0  0  0  0  0  0  0  0  0  0
    6.1586   13.3711   24.0064 C   0  0  0  0  0  0  0  0  0  0  0  0
    8.4059   13.7103   23.2265 C   0  0  0  0  0  0  0  0  0  0  0  0
    8.7467   12.3645   23.4916 C   0  0  0  0  0  0  0  0  0  0  0  0
    7.7611   11.5208   24.0224 C   0  0  0  0  0  0  0  0  0  0  0  0
    7.1275   14.2081   23.4790 C   0  0  0  0  0  0  0  0  0  0  0  0
   10.1667   12.0258   23.1769 C   0  0  0  0  0  0  0  0  0  0  0  0
    9.5501    9.6410   22.7291 C   0  0  0  0  0  0  0  0  0  0  0  0
    9.0175    9.4594   24.1338 C   0  0  0  0  0  0  0  0  0  0  0  0
   11.8622   10.4365   22.3358 C   0  0  0  0  0  0  0  0  0  0  0  0
   10.4947   10.7455   22.7358 N   0  0  0  0  0  0  0  0  0  0  0  0
    6.2177   15.7488   21.5027 N   0  0  0  0  0  0  0  0  0  0  0  0
   11.0007   12.9261   23.2992 O   0  0  0  0  0  0  0  0  0  0  0  0
    5.6331   16.2814   23.9563 O   0  0  0  0  0  0  0  0  0  0  0  0
    7.9914   16.6396   23.1450 O   0  0  0  0  0  0  0  0  0  0  0  0
    7.8304   10.2005   24.3555 O   0  0  0  0  0  0  0  0  0  0  0  0
    6.7534   15.8733   23.1203 S   0  0  0  0  0  0  0  0  0  0  0  0
    5.7028   11.3811   24.6887 H   0  0  0  0  0  0  0  0  0  0  0  0
    5.1555   13.7299   24.2043 H   0  0  0  0  0  0  0  0  0  0  0  0
    9.1711   14.3842   22.8160 H   0  0  0  0  0  0  0  0  0  0  0  0
   10.0748    8.7475   22.4001 H   0  0  0  0  0  0  0  0  0  0  0  0
    8.7430    9.8362   22.0302 H   0  0  0  0  0  0  0  0  0  0  0  0
    8.7739    8.4149   24.2949 H   0  0  0  0  0  0  0  0  0  0  0  0
    9.7637    9.7546   24.8627 H   0  0  0  0  0  0  0  0  0  0  0  0
   12.4285   10.0800   23.2089 H   0  0  0  0  0  0  0  0  0  0  0  0
   11.8501    9.6543   21.5625 H   0  0  0  0  0  0  0  0  0  0  0  0
   12.3400   11.3421   21.9339 H   0  0  0  0  0  0  0  0  0  0  0  0
    5.2155   15.8751   21.3159 H   0  0  0  0  0  0  0  0  0  0  0  0
    6.8276   16.1183   20.7632 H   0  0  0  0  0  0  0  0  0  0  0  0
  1  2  2  0  0  0  0
  1  5  1  0  0  0  0
  2  6  1  0  0  0  0
  3  4  1  0  0  0  0
  3  6  2  0  0  0  0
  4  5  2  0  0  0  0
  4  7  1  0  0  0  0
  5 16  1  0  0  0  0
  6 17  1  0  0  0  0
  7 11  1  0  0  0  0
  7 13  2  0  0  0  0
  8  9  1  0  0  0  0
  8 11  1  0  0  0  0
  9 16  1  0  0  0  0
 10 11  1  0  0  0  0
 12 17  1  0  0  0  0
 14 17  2  0  0  0  0
 15 17  2  0  0  0  0
  1 18  1  0  0  0  0
  2 19  1  0  0  0  0
  3 20  1  0  0  0  0
  8 21  1  0  0  0  0
  8 22  1  0  0  0  0
  9 23  1  0  0  0  0
  9 24  1  0  0  0  0
 10 25  1  0  0  0  0
 10 26  1  0  0  0  0
 10 27  1  0  0  0  0
 12 28  1  0  0  0  0
 12 29  1  0  0  0  0
M  END
> <Mol Weight>
256,28

> <Formula>
C10H12N2O4S

> <ID>
EN300-127825

> <name>
Sulfonamides

> <LogP>
-0,45

> <ROCS_ShapeQuery>
x0310_0A_x0719_0A_x1080_0A_x0739_0A_x0929_0A_x0526_0A_x0911_0A

> <ROCS_TanimotoCombo>
0.330 

> <ROCS_ShapeTanimoto>
0.201 

> <ROCS_ColorTanimoto>
0.130 

> <ROCS_RefTversky>
0.191 

> <ROCS_RefColorTversky>
0.147 

> <ROCS_RefTverskyCombo>
0.338 

> <ROCS_FitTversky>
1.353 

> <ROCS_FitColorTversky>
0.525 

> <ROCS_FitTverskyCombo>
1.878 

> <ROCS_ColorScore>
-4.286

> <ROCS_Overlap>
1527.826

> <ROCS_Rank>
132                 

$$$$
untitled-dbase-1091_90
  -OEChem-02092407103D

 22 22  0     0  0  0  0  0  0999 V2000
    9.8273   11.7657   23.0729 C   0  0  0  0  0  0  0  0  0  0  0  0
    8.4862   10.3077   23.8858 C   0  0  0  0  0  0  0  0  0  0  0  0
   11.1285   12.2559   22.5678 C   0  0  0  0  0  0  0  0  0  0  0  0
    6.4798   11.7780   23.9832 C   0  0  0  0  0  0  0  0  0  0  0  0
    5.8648   12.7738   23.0186 C   0  0  0  0  0  0  0  0  0  0  0  0
    8.7250   12.4342   23.1685 N   0  0  0  0  0  0  0  0  0  0  0  0
    7.8628   11.5168   23.6854 N   0  0  0  0  0  0  0  0  0  0  0  0
    5.4394   15.3191   22.3926 N   0  0  0  0  0  0  0  0  0  0  0  0
    8.0250    9.2688   24.3307 O   0  0  0  0  0  0  0  0  0  0  0  0
    6.8206   14.7190   24.4781 O   0  0  0  0  0  0  0  0  0  0  0  0
    7.7999   14.3184   22.1833 O   0  0  0  0  0  0  0  0  0  0  0  0
    9.7808   10.4784   23.4798 O   0  0  0  0  0  0  0  0  0  0  0  0
    6.6598   14.3491   23.0827 S   0  0  0  0  0  0  0  0  0  0  0  0
   11.7244   12.6739   23.3854 H   0  0  0  0  0  0  0  0  0  0  0  0
   10.9785   13.0346   21.8127 H   0  0  0  0  0  0  0  0  0  0  0  0
   11.6936   11.4391   22.1070 H   0  0  0  0  0  0  0  0  0  0  0  0
    6.4260   12.1339   25.0167 H   0  0  0  0  0  0  0  0  0  0  0  0
    5.9547   10.8200   23.9205 H   0  0  0  0  0  0  0  0  0  0  0  0
    4.8151   12.9505   23.2714 H   0  0  0  0  0  0  0  0  0  0  0  0
    5.9249   12.4266   21.9827 H   0  0  0  0  0  0  0  0  0  0  0  0
    5.2597   15.2177   21.3861 H   0  0  0  0  0  0  0  0  0  0  0  0
    4.5930   15.4906   22.9491 H   0  0  0  0  0  0  0  0  0  0  0  0
  1  3  1  0  0  0  0
  1  6  2  0  0  0  0
  1 12  1  0  0  0  0
  2  7  1  0  0  0  0
  2  9  2  0  0  0  0
  2 12  1  0  0  0  0
  4  5  1  0  0  0  0
  4  7  1  0  0  0  0
  5 13  1  0  0  0  0
  6  7  1  0  0  0  0
  8 13  1  0  0  0  0
 10 13  2  0  0  0  0
 11 13  2  0  0  0  0
  3 14  1  0  0  0  0
  3 15  1  0  0  0  0
  3 16  1  0  0  0  0
  4 17  1  0  0  0  0
  4 18  1  0  0  0  0
  5 19  1  0  0  0  0
  5 20  1  0  0  0  0
  8 21  1  0  0  0  0
  8 22  1  0  0  0  0
M  END
> <Mol Weight>
207,20

> <Formula>
C5H9N3O4S

> <ID>
EN300-317907

> <name>
Sulfonamides

> <LogP>
-1,52

> <ROCS_ShapeQuery>
x0310_0A_x0719_0A_x1080_0A_x0739_0A_x0929_0A_x0526_0A_x0911_0A

> <ROCS_TanimotoCombo>
0.330 

> <ROCS_ShapeTanimoto>
0.168 

> <ROCS_ColorTanimoto>
0.163 

> <ROCS_RefTversky>
0.160 

> <ROCS_RefColorTversky>
0.175 

> <ROCS_RefTverskyCombo>
0.335 

> <ROCS_FitTversky>
1.359 

> <ROCS_FitColorTversky>
0.704 

> <ROCS_FitTverskyCombo>
2.062 

> <ROCS_ColorScore>
-5.078

> <ROCS_Overlap>
1284.416

> <ROCS_Rank>
133                 

$$$$
untitled-dbase-1113_224
  -OEChem-02092407103D

 25 25  0     0  0  0  0  0  0999 V2000
    8.4782   12.2231   24.1880 C   0  0  0  0  0  0  0  0  0  0  0  0
    9.5870   10.5234   23.0715 C   0  0  0  0  0  0  0  0  0  0  0  0
    8.3272    9.9954   23.7112 C   0  0  0  0  0  0  0  0  0  0  0  0
    9.8082   14.2961   22.6130 C   0  0  0  0  0  0  0  0  0  0  0  0
   10.3693   12.8793   22.6558 C   0  0  0  0  0  0  0  0  0  0  0  0
    8.5316   14.3916   21.7886 C   0  0  0  0  0  0  0  0  0  0  0  0
    9.4499   11.9363   23.2546 N   0  0  0  0  0  0  0  0  0  0  0  0
    6.3033   15.7513   21.3017 N   0  0  0  0  0  0  0  0  0  0  0  0
    8.1821   13.3169   24.6489 O   0  0  0  0  0  0  0  0  0  0  0  0
    7.9567   16.5848   23.0873 O   0  0  0  0  0  0  0  0  0  0  0  0
    8.5853   16.7403   20.6447 O   0  0  0  0  0  0  0  0  0  0  0  0
    7.8627   11.0541   24.5650 O   0  0  0  0  0  0  0  0  0  0  0  0
    7.9245   16.0485   21.7377 S   0  0  0  0  0  0  0  0  0  0  0  0
   10.4942   10.1422   23.5468 H   0  0  0  0  0  0  0  0  0  0  0  0
    9.6130   10.3133   21.9980 H   0  0  0  0  0  0  0  0  0  0  0  0
    7.5557    9.7622   22.9719 H   0  0  0  0  0  0  0  0  0  0  0  0
    8.5139    9.1125   24.3309 H   0  0  0  0  0  0  0  0  0  0  0  0
   10.5662   14.9628   22.1840 H   0  0  0  0  0  0  0  0  0  0  0  0
    9.6167   14.6543   23.6322 H   0  0  0  0  0  0  0  0  0  0  0  0
   10.6085   12.5203   21.6497 H   0  0  0  0  0  0  0  0  0  0  0  0
   11.2852   12.8558   23.2543 H   0  0  0  0  0  0  0  0  0  0  0  0
    8.7036   14.0851   20.7524 H   0  0  0  0  0  0  0  0  0  0  0  0
    7.7309   13.7772   22.2104 H   0  0  0  0  0  0  0  0  0  0  0  0
    5.5803   15.9039   22.0156 H   0  0  0  0  0  0  0  0  0  0  0  0
    6.0085   16.0097   20.3520 H   0  0  0  0  0  0  0  0  0  0  0  0
  1  7  1  0  0  0  0
  1  9  2  0  0  0  0
  1 12  1  0  0  0  0
  2  3  1  0  0  0  0
  2  7  1  0  0  0  0
  3 12  1  0  0  0  0
  4  5  1  0  0  0  0
  4  6  1  0  0  0  0
  5  7  1  0  0  0  0
  6 13  1  0  0  0  0
  8 13  1  0  0  0  0
 10 13  2  0  0  0  0
 11 13  2  0  0  0  0
  2 14  1  0  0  0  0
  2 15  1  0  0  0  0
  3 16  1  0  0  0  0
  3 17  1  0  0  0  0
  4 18  1  0  0  0  0
  4 19  1  0  0  0  0
  5 20  1  0  0  0  0
  5 21  1  0  0  0  0
  6 22  1  0  0  0  0
  6 23  1  0  0  0  0
  8 24  1  0  0  0  0
  8 25  1  0  0  0  0
M  END
> <Mol Weight>
208,23

> <Formula>
C6H12N2O4S

> <ID>
EN300-1120842

> <name>
Sulfonamides

> <LogP>
-1,63

> <ROCS_ShapeQuery>
x0310_0A_x0719_0A_x1080_0A_x0739_0A_x0929_0A_x0526_0A_x0911_0A

> <ROCS_TanimotoCombo>
0.330 

> <ROCS_ShapeTanimoto>
0.159 

> <ROCS_ColorTanimoto>
0.171 

> <ROCS_RefTversky>
0.153 

> <ROCS_RefColorTversky>
0.177 

> <ROCS_RefTverskyCombo>
0.331 

> <ROCS_FitTversky>
1.319 

> <ROCS_FitColorTversky>
0.822 

> <ROCS_FitTverskyCombo>
2.141 

> <ROCS_ColorScore>
-5.149

> <ROCS_Overlap>
1225.158

> <ROCS_Rank>
134                 

$$$$
untitled-dbase-2462_812
  -OEChem-02092407103D

 25 25  0     0  0  0  0  0  0999 V2000
    8.9895   11.9666   25.0707 C   0  0  0  0  0  0  0  0  0  0  0  0
    9.6156   10.7335   24.8882 C   0  0  0  0  0  0  0  0  0  0  0  0
    8.5624   10.5192   22.7244 C   0  0  0  0  0  0  0  0  0  0  0  0
    8.1498   12.4759   24.0802 C   0  0  0  0  0  0  0  0  0  0  0  0
    7.9363   11.7522   22.9070 C   0  0  0  0  0  0  0  0  0  0  0  0
    9.4020   10.0099   23.7150 C   0  0  0  0  0  0  0  0  0  0  0  0
    7.4214   15.5727   22.8099 C   0  0  0  0  0  0  0  0  0  0  0  0
    8.2518   14.8394   23.8366 C   0  0  0  0  0  0  0  0  0  0  0  0
    6.0689   15.4050   23.0122 N   0  0  0  0  0  0  0  0  0  0  0  0
    6.9972   11.1169   20.4947 N   0  0  0  0  0  0  0  0  0  0  0  0
    7.9012   16.2410   21.8988 O   0  0  0  0  0  0  0  0  0  0  0  0
    5.5302   12.4158   22.1698 O   0  0  0  0  0  0  0  0  0  0  0  0
    7.4946   13.5719   21.0965 O   0  0  0  0  0  0  0  0  0  0  0  0
    7.5474   13.6817   24.2806 O   0  0  0  0  0  0  0  0  0  0  0  0
    6.8886   12.3702   21.6500 S   0  0  0  0  0  0  0  0  0  0  0  0
   10.1720    8.4869   23.4921 Cl  0  0  0  0  0  0  0  0  0  0  0  0
    9.1589   12.5241   25.9880 H   0  0  0  0  0  0  0  0  0  0  0  0
   10.2659   10.3482   25.6694 H   0  0  0  0  0  0  0  0  0  0  0  0
    8.3931    9.9551   21.8100 H   0  0  0  0  0  0  0  0  0  0  0  0
    8.4399   15.4964   24.6913 H   0  0  0  0  0  0  0  0  0  0  0  0
    9.2012   14.5330   23.3868 H   0  0  0  0  0  0  0  0  0  0  0  0
    5.3909   15.8413   22.3964 H   0  0  0  0  0  0  0  0  0  0  0  0
    5.6995   14.8449   23.7741 H   0  0  0  0  0  0  0  0  0  0  0  0
    6.1773   10.5124   20.3616 H   0  0  0  0  0  0  0  0  0  0  0  0
    7.5206   11.3027   19.6305 H   0  0  0  0  0  0  0  0  0  0  0  0
  1  2  2  0  0  0  0
  1  4  1  0  0  0  0
  2  6  1  0  0  0  0
  3  5  1  0  0  0  0
  3  6  2  0  0  0  0
  4  5  2  0  0  0  0
  4 14  1  0  0  0  0
  5 15  1  0  0  0  0
  6 16  1  0  0  0  0
  7  8  1  0  0  0  0
  7  9  1  0  0  0  0
  7 11  2  0  0  0  0
  8 14  1  0  0  0  0
 10 15  1  0  0  0  0
 12 15  2  0  0  0  0
 13 15  2  0  0  0  0
  1 17  1  0  0  0  0
  2 18  1  0  0  0  0
  3 19  1  0  0  0  0
  8 20  1  0  0  0  0
  8 21  1  0  0  0  0
  9 22  1  0  0  0  0
  9 23  1  0  0  0  0
 10 24  1  0  0  0  0
 10 25  1  0  0  0  0
M  END
> <Mol Weight>
264,68

> <Formula>
C8H9ClN2O4S

> <ID>
EN300-123359

> <name>
Sulfonamides

> <LogP>
-0,30

> <ROCS_ShapeQuery>
x0310_0A_x0719_0A_x1080_0A_x0739_0A_x0929_0A_x0526_0A_x0911_0A

> <ROCS_TanimotoCombo>
0.330 

> <ROCS_ShapeTanimoto>
0.166 

> <ROCS_ColorTanimoto>
0.164 

> <ROCS_RefTversky>
0.161 

> <ROCS_RefColorTversky>
0.180 

> <ROCS_RefTverskyCombo>
0.341 

> <ROCS_FitTversky>
1.218 

> <ROCS_FitColorTversky>
0.643 

> <ROCS_FitTverskyCombo>
1.862 

> <ROCS_ColorScore>
-5.254

> <ROCS_Overlap>
1288.886

> <ROCS_Rank>
135                 

$$$$
untitled-dbase-506_13
  -OEChem-02092407103D

 22 22  0     0  0  0  0  0  0999 V2000
    8.4079   10.1166   23.5765 C   0  0  0  0  0  0  0  0  0  0  0  0
    8.9243   10.5091   24.8063 C   0  0  0  0  0  0  0  0  0  0  0  0
    8.3286   11.0361   22.5366 C   0  0  0  0  0  0  0  0  0  0  0  0
    9.3445   11.8223   24.9440 C   0  0  0  0  0  0  0  0  0  0  0  0
    8.7752   12.3257   22.7759 C   0  0  0  0  0  0  0  0  0  0  0  0
    8.7047   13.3388   21.6824 C   0  0  0  0  0  0  0  0  0  0  0  0
    7.3897   14.1220   21.6563 C   0  0  0  0  0  0  0  0  0  0  0  0
    9.2830   12.7440   23.9570 N   0  0  0  0  0  0  0  0  0  0  0  0
    5.6204   15.7700   22.7539 N   0  0  0  0  0  0  0  0  0  0  0  0
    6.9383   14.1265   24.2299 O   0  0  0  0  0  0  0  0  0  0  0  0
    8.1331   16.0983   23.1956 O   0  0  0  0  0  0  0  0  0  0  0  0
    7.1226   15.0569   23.1298 S   0  0  0  0  0  0  0  0  0  0  0  0
    8.0680    9.0959   23.4289 H   0  0  0  0  0  0  0  0  0  0  0  0
    8.9957    9.8093   25.6310 H   0  0  0  0  0  0  0  0  0  0  0  0
    7.9278   10.7425   21.5724 H   0  0  0  0  0  0  0  0  0  0  0  0
    9.7550   12.1784   25.8831 H   0  0  0  0  0  0  0  0  0  0  0  0
    8.8201   12.8340   20.7080 H   0  0  0  0  0  0  0  0  0  0  0  0
    9.5473   14.0488   21.7436 H   0  0  0  0  0  0  0  0  0  0  0  0
    7.3933   14.8483   20.8373 H   0  0  0  0  0  0  0  0  0  0  0  0
    6.5234   13.4654   21.5305 H   0  0  0  0  0  0  0  0  0  0  0  0
    4.7918   15.4353   23.2608 H   0  0  0  0  0  0  0  0  0  0  0  0
    5.6056   16.7781   22.5562 H   0  0  0  0  0  0  0  0  0  0  0  0
  1  2  1  0  0  0  0
  1  3  2  0  0  0  0
  2  4  2  0  0  0  0
  3  5  1  0  0  0  0
  4  8  1  0  0  0  0
  5  6  1  0  0  0  0
  5  8  2  0  0  0  0
  6  7  1  0  0  0  0
  7 12  1  0  0  0  0
  9 12  1  0  0  0  0
 10 12  2  0  0  0  0
 11 12  2  0  0  0  0
  1 13  1  0  0  0  0
  2 14  1  0  0  0  0
  3 15  1  0  0  0  0
  4 16  1  0  0  0  0
  6 17  1  0  0  0  0
  6 18  1  0  0  0  0
  7 19  1  0  0  0  0
  7 20  1  0  0  0  0
  9 21  1  0  0  0  0
  9 22  1  0  0  0  0
M  END
> <Mol Weight>
186,23

> <Formula>
C7H10N2O2S

> <ID>
EN300-272127

> <name>
Sulfonamides

> <LogP>
-0,56

> <ROCS_ShapeQuery>
x0310_0A_x0719_0A_x1080_0A_x0739_0A_x0929_0A_x0526_0A_x0911_0A

> <ROCS_TanimotoCombo>
0.330 

> <ROCS_ShapeTanimoto>
0.157 

> <ROCS_ColorTanimoto>
0.173 

> <ROCS_RefTversky>
0.151 

> <ROCS_RefColorTversky>
0.179 

> <ROCS_RefTverskyCombo>
0.330 

> <ROCS_FitTversky>
1.358 

> <ROCS_FitColorTversky>
0.830 

> <ROCS_FitTverskyCombo>
2.188 

> <ROCS_ColorScore>
-5.199

> <ROCS_Overlap>
1205.060

> <ROCS_Rank>
136                 

$$$$
untitled-dbase-1596_13
  -OEChem-02092407103D

 30 31  0     1  0  0  0  0  0999 V2000
    9.6273   10.4703   24.3144 C   0  0  0  0  0  0  0  0  0  0  0  0
   10.1606   11.2780   23.3100 C   0  0  0  0  0  0  0  0  0  0  0  0
    8.2637   10.5250   24.6030 C   0  0  0  0  0  0  0  0  0  0  0  0
    9.3302   12.1406   22.5943 C   0  0  0  0  0  0  0  0  0  0  0  0
    7.4334   11.3875   23.8873 C   0  0  0  0  0  0  0  0  0  0  0  0
    7.9666   12.1953   22.8830 C   0  0  0  0  0  0  0  0  0  0  0  0
    4.7860   13.1362   20.8054 C   0  0  0  0  0  0  0  0  0  0  0  0
    5.2523   11.7116   20.8412 C   0  0  0  0  0  0  0  0  0  0  0  0
    5.6287   12.6520   21.9584 C   0  0  0  0  0  0  0  0  0  0  0  0
    4.5440   15.5564   23.2368 C   0  0  0  0  0  0  0  0  0  0  0  0
    7.0675   13.1288   22.1089 C   0  0  1  0  0  0  0  0  0  0  0  0
    5.7059   15.4272   22.3392 N   0  0  0  0  0  0  0  0  0  0  0  0
    7.0193   14.4733   24.3540 O   0  0  0  0  0  0  0  0  0  0  0  0
    8.2724   15.4261   22.3846 O   0  0  0  0  0  0  0  0  0  0  0  0
    7.1368   14.7057   22.9278 S   0  0  0  0  0  0  0  0  0  0  0  0
   10.2737    9.7977   24.8707 H   0  0  0  0  0  0  0  0  0  0  0  0
   11.2221   11.2348   23.0844 H   0  0  0  0  0  0  0  0  0  0  0  0
    7.8480    9.8954   25.3842 H   0  0  0  0  0  0  0  0  0  0  0  0
    9.7545   12.7664   21.8136 H   0  0  0  0  0  0  0  0  0  0  0  0
    6.3722   11.4235   24.1192 H   0  0  0  0  0  0  0  0  0  0  0  0
    5.2377   13.7948   20.0738 H   0  0  0  0  0  0  0  0  0  0  0  0
    3.7370   13.3288   20.9944 H   0  0  0  0  0  0  0  0  0  0  0  0
    4.5180   10.9450   21.0557 H   0  0  0  0  0  0  0  0  0  0  0  0
    6.0183   11.4142   20.1358 H   0  0  0  0  0  0  0  0  0  0  0  0
    5.1407   12.5170   22.9158 H   0  0  0  0  0  0  0  0  0  0  0  0
    4.8915   15.7597   24.2604 H   0  0  0  0  0  0  0  0  0  0  0  0
    3.9068   16.3853   22.8946 H   0  0  0  0  0  0  0  0  0  0  0  0
    3.9659   14.6206   23.2251 H   0  0  0  0  0  0  0  0  0  0  0  0
    7.4781   13.2987   21.1065 H   0  0  0  0  0  0  0  0  0  0  0  0
    5.4574   15.2355   21.3599 H   0  0  0  0  0  0  0  0  0  0  0  0
  1  2  1  0  0  0  0
  1  3  2  0  0  0  0
  2  4  2  0  0  0  0
  3  5  1  0  0  0  0
  4  6  1  0  0  0  0
  5  6  2  0  0  0  0
  6 11  1  0  0  0  0
  7  8  1  0  0  0  0
  7  9  1  0  0  0  0
  8  9  1  0  0  0  0
  9 11  1  0  0  0  0
 10 12  1  0  0  0  0
 11 15  1  0  0  0  0
 12 15  1  0  0  0  0
 13 15  2  0  0  0  0
 14 15  2  0  0  0  0
  1 16  1  0  0  0  0
  2 17  1  0  0  0  0
  3 18  1  0  0  0  0
  4 19  1  0  0  0  0
  5 20  1  0  0  0  0
  7 21  1  0  0  0  0
  7 22  1  0  0  0  0
  8 23  1  0  0  0  0
  8 24  1  0  0  0  0
  9 25  1  0  0  0  0
 10 26  1  0  0  0  0
 10 27  1  0  0  0  0
 10 28  1  0  0  0  0
 11 29  1  0  0  0  0
 12 30  1  0  0  0  0
M  END
> <Mol Weight>
225,31

> <Formula>
C11H15NO2S

> <ID>
EN300-680556

> <name>
Sulfonamides

> <LogP>
1,56

> <ROCS_ShapeQuery>
x0310_0A_x0719_0A_x1080_0A_x0739_0A_x0929_0A_x0526_0A_x0911_0A

> <ROCS_TanimotoCombo>
0.330 

> <ROCS_ShapeTanimoto>
0.165 

> <ROCS_ColorTanimoto>
0.164 

> <ROCS_RefTversky>
0.160 

> <ROCS_RefColorTversky>
0.167 

> <ROCS_RefTverskyCombo>
0.327 

> <ROCS_FitTversky>
1.263 

> <ROCS_FitColorTversky>
0.910 

> <ROCS_FitTverskyCombo>
2.173 

> <ROCS_ColorScore>
-4.837

> <ROCS_Overlap>
1280.161

> <ROCS_Rank>
137                 

$$$$
untitled-dbase-705_32
  -OEChem-02092407103D

 27 27  0     1  0  0  0  0  0999 V2000
    7.6935   10.3335   23.4172 C   0  0  0  0  0  0  0  0  0  0  0  0
    8.9912    9.7631   23.9782 C   0  0  0  0  0  0  0  0  0  0  0  0
    7.4946   11.7720   23.8847 C   0  0  0  0  0  0  0  0  0  0  0  0
   10.1572   10.7025   23.7009 C   0  0  0  0  0  0  0  0  0  0  0  0
    8.7444   12.6088   23.6022 C   0  0  1  0  0  0  0  0  0  0  0  0
    8.6003   14.0159   24.1654 C   0  0  0  0  0  0  0  0  0  0  0  0
    7.3887   14.7230   23.5839 C   0  0  0  0  0  0  0  0  0  0  0  0
    6.0381   15.6552   21.4963 N   0  0  0  0  0  0  0  0  0  0  0  0
    8.6097   15.7167   21.4985 O   0  0  0  0  0  0  0  0  0  0  0  0
    7.4214   13.4977   21.2762 O   0  0  0  0  0  0  0  0  0  0  0  0
    9.8901   12.0073   24.2147 O   0  0  0  0  0  0  0  0  0  0  0  0
    7.4987   14.8400   21.8266 S   0  0  0  0  0  0  0  0  0  0  0  0
    7.7272   10.3076   22.3212 H   0  0  0  0  0  0  0  0  0  0  0  0
    6.8445    9.7151   23.7284 H   0  0  0  0  0  0  0  0  0  0  0  0
    8.8793    9.6409   25.0626 H   0  0  0  0  0  0  0  0  0  0  0  0
    9.1884    8.7740   23.5518 H   0  0  0  0  0  0  0  0  0  0  0  0
    6.6182   12.2085   23.3928 H   0  0  0  0  0  0  0  0  0  0  0  0
    7.2951   11.7596   24.9639 H   0  0  0  0  0  0  0  0  0  0  0  0
   11.0609   10.3291   24.1927 H   0  0  0  0  0  0  0  0  0  0  0  0
   10.3687   10.7697   22.6273 H   0  0  0  0  0  0  0  0  0  0  0  0
    8.9190   12.6795   22.5211 H   0  0  0  0  0  0  0  0  0  0  0  0
    9.5093   14.5866   23.9466 H   0  0  0  0  0  0  0  0  0  0  0  0
    8.5154   13.9608   25.2562 H   0  0  0  0  0  0  0  0  0  0  0  0
    6.4646   14.1822   23.8091 H   0  0  0  0  0  0  0  0  0  0  0  0
    7.3013   15.7446   23.9656 H   0  0  0  0  0  0  0  0  0  0  0  0
    6.0955   16.6348   21.1919 H   0  0  0  0  0  0  0  0  0  0  0  0
    5.2862   15.1234   21.0407 H   0  0  0  0  0  0  0  0  0  0  0  0
  1  2  1  0  0  0  0
  1  3  1  0  0  0  0
  2  4  1  0  0  0  0
  3  5  1  0  0  0  0
  4 11  1  0  0  0  0
  5  6  1  0  0  0  0
  5 11  1  0  0  0  0
  6  7  1  0  0  0  0
  7 12  1  0  0  0  0
  8 12  1  0  0  0  0
  9 12  2  0  0  0  0
 10 12  2  0  0  0  0
  1 13  1  0  0  0  0
  1 14  1  0  0  0  0
  2 15  1  0  0  0  0
  2 16  1  0  0  0  0
  3 17  1  0  0  0  0
  3 18  1  0  0  0  0
  4 19  1  0  0  0  0
  4 20  1  0  0  0  0
  5 21  1  0  0  0  0
  6 22  1  0  0  0  0
  6 23  1  0  0  0  0
  7 24  1  0  0  0  0
  7 25  1  0  0  0  0
  8 26  1  0  0  0  0
  8 27  1  0  0  0  0
M  END
> <Mol Weight>
193,26

> <Formula>
C7H15NO3S

> <ID>
EN300-130788

> <name>
Sulfonamides

> <LogP>
-0,46

> <ROCS_ShapeQuery>
x0310_0A_x0719_0A_x1080_0A_x0739_0A_x0929_0A_x0526_0A_x0911_0A

> <ROCS_TanimotoCombo>
0.329 

> <ROCS_ShapeTanimoto>
0.156 

> <ROCS_ColorTanimoto>
0.173 

> <ROCS_RefTversky>
0.150 

> <ROCS_RefColorTversky>
0.179 

> <ROCS_RefTverskyCombo>
0.329 

> <ROCS_FitTversky>
1.379 

> <ROCS_FitColorTversky>
0.831 

> <ROCS_FitTverskyCombo>
2.209 

> <ROCS_ColorScore>
-5.206

> <ROCS_Overlap>
1199.324

> <ROCS_Rank>
138                 

$$$$
untitled-dbase-1728_311
  -OEChem-02092407103D

 30 31  0     0  0  0  0  0  0999 V2000
    6.7698   13.0048   24.1583 C   0  0  0  0  0  0  0  0  0  0  0  0
    6.6437   13.6499   22.9497 C   0  0  0  0  0  0  0  0  0  0  0  0
    8.1775   12.1919   22.6508 C   0  0  0  0  0  0  0  0  0  0  0  0
    9.2245   11.2924   22.0912 C   0  0  0  0  0  0  0  0  0  0  0  0
   10.0371   10.6075   23.1931 C   0  0  0  0  0  0  0  0  0  0  0  0
    9.1191   10.0487   24.2824 C   0  0  0  0  0  0  0  0  0  0  0  0
    8.3006   11.1666   24.9284 C   0  0  0  0  0  0  0  0  0  0  0  0
    7.6020   17.8214   20.7785 C   0  0  0  0  0  0  0  0  0  0  0  0
    5.7313   14.7483   22.5967 C   0  0  0  0  0  0  0  0  0  0  0  0
    7.5173   13.1415   22.0190 N   0  0  0  0  0  0  0  0  0  0  0  0
    7.7475   12.0799   23.9495 N   0  0  0  0  0  0  0  0  0  0  0  0
    6.2716   15.6328   21.5844 N   0  0  0  0  0  0  0  0  0  0  0  0
    8.8457   15.5790   21.3025 O   0  0  0  0  0  0  0  0  0  0  0  0
    7.8459   16.8964   23.2055 O   0  0  0  0  0  0  0  0  0  0  0  0
    7.7851   16.4077   21.8413 S   0  0  0  0  0  0  0  0  0  0  0  0
    6.2711   13.1259   25.1101 H   0  0  0  0  0  0  0  0  0  0  0  0
    8.7334   10.5317   21.4724 H   0  0  0  0  0  0  0  0  0  0  0  0
    9.8953   11.8597   21.4369 H   0  0  0  0  0  0  0  0  0  0  0  0
   10.6403    9.8022   22.7590 H   0  0  0  0  0  0  0  0  0  0  0  0
   10.7345   11.3272   23.6412 H   0  0  0  0  0  0  0  0  0  0  0  0
    8.4435    9.3066   23.8387 H   0  0  0  0  0  0  0  0  0  0  0  0
    9.7077    9.5308   25.0476 H   0  0  0  0  0  0  0  0  0  0  0  0
    7.4728   10.7496   25.5112 H   0  0  0  0  0  0  0  0  0  0  0  0
    8.9310   11.7682   25.5931 H   0  0  0  0  0  0  0  0  0  0  0  0
    8.5119   18.4202   20.8420 H   0  0  0  0  0  0  0  0  0  0  0  0
    7.4476   17.4674   19.7581 H   0  0  0  0  0  0  0  0  0  0  0  0
    6.7402   18.3980   21.1180 H   0  0  0  0  0  0  0  0  0  0  0  0
    4.7643   14.3776   22.2067 H   0  0  0  0  0  0  0  0  0  0  0  0
    5.4795   15.3855   23.4654 H   0  0  0  0  0  0  0  0  0  0  0  0
    6.0787   15.3522   20.6031 H   0  0  0  0  0  0  0  0  0  0  0  0
  1  2  2  0  0  0  0
  1 11  1  0  0  0  0
  2  9  1  0  0  0  0
  2 10  1  0  0  0  0
  3  4  1  0  0  0  0
  3 10  2  0  0  0  0
  3 11  1  0  0  0  0
  4  5  1  0  0  0  0
  5  6  1  0  0  0  0
  6  7  1  0  0  0  0
  7 11  1  0  0  0  0
  8 15  1  0  0  0  0
  9 12  1  0  0  0  0
 12 15  1  0  0  0  0
 13 15  2  0  0  0  0
 14 15  2  0  0  0  0
  1 16  1  0  0  0  0
  4 17  1  0  0  0  0
  4 18  1  0  0  0  0
  5 19  1  0  0  0  0
  5 20  1  0  0  0  0
  6 21  1  0  0  0  0
  6 22  1  0  0  0  0
  7 23  1  0  0  0  0
  7 24  1  0  0  0  0
  8 25  1  0  0  0  0
  8 26  1  0  0  0  0
  8 27  1  0  0  0  0
  9 28  1  0  0  0  0
  9 29  1  0  0  0  0
 12 30  1  0  0  0  0
M  END
> <Mol Weight>
229,30

> <Formula>
C9H15N3O2S

> <ID>
EN300-158736

> <name>
Sulfonamides

> <LogP>
-0,61

> <ROCS_ShapeQuery>
x0310_0A_x0719_0A_x1080_0A_x0739_0A_x0929_0A_x0526_0A_x0911_0A

> <ROCS_TanimotoCombo>
0.329 

> <ROCS_ShapeTanimoto>
0.155 

> <ROCS_ColorTanimoto>
0.175 

> <ROCS_RefTversky>
0.151 

> <ROCS_RefColorTversky>
0.191 

> <ROCS_RefTverskyCombo>
0.342 

> <ROCS_FitTversky>
1.173 

> <ROCS_FitColorTversky>
0.678 

> <ROCS_FitTverskyCombo>
1.851 

> <ROCS_ColorScore>
-5.547

> <ROCS_Overlap>
1210.984

> <ROCS_Rank>
139                 

$$$$
untitled-dbase-2811_69
  -OEChem-02092407103D

 40 41  0     0  0  0  0  0  0999 V2000
    5.9677   12.0851   21.5102 B   0  0  0  0  0  0  0  0  0  0  0  0
    4.6820   11.2630   19.4426 C   0  0  0  0  0  0  0  0  0  0  0  0
    3.4346   12.3714   21.1898 C   0  0  0  0  0  0  0  0  0  0  0  0
    3.5074   11.0980   18.7087 C   0  0  0  0  0  0  0  0  0  0  0  0
    2.2600   12.2065   20.4558 C   0  0  0  0  0  0  0  0  0  0  0  0
    4.6456   11.8996   20.6832 C   0  0  0  0  0  0  0  0  0  0  0  0
    2.2964   11.5698   19.2152 C   0  0  0  0  0  0  0  0  0  0  0  0
    8.0059   12.9070   22.1545 C   0  0  0  0  0  0  0  0  0  0  0  0
    7.5530   11.7725   23.1333 C   0  0  0  0  0  0  0  0  0  0  0  0
    7.8748   14.3406   22.7164 C   0  0  0  0  0  0  0  0  0  0  0  0
    9.4290   12.7461   21.6018 C   0  0  0  0  0  0  0  0  0  0  0  0
    7.6242   12.1437   24.6212 C   0  0  0  0  0  0  0  0  0  0  0  0
    8.2825   10.4232   22.9459 C   0  0  0  0  0  0  0  0  0  0  0  0
   -1.2780   12.1919   17.4846 C   0  0  0  0  0  0  0  0  0  0  0  0
    1.0943   11.4008   18.4638 N   0  0  0  0  0  0  0  0  0  0  0  0
    0.2796   13.8279   18.7749 O   0  0  0  0  0  0  0  0  0  0  0  0
    0.9602   13.0865   16.4657 O   0  0  0  0  0  0  0  0  0  0  0  0
    7.0683   12.7983   21.0353 O   0  0  0  0  0  0  0  0  0  0  0  0
    6.1478   11.5516   22.7864 O   0  0  0  0  0  0  0  0  0  0  0  0
    0.3724   12.7964   17.7586 S   0  0  0  0  0  0  0  0  0  0  0  0
    5.6124   10.8848   19.0231 H   0  0  0  0  0  0  0  0  0  0  0  0
    3.3766   12.8715   22.1548 H   0  0  0  0  0  0  0  0  0  0  0  0
    3.5464   10.6001   17.7433 H   0  0  0  0  0  0  0  0  0  0  0  0
    1.3212   12.5775   20.8591 H   0  0  0  0  0  0  0  0  0  0  0  0
    8.2119   15.0441   21.9656 H   0  0  0  0  0  0  0  0  0  0  0  0
    8.4865   14.4262   23.6057 H   0  0  0  0  0  0  0  0  0  0  0  0
    6.8368   14.5282   22.9609 H   0  0  0  0  0  0  0  0  0  0  0  0
    9.6538   13.5745   20.9363 H   0  0  0  0  0  0  0  0  0  0  0  0
    9.5000   11.8111   21.0540 H   0  0  0  0  0  0  0  0  0  0  0  0
   10.1374   12.7394   22.4250 H   0  0  0  0  0  0  0  0  0  0  0  0
    7.2930   11.3003   25.2201 H   0  0  0  0  0  0  0  0  0  0  0  0
    6.9816   12.9984   24.8114 H   0  0  0  0  0  0  0  0  0  0  0  0
    8.6483   12.3943   24.8823 H   0  0  0  0  0  0  0  0  0  0  0  0
    7.8974    9.7130   23.6668 H   0  0  0  0  0  0  0  0  0  0  0  0
    9.3432   10.5730   23.1032 H   0  0  0  0  0  0  0  0  0  0  0  0
    8.1037   10.0644   21.9400 H   0  0  0  0  0  0  0  0  0  0  0  0
   -1.8661   12.9904   17.0294 H   0  0  0  0  0  0  0  0  0  0  0  0
   -1.2228   11.3300   16.8179 H   0  0  0  0  0  0  0  0  0  0  0  0
   -1.7036   11.9045   18.4472 H   0  0  0  0  0  0  0  0  0  0  0  0
    1.0851   10.5612   17.8613 H   0  0  0  0  0  0  0  0  0  0  0  0
  1  6  1  0  0  0  0
  1 18  1  0  0  0  0
  1 19  1  0  0  0  0
  2  4  2  0  0  0  0
  2  6  1  0  0  0  0
  3  5  1  0  0  0  0
  3  6  2  0  0  0  0
  4  7  1  0  0  0  0
  5  7  2  0  0  0  0
  7 15  1  0  0  0  0
  8  9  1  0  0  0  0
  8 10  1  0  0  0  0
  8 11  1  0  0  0  0
  8 18  1  0  0  0  0
  9 12  1  0  0  0  0
  9 13  1  0  0  0  0
  9 19  1  0  0  0  0
 14 20  1  0  0  0  0
 15 20  1  0  0  0  0
 16 20  2  0  0  0  0
 17 20  2  0  0  0  0
  2 21  1  0  0  0  0
  3 22  1  0  0  0  0
  4 23  1  0  0  0  0
  5 24  1  0  0  0  0
 10 25  1  0  0  0  0
 10 26  1  0  0  0  0
 10 27  1  0  0  0  0
 11 28  1  0  0  0  0
 11 29  1  0  0  0  0
 11 30  1  0  0  0  0
 12 31  1  0  0  0  0
 12 32  1  0  0  0  0
 12 33  1  0  0  0  0
 13 34  1  0  0  0  0
 13 35  1  0  0  0  0
 13 36  1  0  0  0  0
 14 37  1  0  0  0  0
 14 38  1  0  0  0  0
 14 39  1  0  0  0  0
 15 40  1  0  0  0  0
M  END
> <Mol Weight>
297,18

> <Formula>
C13H20BNO4S

> <ID>
EN300-1086706

> <name>
Sulfonamides

> <LogP>
2,41

> <ROCS_ShapeQuery>
x0310_0A_x0719_0A_x1080_0A_x0739_0A_x0929_0A_x0526_0A_x0911_0A

> <ROCS_TanimotoCombo>
0.329 

> <ROCS_ShapeTanimoto>
0.222 

> <ROCS_ColorTanimoto>
0.107 

> <ROCS_RefTversky>
0.210 

> <ROCS_RefColorTversky>
0.124 

> <ROCS_RefTverskyCombo>
0.334 

> <ROCS_FitTversky>
1.364 

> <ROCS_FitColorTversky>
0.441 

> <ROCS_FitTverskyCombo>
1.805 

> <ROCS_ColorScore>
-3.602

> <ROCS_Overlap>
1683.542

> <ROCS_Rank>
140                 

$$$$
untitled-dbase-2672_29
  -OEChem-02092407103D

 37 38  0     0  0  0  0  0  0999 V2000
    5.4430   13.0403   20.9987 B   0  0  0  0  0  0  0  0  0  0  0  0
    3.7313   10.7375   18.4227 C   0  0  0  0  0  0  0  0  0  0  0  0
    4.7057   11.3515   19.2096 C   0  0  0  0  0  0  0  0  0  0  0  0
    2.3958   11.1230   18.5392 C   0  0  0  0  0  0  0  0  0  0  0  0
    3.0091   12.7364   20.2297 C   0  0  0  0  0  0  0  0  0  0  0  0
    4.3446   12.3509   20.1131 C   0  0  0  0  0  0  0  0  0  0  0  0
    2.0347   12.1225   19.4428 C   0  0  0  0  0  0  0  0  0  0  0  0
    6.4486   14.5632   22.3824 C   0  0  0  0  0  0  0  0  0  0  0  0
    7.4478   13.4068   22.0437 C   0  0  0  0  0  0  0  0  0  0  0  0
    5.8459   14.5054   23.8041 C   0  0  0  0  0  0  0  0  0  0  0  0
    7.0068   15.9766   22.1646 C   0  0  0  0  0  0  0  0  0  0  0  0
    8.1311   12.7726   23.2633 C   0  0  0  0  0  0  0  0  0  0  0  0
    8.5476   13.7766   21.0231 C   0  0  0  0  0  0  0  0  0  0  0  0
   -0.3736   11.5714   18.4423 N   0  0  0  0  0  0  0  0  0  0  0  0
   -0.1061   12.2383   20.9181 O   0  0  0  0  0  0  0  0  0  0  0  0
    0.2348   13.9788   19.1287 O   0  0  0  0  0  0  0  0  0  0  0  0
    5.3458   14.3596   21.4411 O   0  0  0  0  0  0  0  0  0  0  0  0
    6.6042   12.3889   21.4144 O   0  0  0  0  0  0  0  0  0  0  0  0
    0.3623   12.6030   19.5885 S   0  0  0  0  0  0  0  0  0  0  0  0
    4.0115    9.9591   17.7190 H   0  0  0  0  0  0  0  0  0  0  0  0
    5.7397   11.0305   19.0979 H   0  0  0  0  0  0  0  0  0  0  0  0
    1.6453   10.6376   17.9217 H   0  0  0  0  0  0  0  0  0  0  0  0
    2.7100   13.5147   20.9302 H   0  0  0  0  0  0  0  0  0  0  0  0
    5.1736   15.3440   23.9348 H   0  0  0  0  0  0  0  0  0  0  0  0
    6.6492   14.5582   24.5283 H   0  0  0  0  0  0  0  0  0  0  0  0
    5.3044   13.5748   23.9183 H   0  0  0  0  0  0  0  0  0  0  0  0
    6.2475   16.7086   22.4240 H   0  0  0  0  0  0  0  0  0  0  0  0
    7.2864   16.0977   21.1221 H   0  0  0  0  0  0  0  0  0  0  0  0
    7.8802   16.1209   22.7939 H   0  0  0  0  0  0  0  0  0  0  0  0
    8.8019   11.9850   22.9326 H   0  0  0  0  0  0  0  0  0  0  0  0
    7.3766   12.3534   23.9226 H   0  0  0  0  0  0  0  0  0  0  0  0
    8.6970   13.5317   23.7955 H   0  0  0  0  0  0  0  0  0  0  0  0
    9.1802   12.9130   20.8605 H   0  0  0  0  0  0  0  0  0  0  0  0
    9.1336   14.5958   21.4202 H   0  0  0  0  0  0  0  0  0  0  0  0
    8.0783   14.0728   20.0934 H   0  0  0  0  0  0  0  0  0  0  0  0
   -0.9546   10.7995   18.7917 H   0  0  0  0  0  0  0  0  0  0  0  0
   -0.7193   11.9891   17.5698 H   0  0  0  0  0  0  0  0  0  0  0  0
  1  6  1  0  0  0  0
  1 17  1  0  0  0  0
  1 18  1  0  0  0  0
  2  3  2  0  0  0  0
  2  4  1  0  0  0  0
  3  6  1  0  0  0  0
  4  7  2  0  0  0  0
  5  6  2  0  0  0  0
  5  7  1  0  0  0  0
  7 19  1  0  0  0  0
  8  9  1  0  0  0  0
  8 10  1  0  0  0  0
  8 11  1  0  0  0  0
  8 17  1  0  0  0  0
  9 12  1  0  0  0  0
  9 13  1  0  0  0  0
  9 18  1  0  0  0  0
 14 19  1  0  0  0  0
 15 19  2  0  0  0  0
 16 19  2  0  0  0  0
  2 20  1  0  0  0  0
  3 21  1  0  0  0  0
  4 22  1  0  0  0  0
  5 23  1  0  0  0  0
 10 24  1  0  0  0  0
 10 25  1  0  0  0  0
 10 26  1  0  0  0  0
 11 27  1  0  0  0  0
 11 28  1  0  0  0  0
 11 29  1  0  0  0  0
 12 30  1  0  0  0  0
 12 31  1  0  0  0  0
 12 32  1  0  0  0  0
 13 33  1  0  0  0  0
 13 34  1  0  0  0  0
 13 35  1  0  0  0  0
 14 36  1  0  0  0  0
 14 37  1  0  0  0  0
M  END
> <Mol Weight>
283,15

> <Formula>
C12H18BNO4S

> <ID>
EN300-206714

> <name>
Sulfonamides

> <LogP>
2,53

> <ROCS_ShapeQuery>
x0310_0A_x0719_0A_x1080_0A_x0739_0A_x0929_0A_x0526_0A_x0911_0A

> <ROCS_TanimotoCombo>
0.329 

> <ROCS_ShapeTanimoto>
0.213 

> <ROCS_ColorTanimoto>
0.116 

> <ROCS_RefTversky>
0.202 

> <ROCS_RefColorTversky>
0.133 

> <ROCS_RefTverskyCombo>
0.335 

> <ROCS_FitTversky>
1.354 

> <ROCS_FitColorTversky>
0.475 

> <ROCS_FitTverskyCombo>
1.829 

> <ROCS_ColorScore>
-3.883

> <ROCS_Overlap>
1617.769

> <ROCS_Rank>
141                 

$$$$
untitled-dbase-1766_3
  -OEChem-02092407103D

 26 26  0     0  0  0  0  0  0999 V2000
    9.6677   11.4108   22.9980 C   0  0  0  0  0  0  0  0  0  0  0  0
    8.0489   11.7330   24.3726 C   0  0  0  0  0  0  0  0  0  0  0  0
    8.4142   10.5912   23.3923 C   0  0  0  0  0  0  0  0  0  0  0  0
    8.9501   12.6848   23.5325 C   0  0  0  0  0  0  0  0  0  0  0  0
    9.8434   13.5927   24.3715 C   0  0  0  0  0  0  0  0  0  0  0  0
    8.1980   13.4757   22.4615 C   0  0  0  0  0  0  0  0  0  0  0  0
    8.6644    9.2283   24.0058 C   0  0  0  0  0  0  0  0  0  0  0  0
    6.2422   15.1974   21.9498 N   0  0  0  0  0  0  0  0  0  0  0  0
    6.7185   14.4714   24.3711 O   0  0  0  0  0  0  0  0  0  0  0  0
    8.3591   15.9820   23.1828 O   0  0  0  0  0  0  0  0  0  0  0  0
    9.1639    8.3819   23.0865 F   0  0  0  0  0  0  0  0  0  0  0  0
    9.5439    9.3219   25.0199 F   0  0  0  0  0  0  0  0  0  0  0  0
    7.5185    8.7088   24.4834 F   0  0  0  0  0  0  0  0  0  0  0  0
    7.4065   14.8823   23.1566 S   0  0  0  0  0  0  0  0  0  0  0  0
   10.5724   11.1359   23.5544 H   0  0  0  0  0  0  0  0  0  0  0  0
    9.9099   11.4063   21.9308 H   0  0  0  0  0  0  0  0  0  0  0  0
    6.9857   11.9887   24.4132 H   0  0  0  0  0  0  0  0  0  0  0  0
    8.4005   11.5681   25.3987 H   0  0  0  0  0  0  0  0  0  0  0  0
    7.6956   10.5133   22.5644 H   0  0  0  0  0  0  0  0  0  0  0  0
    9.2777   14.4599   24.7102 H   0  0  0  0  0  0  0  0  0  0  0  0
   10.6909   13.9318   23.7768 H   0  0  0  0  0  0  0  0  0  0  0  0
   10.2138   13.0490   25.2400 H   0  0  0  0  0  0  0  0  0  0  0  0
    7.4314   12.8535   22.0054 H   0  0  0  0  0  0  0  0  0  0  0  0
    8.8900   13.8255   21.6989 H   0  0  0  0  0  0  0  0  0  0  0  0
    6.5748   15.5688   21.0515 H   0  0  0  0  0  0  0  0  0  0  0  0
    5.4576   14.5401   21.8611 H   0  0  0  0  0  0  0  0  0  0  0  0
  1  3  1  0  0  0  0
  1  4  1  0  0  0  0
  2  3  1  0  0  0  0
  2  4  1  0  0  0  0
  3  7  1  0  0  0  0
  4  5  1  0  0  0  0
  4  6  1  0  0  0  0
  6 14  1  0  0  0  0
  7 11  1  0  0  0  0
  7 12  1  0  0  0  0
  7 13  1  0  0  0  0
  8 14  1  0  0  0  0
  9 14  2  0  0  0  0
 10 14  2  0  0  0  0
  1 15  1  0  0  0  0
  1 16  1  0  0  0  0
  2 17  1  0  0  0  0
  2 18  1  0  0  0  0
  3 19  1  0  0  0  0
  5 20  1  0  0  0  0
  5 21  1  0  0  0  0
  5 22  1  0  0  0  0
  6 23  1  0  0  0  0
  6 24  1  0  0  0  0
  8 25  1  0  0  0  0
  8 26  1  0  0  0  0
M  END
> <Mol Weight>
231,23

> <Formula>
C7H12F3NO2S

> <ID>
EN300-27734502

> <name>
Sulfonamides

> <LogP>
0,78

> <ROCS_ShapeQuery>
x0310_0A_x0719_0A_x1080_0A_x0739_0A_x0929_0A_x0526_0A_x0911_0A

> <ROCS_TanimotoCombo>
0.329 

> <ROCS_ShapeTanimoto>
0.171 

> <ROCS_ColorTanimoto>
0.158 

> <ROCS_RefTversky>
0.164 

> <ROCS_RefColorTversky>
0.162 

> <ROCS_RefTverskyCombo>
0.325 

> <ROCS_FitTversky>
1.347 

> <ROCS_FitColorTversky>
0.880 

> <ROCS_FitTverskyCombo>
2.227 

> <ROCS_ColorScore>
-4.679

> <ROCS_Overlap>
1310.497

> <ROCS_Rank>
142                 

$$$$
untitled-dbase-2699_76
  -OEChem-02092407103D

 33 34  0     0  0  0  0  0  0999 V2000
    2.4728   12.9463   20.4160 C   0  0  0  0  0  0  0  0  0  0  0  0
    3.5024   13.4224   21.2344 C   0  0  0  0  0  0  0  0  0  0  0  0
    5.1888   12.8340   19.5798 C   0  0  0  0  0  0  0  0  0  0  0  0
    4.1672   12.3509   18.7448 C   0  0  0  0  0  0  0  0  0  0  0  0
    2.8466   12.4185   19.1797 C   0  0  0  0  0  0  0  0  0  0  0  0
    4.8370   13.3683   20.8257 C   0  0  0  0  0  0  0  0  0  0  0  0
    2.9977   11.5137   17.1665 C   0  0  0  0  0  0  0  0  0  0  0  0
   -0.0408   13.4847   15.8433 C   0  0  0  0  0  0  0  0  0  0  0  0
    0.3174   14.0436   17.2109 C   0  0  0  0  0  0  0  0  0  0  0  0
   -0.0369   13.0624   18.3272 C   0  0  0  0  0  0  0  0  0  0  0  0
    0.6808   11.7270   18.1370 C   0  0  0  0  0  0  0  0  0  0  0  0
    4.2414   11.7861   17.4922 N   0  0  0  0  0  0  0  0  0  0  0  0
    2.1205   11.8762   18.1505 N   0  0  0  0  0  0  0  0  0  0  0  0
    6.1691   15.6086   21.3835 N   0  0  0  0  0  0  0  0  0  0  0  0
    5.5957   13.9273   23.2517 O   0  0  0  0  0  0  0  0  0  0  0  0
    7.3414   13.3199   21.5396 O   0  0  0  0  0  0  0  0  0  0  0  0
    2.4851   10.7836   15.6843 S   0  0  0  0  0  0  0  0  0  0  0  0
    6.0890   13.9771   21.8833 S   0  0  0  0  0  0  0  0  0  0  0  0
    1.4375   12.9895   20.7339 H   0  0  0  0  0  0  0  0  0  0  0  0
    3.2457   13.8409   22.2051 H   0  0  0  0  0  0  0  0  0  0  0  0
    6.2259   12.7924   19.2610 H   0  0  0  0  0  0  0  0  0  0  0  0
    0.4820   12.5386   15.6715 H   0  0  0  0  0  0  0  0  0  0  0  0
   -1.1164   13.2973   15.7654 H   0  0  0  0  0  0  0  0  0  0  0  0
    0.2457   14.1803   15.0481 H   0  0  0  0  0  0  0  0  0  0  0  0
   -0.2153   14.9895   17.3636 H   0  0  0  0  0  0  0  0  0  0  0  0
    1.3904   14.2670   17.2383 H   0  0  0  0  0  0  0  0  0  0  0  0
    0.2335   13.4948   19.2987 H   0  0  0  0  0  0  0  0  0  0  0  0
   -1.1222   12.9017   18.3467 H   0  0  0  0  0  0  0  0  0  0  0  0
    0.4031   11.2635   17.1828 H   0  0  0  0  0  0  0  0  0  0  0  0
    0.4120   11.0195   18.9305 H   0  0  0  0  0  0  0  0  0  0  0  0
    5.8028   16.3260   22.0211 H   0  0  0  0  0  0  0  0  0  0  0  0
    6.9943   15.9091   20.8506 H   0  0  0  0  0  0  0  0  0  0  0  0
    3.6843   10.6280   15.0858 H   0  0  0  0  0  0  0  0  0  0  0  0
  1  2  2  0  0  0  0
  1  5  1  0  0  0  0
  2  6  1  0  0  0  0
  3  4  1  0  0  0  0
  3  6  2  0  0  0  0
  4  5  2  0  0  0  0
  4 12  1  0  0  0  0
  5 13  1  0  0  0  0
  6 18  1  0  0  0  0
  7 12  2  0  0  0  0
  7 13  1  0  0  0  0
  7 17  1  0  0  0  0
  8  9  1  0  0  0  0
  9 10  1  0  0  0  0
 10 11  1  0  0  0  0
 11 13  1  0  0  0  0
 14 18  1  0  0  0  0
 15 18  2  0  0  0  0
 16 18  2  0  0  0  0
  1 19  1  0  0  0  0
  2 20  1  0  0  0  0
  3 21  1  0  0  0  0
  8 22  1  0  0  0  0
  8 23  1  0  0  0  0
  8 24  1  0  0  0  0
  9 25  1  0  0  0  0
  9 26  1  0  0  0  0
 10 27  1  0  0  0  0
 10 28  1  0  0  0  0
 11 29  1  0  0  0  0
 11 30  1  0  0  0  0
 14 31  1  0  0  0  0
 14 32  1  0  0  0  0
 17 33  1  0  0  0  0
M  END
> <Mol Weight>
285,38

> <Formula>
C11H15N3O2S2

> <ID>
EN300-03118

> <name>
Sulfonamides

> <LogP>
2,19

> <ROCS_ShapeQuery>
x0310_0A_x0719_0A_x1080_0A_x0739_0A_x0929_0A_x0526_0A_x0911_0A

> <ROCS_TanimotoCombo>
0.329 

> <ROCS_ShapeTanimoto>
0.180 

> <ROCS_ColorTanimoto>
0.149 

> <ROCS_RefTversky>
0.174 

> <ROCS_RefColorTversky>
0.175 

> <ROCS_RefTverskyCombo>
0.349 

> <ROCS_FitTversky>
1.211 

> <ROCS_FitColorTversky>
0.505 

> <ROCS_FitTverskyCombo>
1.717 

> <ROCS_ColorScore>
-5.098

> <ROCS_Overlap>
1397.666

> <ROCS_Rank>
143                 

$$$$
untitled-dbase-1660_26
  -OEChem-02092407103D

 32 32  0     1  0  0  0  0  0999 V2000
    9.6192   10.4956   24.3074 C   0  0  0  0  0  0  0  0  0  0  0  0
    8.2647   10.6077   24.6210 C   0  0  0  0  0  0  0  0  0  0  0  0
   10.1654   11.2733   23.2864 C   0  0  0  0  0  0  0  0  0  0  0  0
    7.4564   11.4976   23.9136 C   0  0  0  0  0  0  0  0  0  0  0  0
    9.3571   12.1632   22.5789 C   0  0  0  0  0  0  0  0  0  0  0  0
    8.0026   12.2753   22.8925 C   0  0  0  0  0  0  0  0  0  0  0  0
    5.1107   11.1339   18.7746 C   0  0  0  0  0  0  0  0  0  0  0  0
    5.5649   12.2246   19.7316 C   0  0  0  0  0  0  0  0  0  0  0  0
    7.0861   12.3778   19.7250 C   0  0  0  0  0  0  0  0  0  0  0  0
    7.5349   13.4980   20.6691 C   0  0  0  0  0  0  0  0  0  0  0  0
    7.1276   13.2391   22.1258 C   0  0  2  0  0  0  0  0  0  0  0  0
    5.7127   15.4669   22.4191 N   0  0  0  0  0  0  0  0  0  0  0  0
    6.9006   14.4192   24.4459 O   0  0  0  0  0  0  0  0  0  0  0  0
    8.2748   15.5299   22.6395 O   0  0  0  0  0  0  0  0  0  0  0  0
    7.1231   14.7532   23.0532 S   0  0  0  0  0  0  0  0  0  0  0  0
   10.2488    9.8036   24.8592 H   0  0  0  0  0  0  0  0  0  0  0  0
    7.8395   10.0030   25.4167 H   0  0  0  0  0  0  0  0  0  0  0  0
   11.2202   11.1871   23.0426 H   0  0  0  0  0  0  0  0  0  0  0  0
    6.4020   11.5781   24.1647 H   0  0  0  0  0  0  0  0  0  0  0  0
    9.7913   12.7650   21.7850 H   0  0  0  0  0  0  0  0  0  0  0  0
    5.5643   10.1716   19.0331 H   0  0  0  0  0  0  0  0  0  0  0  0
    4.0232   11.0195   18.8192 H   0  0  0  0  0  0  0  0  0  0  0  0
    5.3849   11.3774   17.7431 H   0  0  0  0  0  0  0  0  0  0  0  0
    5.0942   13.1724   19.4461 H   0  0  0  0  0  0  0  0  0  0  0  0
    5.2189   11.9820   20.7431 H   0  0  0  0  0  0  0  0  0  0  0  0
    7.5512   11.4328   20.0309 H   0  0  0  0  0  0  0  0  0  0  0  0
    7.4228   12.5882   18.7033 H   0  0  0  0  0  0  0  0  0  0  0  0
    7.0794   14.4408   20.3384 H   0  0  0  0  0  0  0  0  0  0  0  0
    8.6187   13.6435   20.5833 H   0  0  0  0  0  0  0  0  0  0  0  0
    6.0854   12.8964   22.1413 H   0  0  0  0  0  0  0  0  0  0  0  0
    5.7435   15.8150   21.4529 H   0  0  0  0  0  0  0  0  0  0  0  0
    4.8077   15.0586   22.6834 H   0  0  0  0  0  0  0  0  0  0  0  0
  1  2  1  0  0  0  0
  1  3  2  0  0  0  0
  2  4  2  0  0  0  0
  3  5  1  0  0  0  0
  4  6  1  0  0  0  0
  5  6  2  0  0  0  0
  6 11  1  0  0  0  0
  7  8  1  0  0  0  0
  8  9  1  0  0  0  0
  9 10  1  0  0  0  0
 10 11  1  0  0  0  0
 11 15  1  0  0  0  0
 12 15  1  0  0  0  0
 13 15  2  0  0  0  0
 14 15  2  0  0  0  0
  1 16  1  0  0  0  0
  2 17  1  0  0  0  0
  3 18  1  0  0  0  0
  4 19  1  0  0  0  0
  5 20  1  0  0  0  0
  7 21  1  0  0  0  0
  7 22  1  0  0  0  0
  7 23  1  0  0  0  0
  8 24  1  0  0  0  0
  8 25  1  0  0  0  0
  9 26  1  0  0  0  0
  9 27  1  0  0  0  0
 10 28  1  0  0  0  0
 10 29  1  0  0  0  0
 11 30  1  0  0  0  0
 12 31  1  0  0  0  0
 12 32  1  0  0  0  0
M  END
> <Mol Weight>
227,32

> <Formula>
C11H17NO2S

> <ID>
EN300-679626

> <name>
Sulfonamides

> <LogP>
2,32

> <ROCS_ShapeQuery>
x0310_0A_x0719_0A_x1080_0A_x0739_0A_x0929_0A_x0526_0A_x0911_0A

> <ROCS_TanimotoCombo>
0.329 

> <ROCS_ShapeTanimoto>
0.170 

> <ROCS_ColorTanimoto>
0.158 

> <ROCS_RefTversky>
0.164 

> <ROCS_RefColorTversky>
0.166 

> <ROCS_RefTverskyCombo>
0.330 

> <ROCS_FitTversky>
1.314 

> <ROCS_FitColorTversky>
0.770 

> <ROCS_FitTverskyCombo>
2.084 

> <ROCS_ColorScore>
-4.826

> <ROCS_Overlap>
1310.447

> <ROCS_Rank>
144                 

$$$$
untitled-dbase-1802_8
  -OEChem-02092407103D

 27 27  0     0  0  0  0  0  0999 V2000
    9.5402   10.5337   24.4339 C   0  0  0  0  0  0  0  0  0  0  0  0
    9.1077   11.6312   25.0561 C   0  0  0  0  0  0  0  0  0  0  0  0
    9.0629   10.5747   23.0431 C   0  0  0  0  0  0  0  0  0  0  0  0
    8.3314   12.4313   24.0958 C   0  0  0  0  0  0  0  0  0  0  0  0
    6.2619   11.6659   21.6479 C   0  0  0  0  0  0  0  0  0  0  0  0
    5.5585   12.1259   20.3674 C   0  0  0  0  0  0  0  0  0  0  0  0
    7.7027   12.1742   21.6961 C   0  0  0  0  0  0  0  0  0  0  0  0
    4.1159   11.6479   20.2772 C   0  0  0  0  0  0  0  0  0  0  0  0
    8.3544   11.7344   22.9241 N   0  0  0  0  0  0  0  0  0  0  0  0
    3.4431   13.8394   18.9371 N   0  0  0  0  0  0  0  0  0  0  0  0
    9.2933    9.7085   22.2163 O   0  0  0  0  0  0  0  0  0  0  0  0
    7.8027   13.4957   24.3680 O   0  0  0  0  0  0  0  0  0  0  0  0
    4.1376   11.7141   17.6653 O   0  0  0  0  0  0  0  0  0  0  0  0
    1.9172   11.7695   18.8705 O   0  0  0  0  0  0  0  0  0  0  0  0
    3.3181   12.1456   18.7849 S   0  0  0  0  0  0  0  0  0  0  0  0
   10.1357    9.7398   24.8518 H   0  0  0  0  0  0  0  0  0  0  0  0
    9.2810   11.9091   26.0821 H   0  0  0  0  0  0  0  0  0  0  0  0
    5.7169   12.0316   22.5259 H   0  0  0  0  0  0  0  0  0  0  0  0
    6.2544   10.5696   21.6955 H   0  0  0  0  0  0  0  0  0  0  0  0
    6.1058   11.7318   19.5024 H   0  0  0  0  0  0  0  0  0  0  0  0
    5.5957   13.2199   20.2993 H   0  0  0  0  0  0  0  0  0  0  0  0
    8.2660   11.7929   20.8377 H   0  0  0  0  0  0  0  0  0  0  0  0
    7.7201   13.2686   21.6476 H   0  0  0  0  0  0  0  0  0  0  0  0
    3.5125   12.0179   21.1112 H   0  0  0  0  0  0  0  0  0  0  0  0
    4.0836   10.5538   20.2861 H   0  0  0  0  0  0  0  0  0  0  0  0
    2.8609   14.2998   19.6475 H   0  0  0  0  0  0  0  0  0  0  0  0
    4.3730   14.2619   18.8265 H   0  0  0  0  0  0  0  0  0  0  0  0
  1  2  2  0  0  0  0
  1  3  1  0  0  0  0
  2  4  1  0  0  0  0
  3  9  1  0  0  0  0
  3 11  2  0  0  0  0
  4  9  1  0  0  0  0
  4 12  2  0  0  0  0
  5  6  1  0  0  0  0
  5  7  1  0  0  0  0
  6  8  1  0  0  0  0
  7  9  1  0  0  0  0
  8 15  1  0  0  0  0
 10 15  1  0  0  0  0
 13 15  2  0  0  0  0
 14 15  2  0  0  0  0
  1 16  1  0  0  0  0
  2 17  1  0  0  0  0
  5 18  1  0  0  0  0
  5 19  1  0  0  0  0
  6 20  1  0  0  0  0
  6 21  1  0  0  0  0
  7 22  1  0  0  0  0
  7 23  1  0  0  0  0
  8 24  1  0  0  0  0
  8 25  1  0  0  0  0
 10 26  1  0  0  0  0
 10 27  1  0  0  0  0
M  END
> <Mol Weight>
232,25

> <Formula>
C8H12N2O4S

> <ID>
EN300-14396106

> <name>
Sulfonamides

> <LogP>
-1,39

> <ROCS_ShapeQuery>
x0310_0A_x0719_0A_x1080_0A_x0739_0A_x0929_0A_x0526_0A_x0911_0A

> <ROCS_TanimotoCombo>
0.329 

> <ROCS_ShapeTanimoto>
0.198 

> <ROCS_ColorTanimoto>
0.131 

> <ROCS_RefTversky>
0.186 

> <ROCS_RefColorTversky>
0.144 

> <ROCS_RefTverskyCombo>
0.330 

> <ROCS_FitTversky>
1.469 

> <ROCS_FitColorTversky>
0.581 

> <ROCS_FitTverskyCombo>
2.050 

> <ROCS_ColorScore>
-4.196

> <ROCS_Overlap>
1490.012

> <ROCS_Rank>
145                 

$$$$
untitled-dbase-1653_63
  -OEChem-02092407103D

 28 29  0     0  0  0  0  0  0999 V2000
    7.5967   11.7356   23.1224 C   0  0  0  0  0  0  0  0  0  0  0  0
    7.6431   10.7478   24.1078 C   0  0  0  0  0  0  0  0  0  0  0  0
   10.0131   12.0167   23.2293 C   0  0  0  0  0  0  0  0  0  0  0  0
   10.0460   11.0293   24.1966 C   0  0  0  0  0  0  0  0  0  0  0  0
    8.7742   12.3653   22.6850 C   0  0  0  0  0  0  0  0  0  0  0  0
    8.8799   10.4107   24.6222 C   0  0  0  0  0  0  0  0  0  0  0  0
   11.1898   10.5104   24.9777 C   0  0  0  0  0  0  0  0  0  0  0  0
   10.5226    9.2781   25.5906 C   0  0  0  0  0  0  0  0  0  0  0  0
    8.7008   13.4098   21.6215 C   0  0  0  0  0  0  0  0  0  0  0  0
    7.3880   14.1970   21.6254 C   0  0  0  0  0  0  0  0  0  0  0  0
    5.6296   15.8175   22.7799 N   0  0  0  0  0  0  0  0  0  0  0  0
    6.9508   14.1284   24.2005 O   0  0  0  0  0  0  0  0  0  0  0  0
    8.1457   16.1259   23.2169 O   0  0  0  0  0  0  0  0  0  0  0  0
    9.0877    9.4689   25.5979 O   0  0  0  0  0  0  0  0  0  0  0  0
    7.1318   15.0897   23.1268 S   0  0  0  0  0  0  0  0  0  0  0  0
    6.6376   12.0127   22.6918 H   0  0  0  0  0  0  0  0  0  0  0  0
    6.7356   10.2676   24.4562 H   0  0  0  0  0  0  0  0  0  0  0  0
   10.9268   12.5004   22.8990 H   0  0  0  0  0  0  0  0  0  0  0  0
   12.0076   10.2256   24.3084 H   0  0  0  0  0  0  0  0  0  0  0  0
   11.5544   11.2000   25.7433 H   0  0  0  0  0  0  0  0  0  0  0  0
   10.7641    8.3688   25.0306 H   0  0  0  0  0  0  0  0  0  0  0  0
   10.8447    9.1302   26.6293 H   0  0  0  0  0  0  0  0  0  0  0  0
    8.8094   12.9329   20.6323 H   0  0  0  0  0  0  0  0  0  0  0  0
    9.5458   14.1153   21.6986 H   0  0  0  0  0  0  0  0  0  0  0  0
    7.3893   14.9467   20.8277 H   0  0  0  0  0  0  0  0  0  0  0  0
    6.5191   13.5468   21.4855 H   0  0  0  0  0  0  0  0  0  0  0  0
    4.8028   15.4705   23.2816 H   0  0  0  0  0  0  0  0  0  0  0  0
    5.6166   16.8309   22.6116 H   0  0  0  0  0  0  0  0  0  0  0  0
  1  2  2  0  0  0  0
  1  5  1  0  0  0  0
  2  6  1  0  0  0  0
  3  4  1  0  0  0  0
  3  5  2  0  0  0  0
  4  6  2  0  0  0  0
  4  7  1  0  0  0  0
  5  9  1  0  0  0  0
  6 14  1  0  0  0  0
  7  8  1  0  0  0  0
  8 14  1  0  0  0  0
  9 10  1  0  0  0  0
 10 15  1  0  0  0  0
 11 15  1  0  0  0  0
 12 15  2  0  0  0  0
 13 15  2  0  0  0  0
  1 16  1  0  0  0  0
  2 17  1  0  0  0  0
  3 18  1  0  0  0  0
  7 19  1  0  0  0  0
  7 20  1  0  0  0  0
  8 21  1  0  0  0  0
  8 22  1  0  0  0  0
  9 23  1  0  0  0  0
  9 24  1  0  0  0  0
 10 25  1  0  0  0  0
 10 26  1  0  0  0  0
 11 27  1  0  0  0  0
 11 28  1  0  0  0  0
M  END
> <Mol Weight>
227,28

> <Formula>
C10H13NO3S

> <ID>
EN300-156116

> <name>
Sulfonamides

> <LogP>
0,51

> <ROCS_ShapeQuery>
x0310_0A_x0719_0A_x1080_0A_x0739_0A_x0929_0A_x0526_0A_x0911_0A

> <ROCS_TanimotoCombo>
0.329 

> <ROCS_ShapeTanimoto>
0.160 

> <ROCS_ColorTanimoto>
0.168 

> <ROCS_RefTversky>
0.156 

> <ROCS_RefColorTversky>
0.180 

> <ROCS_RefTverskyCombo>
0.336 

> <ROCS_FitTversky>
1.212 

> <ROCS_FitColorTversky>
0.723 

> <ROCS_FitTverskyCombo>
1.935 

> <ROCS_ColorScore>
-5.229

> <ROCS_Overlap>
1248.913

> <ROCS_Rank>
146                 

$$$$
untitled-dbase-1114_2
  -OEChem-02092407103D

 22 23  0     0  0  0  0  0  0999 V2000
    8.7290    9.9099   23.9055 C   0  0  0  0  0  0  0  0  0  0  0  0
    7.6588   10.7351   24.2432 C   0  0  0  0  0  0  0  0  0  0  0  0
    9.8276   10.4343   23.2250 C   0  0  0  0  0  0  0  0  0  0  0  0
    7.6824   12.0884   23.9019 C   0  0  0  0  0  0  0  0  0  0  0  0
   10.9358   12.3719   22.1957 C   0  0  0  0  0  0  0  0  0  0  0  0
    9.9534   14.4479   22.1849 C   0  0  0  0  0  0  0  0  0  0  0  0
    9.8621   11.7947   22.8766 C   0  0  0  0  0  0  0  0  0  0  0  0
    8.7806   12.6334   23.2167 C   0  0  0  0  0  0  0  0  0  0  0  0
    8.8342   13.9860   22.8606 C   0  0  0  0  0  0  0  0  0  0  0  0
   11.0064   13.6753   21.8429 N   0  0  0  0  0  0  0  0  0  0  0  0
    6.5937   14.9894   21.8223 N   0  0  0  0  0  0  0  0  0  0  0  0
    6.8159   14.6422   24.3670 O   0  0  0  0  0  0  0  0  0  0  0  0
    8.1462   16.4676   23.2509 O   0  0  0  0  0  0  0  0  0  0  0  0
    7.5633   15.1351   23.2204 S   0  0  0  0  0  0  0  0  0  0  0  0
    8.7081    8.8572   24.1722 H   0  0  0  0  0  0  0  0  0  0  0  0
    6.8041   10.3247   24.7732 H   0  0  0  0  0  0  0  0  0  0  0  0
   10.6547    9.7761   22.9690 H   0  0  0  0  0  0  0  0  0  0  0  0
    6.8258   12.6942   24.1854 H   0  0  0  0  0  0  0  0  0  0  0  0
   11.8006   11.7821   21.9040 H   0  0  0  0  0  0  0  0  0  0  0  0
   10.0438   15.4880   21.8863 H   0  0  0  0  0  0  0  0  0  0  0  0
    5.6834   14.5222   21.9146 H   0  0  0  0  0  0  0  0  0  0  0  0
    6.5944   15.7685   21.1528 H   0  0  0  0  0  0  0  0  0  0  0  0
  1  2  1  0  0  0  0
  1  3  2  0  0  0  0
  2  4  2  0  0  0  0
  3  7  1  0  0  0  0
  4  8  1  0  0  0  0
  5  7  2  0  0  0  0
  5 10  1  0  0  0  0
  6  9  1  0  0  0  0
  6 10  2  0  0  0  0
  7  8  1  0  0  0  0
  8  9  2  0  0  0  0
  9 14  1  0  0  0  0
 11 14  1  0  0  0  0
 12 14  2  0  0  0  0
 13 14  2  0  0  0  0
  1 15  1  0  0  0  0
  2 16  1  0  0  0  0
  3 17  1  0  0  0  0
  4 18  1  0  0  0  0
  5 19  1  0  0  0  0
  6 20  1  0  0  0  0
 11 21  1  0  0  0  0
 11 22  1  0  0  0  0
M  END
> <Mol Weight>
208,24

> <Formula>
C9H8N2O2S

> <ID>
EN300-275738

> <name>
Sulfonamides

> <LogP>
0,35

> <ROCS_ShapeQuery>
x0310_0A_x0719_0A_x1080_0A_x0739_0A_x0929_0A_x0526_0A_x0911_0A

> <ROCS_TanimotoCombo>
0.329 

> <ROCS_ShapeTanimoto>
0.178 

> <ROCS_ColorTanimoto>
0.150 

> <ROCS_RefTversky>
0.170 

> <ROCS_RefColorTversky>
0.163 

> <ROCS_RefTverskyCombo>
0.333 

> <ROCS_FitTversky>
1.356 

> <ROCS_FitColorTversky>
0.657 

> <ROCS_FitTverskyCombo>
2.012 

> <ROCS_ColorScore>
-4.741

> <ROCS_Overlap>
1363.630

> <ROCS_Rank>
147                 

$$$$
untitled-dbase-817_5
  -OEChem-02092407103D

 26 26  0     0  0  0  0  0  0999 V2000
    9.5857   10.4924   24.3268 C   0  0  0  0  0  0  0  0  0  0  0  0
   10.1394   11.1428   23.2241 C   0  0  0  0  0  0  0  0  0  0  0  0
    7.5178   11.6981   23.9996 C   0  0  0  0  0  0  0  0  0  0  0  0
    8.2748   10.7700   24.7145 C   0  0  0  0  0  0  0  0  0  0  0  0
    9.3824   12.0710   22.5092 C   0  0  0  0  0  0  0  0  0  0  0  0
    8.0715   12.3486   22.8969 C   0  0  0  0  0  0  0  0  0  0  0  0
    7.6832   10.0748   25.8938 C   0  0  0  0  0  0  0  0  0  0  0  0
    9.9971   12.7556   21.3328 C   0  0  0  0  0  0  0  0  0  0  0  0
    7.2421   13.3387   22.1469 C   0  0  0  0  0  0  0  0  0  0  0  0
    5.7399   15.5103   22.4273 N   0  0  0  0  0  0  0  0  0  0  0  0
    6.8005   14.4023   24.4923 O   0  0  0  0  0  0  0  0  0  0  0  0
    8.2743   15.6339   22.8502 O   0  0  0  0  0  0  0  0  0  0  0  0
    7.1199   14.7968   23.1306 S   0  0  0  0  0  0  0  0  0  0  0  0
   10.1831    9.7711   24.8782 H   0  0  0  0  0  0  0  0  0  0  0  0
   11.1619   10.9201   22.9305 H   0  0  0  0  0  0  0  0  0  0  0  0
    6.4956   11.9134   24.3022 H   0  0  0  0  0  0  0  0  0  0  0  0
    7.8723   10.6480   26.8097 H   0  0  0  0  0  0  0  0  0  0  0  0
    6.5987    9.9492   25.7797 H   0  0  0  0  0  0  0  0  0  0  0  0
    8.1077    9.0699   26.0183 H   0  0  0  0  0  0  0  0  0  0  0  0
    9.8133   12.1789   20.4189 H   0  0  0  0  0  0  0  0  0  0  0  0
    9.5834   13.7629   21.1997 H   0  0  0  0  0  0  0  0  0  0  0  0
   11.0805   12.8700   21.4623 H   0  0  0  0  0  0  0  0  0  0  0  0
    6.2278   12.9711   21.9592 H   0  0  0  0  0  0  0  0  0  0  0  0
    7.6934   13.6145   21.1879 H   0  0  0  0  0  0  0  0  0  0  0  0
    4.8722   15.5167   22.9775 H   0  0  0  0  0  0  0  0  0  0  0  0
    5.8760   16.3553   21.8590 H   0  0  0  0  0  0  0  0  0  0  0  0
  1  2  2  0  0  0  0
  1  4  1  0  0  0  0
  2  5  1  0  0  0  0
  3  4  2  0  0  0  0
  3  6  1  0  0  0  0
  4  7  1  0  0  0  0
  5  6  2  0  0  0  0
  5  8  1  0  0  0  0
  6  9  1  0  0  0  0
  9 13  1  0  0  0  0
 10 13  1  0  0  0  0
 11 13  2  0  0  0  0
 12 13  2  0  0  0  0
  1 14  1  0  0  0  0
  2 15  1  0  0  0  0
  3 16  1  0  0  0  0
  7 17  1  0  0  0  0
  7 18  1  0  0  0  0
  7 19  1  0  0  0  0
  8 20  1  0  0  0  0
  8 21  1  0  0  0  0
  8 22  1  0  0  0  0
  9 23  1  0  0  0  0
  9 24  1  0  0  0  0
 10 25  1  0  0  0  0
 10 26  1  0  0  0  0
M  END
> <Mol Weight>
199,27

> <Formula>
C9H13NO2S

> <ID>
EN300-178377

> <name>
Sulfonamides

> <LogP>
1,37

> <ROCS_ShapeQuery>
x0310_0A_x0719_0A_x1080_0A_x0739_0A_x0929_0A_x0526_0A_x0911_0A

> <ROCS_TanimotoCombo>
0.328 

> <ROCS_ShapeTanimoto>
0.164 

> <ROCS_ColorTanimoto>
0.164 

> <ROCS_RefTversky>
0.158 

> <ROCS_RefColorTversky>
0.167 

> <ROCS_RefTverskyCombo>
0.324 

> <ROCS_FitTversky>
1.358 

> <ROCS_FitColorTversky>
0.908 

> <ROCS_FitTverskyCombo>
2.266 

> <ROCS_ColorScore>
-4.829

> <ROCS_Overlap>
1262.049

> <ROCS_Rank>
148                 

$$$$
untitled-dbase-1726_50
  -OEChem-02092407103D

 30 30  0     1  0  0  0  0  0999 V2000
    9.4325   10.2673   22.9815 C   0  0  0  0  0  0  0  0  0  0  0  0
    8.2357   10.0401   23.6610 C   0  0  0  0  0  0  0  0  0  0  0  0
    9.9393   11.5626   22.8756 C   0  0  0  0  0  0  0  0  0  0  0  0
    7.5457   11.1081   24.2345 C   0  0  0  0  0  0  0  0  0  0  0  0
    9.2493   12.6306   23.4491 C   0  0  0  0  0  0  0  0  0  0  0  0
    8.0524   12.4033   24.1286 C   0  0  0  0  0  0  0  0  0  0  0  0
    6.0196   13.0563   25.4395 C   0  0  0  0  0  0  0  0  0  0  0  0
    7.3857   15.2732   26.3766 C   0  0  0  0  0  0  0  0  0  0  0  0
    6.9284   14.6668   23.7366 C   0  0  0  0  0  0  0  0  0  0  0  0
    7.2971   13.5734   24.7562 C   0  0  2  0  0  0  0  0  0  0  0  0
    6.1112   15.4909   21.3483 N   0  0  0  0  0  0  0  0  0  0  0  0
    7.5683   13.3811   21.5538 O   0  0  0  0  0  0  0  0  0  0  0  0
    5.1715   13.3167   22.3516 O   0  0  0  0  0  0  0  0  0  0  0  0
    8.0797   14.1867   25.7895 O   0  0  0  0  0  0  0  0  0  0  0  0
    6.4225   14.0284   22.1657 S   0  0  0  0  0  0  0  0  0  0  0  0
    9.9703    9.4355   22.5362 H   0  0  0  0  0  0  0  0  0  0  0  0
    7.8415    9.0315   23.7445 H   0  0  0  0  0  0  0  0  0  0  0  0
   10.8716   11.7397   22.3476 H   0  0  0  0  0  0  0  0  0  0  0  0
    6.6138   10.9216   24.7619 H   0  0  0  0  0  0  0  0  0  0  0  0
    9.6516   13.6363   23.3614 H   0  0  0  0  0  0  0  0  0  0  0  0
    5.4409   13.8602   25.9064 H   0  0  0  0  0  0  0  0  0  0  0  0
    6.2614   12.3197   26.2149 H   0  0  0  0  0  0  0  0  0  0  0  0
    5.3713   12.5440   24.7184 H   0  0  0  0  0  0  0  0  0  0  0  0
    8.0035   15.7211   27.1588 H   0  0  0  0  0  0  0  0  0  0  0  0
    6.4430   14.9181   26.8005 H   0  0  0  0  0  0  0  0  0  0  0  0
    7.1784   16.0202   25.6068 H   0  0  0  0  0  0  0  0  0  0  0  0
    6.1142   15.3084   24.0877 H   0  0  0  0  0  0  0  0  0  0  0  0
    7.7947   15.3025   23.5197 H   0  0  0  0  0  0  0  0  0  0  0  0
    6.7641   15.7739   20.6072 H   0  0  0  0  0  0  0  0  0  0  0  0
    5.1318   15.7301   21.1507 H   0  0  0  0  0  0  0  0  0  0  0  0
  1  2  1  0  0  0  0
  1  3  2  0  0  0  0
  2  4  2  0  0  0  0
  3  5  1  0  0  0  0
  4  6  1  0  0  0  0
  5  6  2  0  0  0  0
  6 10  1  0  0  0  0
  7 10  1  0  0  0  0
  8 14  1  0  0  0  0
  9 10  1  0  0  0  0
  9 15  1  0  0  0  0
 10 14  1  0  0  0  0
 11 15  1  0  0  0  0
 12 15  2  0  0  0  0
 13 15  2  0  0  0  0
  1 16  1  0  0  0  0
  2 17  1  0  0  0  0
  3 18  1  0  0  0  0
  4 19  1  0  0  0  0
  5 20  1  0  0  0  0
  7 21  1  0  0  0  0
  7 22  1  0  0  0  0
  7 23  1  0  0  0  0
  8 24  1  0  0  0  0
  8 25  1  0  0  0  0
  8 26  1  0  0  0  0
  9 27  1  0  0  0  0
  9 28  1  0  0  0  0
 11 29  1  0  0  0  0
 11 30  1  0  0  0  0
M  END
> <Mol Weight>
229,29

> <Formula>
C10H15NO3S

> <ID>
EN300-227550

> <name>
Sulfonamides

> <LogP>
0,63

> <ROCS_ShapeQuery>
x0310_0A_x0719_0A_x1080_0A_x0739_0A_x0929_0A_x0526_0A_x0911_0A

> <ROCS_TanimotoCombo>
0.328 

> <ROCS_ShapeTanimoto>
0.186 

> <ROCS_ColorTanimoto>
0.142 

> <ROCS_RefTversky>
0.177 

> <ROCS_RefColorTversky>
0.151 

> <ROCS_RefTverskyCombo>
0.328 

> <ROCS_FitTversky>
1.393 

> <ROCS_FitColorTversky>
0.700 

> <ROCS_FitTverskyCombo>
2.093 

> <ROCS_ColorScore>
-4.385

> <ROCS_Overlap>
1416.702

> <ROCS_Rank>
149                 

$$$$
untitled-dbase-2492_41
  -OEChem-02092407103D

 26 26  0     0  0  0  0  0  0999 V2000
    9.7108   10.5709   22.7340 C   0  0  0  0  0  0  0  0  0  0  0  0
    8.6316   10.5916   24.8955 C   0  0  0  0  0  0  0  0  0  0  0  0
    8.9264   11.6521   22.3321 C   0  0  0  0  0  0  0  0  0  0  0  0
    7.8473   11.6727   24.4936 C   0  0  0  0  0  0  0  0  0  0  0  0
    9.5633   10.0406   24.0157 C   0  0  0  0  0  0  0  0  0  0  0  0
    7.9947   12.2030   23.2119 C   0  0  0  0  0  0  0  0  0  0  0  0
    5.5694   12.8271   21.9944 C   0  0  0  0  0  0  0  0  0  0  0  0
    5.7200   12.5687   20.5102 C   0  0  0  0  0  0  0  0  0  0  0  0
    3.1124   12.9321   20.1646 N   0  0  0  0  0  0  0  0  0  0  0  0
    6.6104   14.2842   23.9096 O   0  0  0  0  0  0  0  0  0  0  0  0
    7.7108   14.2713   21.6436 O   0  0  0  0  0  0  0  0  0  0  0  0
    4.4907   11.7050   18.3725 O   0  0  0  0  0  0  0  0  0  0  0  0
    4.0392   10.5695   20.5843 O   0  0  0  0  0  0  0  0  0  0  0  0
   10.3159    9.0018   24.4014 F   0  0  0  0  0  0  0  0  0  0  0  0
    7.0018   13.5749   22.7036 S   0  0  0  0  0  0  0  0  0  0  0  0
    4.3095   11.7702   19.8125 S   0  0  0  0  0  0  0  0  0  0  0  0
   10.4361   10.1415   22.0493 H   0  0  0  0  0  0  0  0  0  0  0  0
    8.5174   10.1782   25.8934 H   0  0  0  0  0  0  0  0  0  0  0  0
    9.0493   12.0573   21.3313 H   0  0  0  0  0  0  0  0  0  0  0  0
    7.1243   12.0937   25.1872 H   0  0  0  0  0  0  0  0  0  0  0  0
    4.7221   13.4834   22.2129 H   0  0  0  0  0  0  0  0  0  0  0  0
    5.4280   11.8826   22.5288 H   0  0  0  0  0  0  0  0  0  0  0  0
    6.5653   11.8978   20.3291 H   0  0  0  0  0  0  0  0  0  0  0  0
    5.8791   13.4923   19.9463 H   0  0  0  0  0  0  0  0  0  0  0  0
    2.7277   13.4747   19.3815 H   0  0  0  0  0  0  0  0  0  0  0  0
    2.4203   12.7014   20.8880 H   0  0  0  0  0  0  0  0  0  0  0  0
  1  3  2  0  0  0  0
  1  5  1  0  0  0  0
  2  4  1  0  0  0  0
  2  5  2  0  0  0  0
  3  6  1  0  0  0  0
  4  6  2  0  0  0  0
  5 14  1  0  0  0  0
  6 15  1  0  0  0  0
  7  8  1  0  0  0  0
  7 15  1  0  0  0  0
  8 16  1  0  0  0  0
  9 16  1  0  0  0  0
 10 15  2  0  0  0  0
 11 15  2  0  0  0  0
 12 16  2  0  0  0  0
 13 16  2  0  0  0  0
  1 17  1  0  0  0  0
  2 18  1  0  0  0  0
  3 19  1  0  0  0  0
  4 20  1  0  0  0  0
  7 21  1  0  0  0  0
  7 22  1  0  0  0  0
  8 23  1  0  0  0  0
  8 24  1  0  0  0  0
  9 25  1  0  0  0  0
  9 26  1  0  0  0  0
M  END
> <Mol Weight>
267,29

> <Formula>
C8H10FNO4S2

> <ID>
EN300-88690

> <name>
Sulfonamides

> <LogP>
-0,45

> <ROCS_ShapeQuery>
x0310_0A_x0719_0A_x1080_0A_x0739_0A_x0929_0A_x0526_0A_x0911_0A

> <ROCS_TanimotoCombo>
0.328 

> <ROCS_ShapeTanimoto>
0.190 

> <ROCS_ColorTanimoto>
0.138 

> <ROCS_RefTversky>
0.181 

> <ROCS_RefColorTversky>
0.151 

> <ROCS_RefTverskyCombo>
0.332 

> <ROCS_FitTversky>
1.393 

> <ROCS_FitColorTversky>
0.608 

> <ROCS_FitTverskyCombo>
2.000 

> <ROCS_ColorScore>
-4.389

> <ROCS_Overlap>
1446.475

> <ROCS_Rank>
150                 

$$$$
untitled-dbase-2520_9149
  -OEChem-02092407103D

 40 39  0     0  0  0  0  0  0999 V2000
    7.6484   14.6334   25.8547 C   0  0  0  0  0  0  0  0  0  0  0  0
    8.1253   14.3125   24.4473 C   0  0  0  0  0  0  0  0  0  0  0  0
    7.5692   15.3035   23.4288 C   0  0  0  0  0  0  0  0  0  0  0  0
    8.0788   15.0118   22.0245 C   0  0  0  0  0  0  0  0  0  0  0  0
    8.4527   13.1936   20.5833 C   0  0  0  0  0  0  0  0  0  0  0  0
    7.9759   11.7949   20.2426 C   0  0  0  0  0  0  0  0  0  0  0  0
    6.1039   10.5633   19.5344 C   0  0  0  0  0  0  0  0  0  0  0  0
    4.6378   10.6834   19.1653 C   0  0  0  0  0  0  0  0  0  0  0  0
    3.1507   11.7214   17.6707 C   0  0  0  0  0  0  0  0  0  0  0  0
    2.4469   12.7150   18.5743 C   0  0  0  0  0  0  0  0  0  0  0  0
    0.0681   11.5595   18.8132 N   0  0  0  0  0  0  0  0  0  0  0  0
    0.2571   14.1247   18.7856 O   0  0  0  0  0  0  0  0  0  0  0  0
    0.6740   12.8265   16.6581 O   0  0  0  0  0  0  0  0  0  0  0  0
    7.6617   13.7071   21.6466 O   0  0  0  0  0  0  0  0  0  0  0  0
    6.6054   11.8507   19.8656 O   0  0  0  0  0  0  0  0  0  0  0  0
    4.5085   11.5706   18.0610 O   0  0  0  0  0  0  0  0  0  0  0  0
    0.7604   12.9459   18.1028 S   0  0  0  0  0  0  0  0  0  0  0  0
    6.5552   14.6220   25.9107 H   0  0  0  0  0  0  0  0  0  0  0  0
    8.0371   13.9071   26.5757 H   0  0  0  0  0  0  0  0  0  0  0  0
    7.9935   15.6278   26.1545 H   0  0  0  0  0  0  0  0  0  0  0  0
    9.2212   14.3321   24.4258 H   0  0  0  0  0  0  0  0  0  0  0  0
    7.8138   13.2947   24.1855 H   0  0  0  0  0  0  0  0  0  0  0  0
    6.4725   15.2749   23.4305 H   0  0  0  0  0  0  0  0  0  0  0  0
    7.8421   16.3289   23.7085 H   0  0  0  0  0  0  0  0  0  0  0  0
    7.6726   15.7294   21.3046 H   0  0  0  0  0  0  0  0  0  0  0  0
    9.1722   15.0515   21.9894 H   0  0  0  0  0  0  0  0  0  0  0  0
    8.3487   13.8656   19.7259 H   0  0  0  0  0  0  0  0  0  0  0  0
    9.4961   13.1731   20.9114 H   0  0  0  0  0  0  0  0  0  0  0  0
    8.0654   11.1265   21.1047 H   0  0  0  0  0  0  0  0  0  0  0  0
    8.5465   11.3901   19.4016 H   0  0  0  0  0  0  0  0  0  0  0  0
    6.6909   10.1739   18.6970 H   0  0  0  0  0  0  0  0  0  0  0  0
    6.2273    9.9130   20.4053 H   0  0  0  0  0  0  0  0  0  0  0  0
    4.0531   11.0875   19.9975 H   0  0  0  0  0  0  0  0  0  0  0  0
    4.2361    9.7093   18.8712 H   0  0  0  0  0  0  0  0  0  0  0  0
    2.6717   10.7395   17.7359 H   0  0  0  0  0  0  0  0  0  0  0  0
    3.1301   12.0442   16.6253 H   0  0  0  0  0  0  0  0  0  0  0  0
    2.9175   13.7017   18.5358 H   0  0  0  0  0  0  0  0  0  0  0  0
    2.4336   12.3579   19.6079 H   0  0  0  0  0  0  0  0  0  0  0  0
    0.2796   10.6481   18.3889 H   0  0  0  0  0  0  0  0  0  0  0  0
   -0.0044   11.5325   19.8377 H   0  0  0  0  0  0  0  0  0  0  0  0
  1  2  1  0  0  0  0
  2  3  1  0  0  0  0
  3  4  1  0  0  0  0
  4 14  1  0  0  0  0
  5  6  1  0  0  0  0
  5 14  1  0  0  0  0
  6 15  1  0  0  0  0
  7  8  1  0  0  0  0
  7 15  1  0  0  0  0
  8 16  1  0  0  0  0
  9 10  1  0  0  0  0
  9 16  1  0  0  0  0
 10 17  1  0  0  0  0
 11 17  1  0  0  0  0
 12 17  2  0  0  0  0
 13 17  2  0  0  0  0
  1 18  1  0  0  0  0
  1 19  1  0  0  0  0
  1 20  1  0  0  0  0
  2 21  1  0  0  0  0
  2 22  1  0  0  0  0
  3 23  1  0  0  0  0
  3 24  1  0  0  0  0
  4 25  1  0  0  0  0
  4 26  1  0  0  0  0
  5 27  1  0  0  0  0
  5 28  1  0  0  0  0
  6 29  1  0  0  0  0
  6 30  1  0  0  0  0
  7 31  1  0  0  0  0
  7 32  1  0  0  0  0
  8 33  1  0  0  0  0
  8 34  1  0  0  0  0
  9 35  1  0  0  0  0
  9 36  1  0  0  0  0
 10 37  1  0  0  0  0
 10 38  1  0  0  0  0
 11 39  1  0  0  0  0
 11 40  1  0  0  0  0
M  END
> <Mol Weight>
269,36

> <Formula>
C10H23NO5S

> <ID>
EN300-136638

> <name>
Sulfonamides

> <LogP>
-0,20

> <ROCS_ShapeQuery>
x0310_0A_x0719_0A_x1080_0A_x0739_0A_x0929_0A_x0526_0A_x0911_0A

> <ROCS_TanimotoCombo>
0.328 

> <ROCS_ShapeTanimoto>
0.181 

> <ROCS_ColorTanimoto>
0.147 

> <ROCS_RefTversky>
0.173 

> <ROCS_RefColorTversky>
0.164 

> <ROCS_RefTverskyCombo>
0.337 

> <ROCS_FitTversky>
1.335 

> <ROCS_FitColorTversky>
0.584 

> <ROCS_FitTverskyCombo>
1.919 

> <ROCS_ColorScore>
-4.771

> <ROCS_Overlap>
1387.532

> <ROCS_Rank>
151                 

$$$$
untitled-dbase-2198_163
  -OEChem-02092407103D

 34 34  0     0  0  0  0  0  0999 V2000
    1.1766   13.1364   18.2294 C   0  0  0  0  0  0  0  0  0  0  0  0
    3.4227   12.0996   18.2929 C   0  0  0  0  0  0  0  0  0  0  0  0
    2.0666   12.3402   20.3985 C   0  0  0  0  0  0  0  0  0  0  0  0
    4.3581   11.1594   19.0577 C   0  0  0  0  0  0  0  0  0  0  0  0
    3.0512   11.3909   21.0864 C   0  0  0  0  0  0  0  0  0  0  0  0
    2.0168   12.0890   18.8919 C   0  0  0  0  0  0  0  0  0  0  0  0
    0.3397   13.8230   16.1289 C   0  0  0  0  0  0  0  0  0  0  0  0
    5.1398   12.6139   20.8437 C   0  0  0  0  0  0  0  0  0  0  0  0
    5.6648   12.5865   22.2664 C   0  0  0  0  0  0  0  0  0  0  0  0
    4.3999   11.4003   20.5057 N   0  0  0  0  0  0  0  0  0  0  0  0
    5.4085   15.2252   22.4171 N   0  0  0  0  0  0  0  0  0  0  0  0
    0.6373   14.0596   18.8243 O   0  0  0  0  0  0  0  0  0  0  0  0
    6.9278   13.9817   24.0790 O   0  0  0  0  0  0  0  0  0  0  0  0
    7.6387   14.1887   21.6630 O   0  0  0  0  0  0  0  0  0  0  0  0
    1.1165   12.8922   16.8893 O   0  0  0  0  0  0  0  0  0  0  0  0
    6.5992   14.0307   22.6650 S   0  0  0  0  0  0  0  0  0  0  0  0
    3.8374   13.1066   18.2992 H   0  0  0  0  0  0  0  0  0  0  0  0
    3.3646   11.7700   17.2547 H   0  0  0  0  0  0  0  0  0  0  0  0
    1.0707   12.1820   20.8168 H   0  0  0  0  0  0  0  0  0  0  0  0
    2.3534   13.3713   20.6064 H   0  0  0  0  0  0  0  0  0  0  0  0
    4.0218   10.1202   18.8664 H   0  0  0  0  0  0  0  0  0  0  0  0
    5.3790   11.2219   18.6246 H   0  0  0  0  0  0  0  0  0  0  0  0
    3.0932   11.6161   22.1736 H   0  0  0  0  0  0  0  0  0  0  0  0
    2.6302   10.3663   21.0197 H   0  0  0  0  0  0  0  0  0  0  0  0
    1.5399   11.1397   18.6947 H   0  0  0  0  0  0  0  0  0  0  0  0
    0.3573   13.5375   15.0743 H   0  0  0  0  0  0  0  0  0  0  0  0
    0.7506   14.8282   16.2521 H   0  0  0  0  0  0  0  0  0  0  0  0
   -0.6908   13.8058   16.4915 H   0  0  0  0  0  0  0  0  0  0  0  0
    4.4718   13.4649   20.6783 H   0  0  0  0  0  0  0  0  0  0  0  0
    5.9721   12.6862   20.1369 H   0  0  0  0  0  0  0  0  0  0  0  0
    6.3398   11.7370   22.4069 H   0  0  0  0  0  0  0  0  0  0  0  0
    4.8537   12.5178   22.9976 H   0  0  0  0  0  0  0  0  0  0  0  0
    5.0257   15.6982   23.2450 H   0  0  0  0  0  0  0  0  0  0  0  0
    5.5098   15.8390   21.5994 H   0  0  0  0  0  0  0  0  0  0  0  0
  1  6  1  0  0  0  0
  1 12  2  0  0  0  0
  1 15  1  0  0  0  0
  2  4  1  0  0  0  0
  2  6  1  0  0  0  0
  3  5  1  0  0  0  0
  3  6  1  0  0  0  0
  4 10  1  0  0  0  0
  5 10  1  0  0  0  0
  7 15  1  0  0  0  0
  8  9  1  0  0  0  0
  8 10  1  0  0  0  0
  9 16  1  0  0  0  0
 11 16  1  0  0  0  0
 13 16  2  0  0  0  0
 14 16  2  0  0  0  0
  2 17  1  0  0  0  0
  2 18  1  0  0  0  0
  3 19  1  0  0  0  0
  3 20  1  0  0  0  0
  4 21  1  0  0  0  0
  4 22  1  0  0  0  0
  5 23  1  0  0  0  0
  5 24  1  0  0  0  0
  6 25  1  0  0  0  0
  7 26  1  0  0  0  0
  7 27  1  0  0  0  0
  7 28  1  0  0  0  0
  8 29  1  0  0  0  0
  8 30  1  0  0  0  0
  9 31  1  0  0  0  0
  9 32  1  0  0  0  0
 11 33  1  0  0  0  0
 11 34  1  0  0  0  0
M  END
> <Mol Weight>
250,31

> <Formula>
C9H18N2O4S

> <ID>
EN300-95902

> <name>
Sulfonamides

> <LogP>
-1,15

> <ROCS_ShapeQuery>
x0310_0A_x0719_0A_x1080_0A_x0739_0A_x0929_0A_x0526_0A_x0911_0A

> <ROCS_TanimotoCombo>
0.327 

> <ROCS_ShapeTanimoto>
0.187 

> <ROCS_ColorTanimoto>
0.140 

> <ROCS_RefTversky>
0.178 

> <ROCS_RefColorTversky>
0.154 

> <ROCS_RefTverskyCombo>
0.331 

> <ROCS_FitTversky>
1.368 

> <ROCS_FitColorTversky>
0.618 

> <ROCS_FitTverskyCombo>
1.987 

> <ROCS_ColorScore>
-4.462

> <ROCS_Overlap>
1424.630

> <ROCS_Rank>
152                 

$$$$
untitled-dbase-2516_24
  -OEChem-02092407103D

 29 30  0     1  0  0  0  0  0999 V2000
    6.8453   14.8698   20.3494 C   0  0  0  0  0  0  0  0  0  0  0  0
    7.7876   14.3406   21.2311 C   0  0  0  0  0  0  0  0  0  0  0  0
    5.8194   14.0625   19.8579 C   0  0  0  0  0  0  0  0  0  0  0  0
    6.6784   12.1966   21.1299 C   0  0  0  0  0  0  0  0  0  0  0  0
    7.7042   13.0040   21.6214 C   0  0  0  0  0  0  0  0  0  0  0  0
    5.7360   12.7259   20.2481 C   0  0  0  0  0  0  0  0  0  0  0  0
    8.2953   12.5849   24.0479 C   0  0  0  0  0  0  0  0  0  0  0  0
    8.4793   10.3435   23.7096 C   0  0  0  0  0  0  0  0  0  0  0  0
    8.7330   12.4273   22.5836 C   0  0  2  0  0  0  0  0  0  0  0  0
   10.1605   12.9771   22.4684 C   0  0  0  0  0  0  0  0  0  0  0  0
    8.1992   11.3380   24.6188 N   0  0  0  0  0  0  0  0  0  0  0  0
    8.7769   10.9740   22.5006 N   0  0  0  0  0  0  0  0  0  0  0  0
    4.8085   10.2316   20.3999 N   0  0  0  0  0  0  0  0  0  0  0  0
    8.0814   13.6545   24.6035 O   0  0  0  0  0  0  0  0  0  0  0  0
    8.4624    9.1375   23.9137 O   0  0  0  0  0  0  0  0  0  0  0  0
    3.1856   12.2181   20.1442 O   0  0  0  0  0  0  0  0  0  0  0  0
    4.6392   11.5551   18.1961 O   0  0  0  0  0  0  0  0  0  0  0  0
    4.4526   11.7157   19.6315 S   0  0  0  0  0  0  0  0  0  0  0  0
    6.9097   15.9107   20.0460 H   0  0  0  0  0  0  0  0  0  0  0  0
    8.5828   14.9774   21.6098 H   0  0  0  0  0  0  0  0  0  0  0  0
    5.0911   14.4852   19.1710 H   0  0  0  0  0  0  0  0  0  0  0  0
    6.6143   11.1550   21.4351 H   0  0  0  0  0  0  0  0  0  0  0  0
   10.8086   12.4953   23.2018 H   0  0  0  0  0  0  0  0  0  0  0  0
   10.1640   14.0529   22.6488 H   0  0  0  0  0  0  0  0  0  0  0  0
   10.5566   12.7864   21.4699 H   0  0  0  0  0  0  0  0  0  0  0  0
    7.9529   11.1718   25.5878 H   0  0  0  0  0  0  0  0  0  0  0  0
    9.0074   10.4658   21.6522 H   0  0  0  0  0  0  0  0  0  0  0  0
    4.1856    9.9178   21.1541 H   0  0  0  0  0  0  0  0  0  0  0  0
    5.1799    9.4670   19.8230 H   0  0  0  0  0  0  0  0  0  0  0  0
  1  2  2  0  0  0  0
  1  3  1  0  0  0  0
  2  5  1  0  0  0  0
  3  6  2  0  0  0  0
  4  5  2  0  0  0  0
  4  6  1  0  0  0  0
  5  9  1  0  0  0  0
  6 18  1  0  0  0  0
  7  9  1  0  0  0  0
  7 11  1  0  0  0  0
  7 14  2  0  0  0  0
  8 11  1  0  0  0  0
  8 12  1  0  0  0  0
  8 15  2  0  0  0  0
  9 10  1  0  0  0  0
  9 12  1  0  0  0  0
 13 18  1  0  0  0  0
 16 18  2  0  0  0  0
 17 18  2  0  0  0  0
  1 19  1  0  0  0  0
  2 20  1  0  0  0  0
  3 21  1  0  0  0  0
  4 22  1  0  0  0  0
 10 23  1  0  0  0  0
 10 24  1  0  0  0  0
 10 25  1  0  0  0  0
 11 26  1  0  0  0  0
 12 27  1  0  0  0  0
 13 28  1  0  0  0  0
 13 29  1  0  0  0  0
M  END
> <Mol Weight>
269,28

> <Formula>
C10H11N3O4S

> <ID>
EN300-66544

> <name>
Sulfonamides

> <LogP>
-0,47

> <ROCS_ShapeQuery>
x0310_0A_x0719_0A_x1080_0A_x0739_0A_x0929_0A_x0526_0A_x0911_0A

> <ROCS_TanimotoCombo>
0.327 

> <ROCS_ShapeTanimoto>
0.202 

> <ROCS_ColorTanimoto>
0.125 

> <ROCS_RefTversky>
0.193 

> <ROCS_RefColorTversky>
0.149 

> <ROCS_RefTverskyCombo>
0.342 

> <ROCS_FitTversky>
1.315 

> <ROCS_FitColorTversky>
0.432 

> <ROCS_FitTverskyCombo>
1.747 

> <ROCS_ColorScore>
-4.353

> <ROCS_Overlap>
1546.679

> <ROCS_Rank>
153                 

$$$$
untitled-dbase-1846_20
  -OEChem-02092407103D

 23 24  0     0  0  0  0  0  0999 V2000
    5.3335   10.4873   24.4565 C   0  0  0  0  0  0  0  0  0  0  0  0
    4.0978   10.9594   24.0725 C   0  0  0  0  0  0  0  0  0  0  0  0
    6.3716   11.4263   24.1905 C   0  0  0  0  0  0  0  0  0  0  0  0
    5.8896   12.5805   23.6129 C   0  0  0  0  0  0  0  0  0  0  0  0
    9.7688   11.7455   23.5344 C   0  0  0  0  0  0  0  0  0  0  0  0
    9.2672   10.4750   22.9006 C   0  0  0  0  0  0  0  0  0  0  0  0
    7.8201   11.1796   24.5060 C   0  0  0  0  0  0  0  0  0  0  0  0
    5.2887   14.9240   22.4942 N   0  0  0  0  0  0  0  0  0  0  0  0
    7.1866   14.7508   24.2300 O   0  0  0  0  0  0  0  0  0  0  0  0
    7.5127   13.7466   21.9425 O   0  0  0  0  0  0  0  0  0  0  0  0
    8.5921   12.3181   24.1033 O   0  0  0  0  0  0  0  0  0  0  0  0
    8.2550   10.0110   23.7964 O   0  0  0  0  0  0  0  0  0  0  0  0
    4.1921   12.5289   23.3941 S   0  0  0  0  0  0  0  0  0  0  0  0
    6.6501   14.0688   23.0656 S   0  0  0  0  0  0  0  0  0  0  0  0
    5.4800    9.5137   24.9068 H   0  0  0  0  0  0  0  0  0  0  0  0
    3.1441   10.4580   24.1573 H   0  0  0  0  0  0  0  0  0  0  0  0
   10.4754   11.5381   24.3454 H   0  0  0  0  0  0  0  0  0  0  0  0
   10.2291   12.4329   22.8205 H   0  0  0  0  0  0  0  0  0  0  0  0
    8.7919   10.6737   21.9341 H   0  0  0  0  0  0  0  0  0  0  0  0
   10.0448    9.7184   22.7695 H   0  0  0  0  0  0  0  0  0  0  0  0
    7.9312   11.0161   25.5576 H   0  0  0  0  0  0  0  0  0  0  0  0
    4.8466   14.5976   21.6261 H   0  0  0  0  0  0  0  0  0  0  0  0
    4.6234   15.2861   23.1881 H   0  0  0  0  0  0  0  0  0  0  0  0
  1  2  2  0  0  0  0
  1  3  1  0  0  0  0
  2 13  1  0  0  0  0
  3  4  2  0  0  0  0
  3  7  1  0  0  0  0
  4 13  1  0  0  0  0
  4 14  1  0  0  0  0
  5  6  1  0  0  0  0
  5 11  1  0  0  0  0
  6 12  1  0  0  0  0
  7 11  1  0  0  0  0
  7 12  1  0  0  0  0
  8 14  1  0  0  0  0
  9 14  2  0  0  0  0
 10 14  2  0  0  0  0
  1 15  1  0  0  0  0
  2 16  1  0  0  0  0
  5 17  1  0  0  0  0
  5 18  1  0  0  0  0
  6 19  1  0  0  0  0
  6 20  1  0  0  0  0
  7 21  1  0  0  0  0
  8 22  1  0  0  0  0
  8 23  1  0  0  0  0
M  END
> <Mol Weight>
235,27

> <Formula>
C7H9NO4S2

> <ID>
EN300-384012

> <name>
Sulfonamides

> <LogP>
0,51

> <ROCS_ShapeQuery>
x0310_0A_x0719_0A_x1080_0A_x0739_0A_x0929_0A_x0526_0A_x0911_0A

> <ROCS_TanimotoCombo>
0.327 

> <ROCS_ShapeTanimoto>
0.152 

> <ROCS_ColorTanimoto>
0.175 

> <ROCS_RefTversky>
0.148 

> <ROCS_RefColorTversky>
0.191 

> <ROCS_RefTverskyCombo>
0.338 

> <ROCS_FitTversky>
1.207 

> <ROCS_FitColorTversky>
0.679 

> <ROCS_FitTverskyCombo>
1.886 

> <ROCS_ColorScore>
-5.551

> <ROCS_Overlap>
1183.786

> <ROCS_Rank>
154                 

$$$$
untitled-dbase-2815_1
  -OEChem-02092407103D

 40 41  0     0  0  0  0  0  0999 V2000
    4.2472   11.8983   19.5092 B   0  0  0  0  0  0  0  0  0  0  0  0
    6.5929   11.1354   20.1914 C   0  0  0  0  0  0  0  0  0  0  0  0
    7.7808   11.2989   20.9039 C   0  0  0  0  0  0  0  0  0  0  0  0
    5.7462   13.1939   21.1309 C   0  0  0  0  0  0  0  0  0  0  0  0
    5.5756   12.0830   20.3049 C   0  0  0  0  0  0  0  0  0  0  0  0
    7.9515   12.4098   21.7300 C   0  0  0  0  0  0  0  0  0  0  0  0
    6.9341   13.3574   21.8435 C   0  0  0  0  0  0  0  0  0  0  0  0
    2.7617   11.0966   17.9717 C   0  0  0  0  0  0  0  0  0  0  0  0
    2.0781   12.1914   18.8594 C   0  0  0  0  0  0  0  0  0  0  0  0
    9.2352   12.5532   22.4804 C   0  0  0  0  0  0  0  0  0  0  0  0
    1.9731    9.7848   17.8522 C   0  0  0  0  0  0  0  0  0  0  0  0
    3.1339   11.5575   16.5443 C   0  0  0  0  0  0  0  0  0  0  0  0
    1.0992   11.6461   19.9239 C   0  0  0  0  0  0  0  0  0  0  0  0
    1.3525   13.2924   18.0730 C   0  0  0  0  0  0  0  0  0  0  0  0
    5.6149   15.5380   22.6242 N   0  0  0  0  0  0  0  0  0  0  0  0
    7.1923   14.3098   24.2517 O   0  0  0  0  0  0  0  0  0  0  0  0
    8.1725   15.5984   22.3214 O   0  0  0  0  0  0  0  0  0  0  0  0
    4.0171   10.8106   18.6706 O   0  0  0  0  0  0  0  0  0  0  0  0
    3.1949   12.8078   19.5799 O   0  0  0  0  0  0  0  0  0  0  0  0
    7.1163   14.7623   22.8711 S   0  0  0  0  0  0  0  0  0  0  0  0
    6.4868   10.2588   19.5551 H   0  0  0  0  0  0  0  0  0  0  0  0
    8.5670   10.5542   20.8084 H   0  0  0  0  0  0  0  0  0  0  0  0
    4.9606   13.9418   21.2299 H   0  0  0  0  0  0  0  0  0  0  0  0
    9.9633   13.1138   21.8831 H   0  0  0  0  0  0  0  0  0  0  0  0
    9.0820   13.0800   23.4302 H   0  0  0  0  0  0  0  0  0  0  0  0
    9.6629   11.5729   22.7242 H   0  0  0  0  0  0  0  0  0  0  0  0
    2.5261    9.0988   17.2228 H   0  0  0  0  0  0  0  0  0  0  0  0
    1.0068    9.9950   17.4115 H   0  0  0  0  0  0  0  0  0  0  0  0
    1.8457    9.3606   18.8403 H   0  0  0  0  0  0  0  0  0  0  0  0
    3.5992   10.7350   16.0090 H   0  0  0  0  0  0  0  0  0  0  0  0
    3.8279   12.3908   16.6034 H   0  0  0  0  0  0  0  0  0  0  0  0
    2.2354   11.8697   16.0199 H   0  0  0  0  0  0  0  0  0  0  0  0
    0.6781   12.4748   20.4857 H   0  0  0  0  0  0  0  0  0  0  0  0
    1.6325   10.9837   20.5994 H   0  0  0  0  0  0  0  0  0  0  0  0
    0.3006   11.0976   19.4329 H   0  0  0  0  0  0  0  0  0  0  0  0
    0.9170   13.9946   18.7727 H   0  0  0  0  0  0  0  0  0  0  0  0
    0.5754   12.8392   17.4705 H   0  0  0  0  0  0  0  0  0  0  0  0
    2.0677   13.7983   17.4366 H   0  0  0  0  0  0  0  0  0  0  0  0
    4.9354   15.5274   23.3946 H   0  0  0  0  0  0  0  0  0  0  0  0
    5.6061   16.4059   22.0747 H   0  0  0  0  0  0  0  0  0  0  0  0
  1  5  1  0  0  0  0
  1 18  1  0  0  0  0
  1 19  1  0  0  0  0
  2  3  2  0  0  0  0
  2  5  1  0  0  0  0
  3  6  1  0  0  0  0
  4  5  2  0  0  0  0
  4  7  1  0  0  0  0
  6  7  2  0  0  0  0
  6 10  1  0  0  0  0
  7 20  1  0  0  0  0
  8  9  1  0  0  0  0
  8 11  1  0  0  0  0
  8 12  1  0  0  0  0
  8 18  1  0  0  0  0
  9 13  1  0  0  0  0
  9 14  1  0  0  0  0
  9 19  1  0  0  0  0
 15 20  1  0  0  0  0
 16 20  2  0  0  0  0
 17 20  2  0  0  0  0
  2 21  1  0  0  0  0
  3 22  1  0  0  0  0
  4 23  1  0  0  0  0
 10 24  1  0  0  0  0
 10 25  1  0  0  0  0
 10 26  1  0  0  0  0
 11 27  1  0  0  0  0
 11 28  1  0  0  0  0
 11 29  1  0  0  0  0
 12 30  1  0  0  0  0
 12 31  1  0  0  0  0
 12 32  1  0  0  0  0
 13 33  1  0  0  0  0
 13 34  1  0  0  0  0
 13 35  1  0  0  0  0
 14 36  1  0  0  0  0
 14 37  1  0  0  0  0
 14 38  1  0  0  0  0
 15 39  1  0  0  0  0
 15 40  1  0  0  0  0
M  END
> <Mol Weight>
297,18

> <Formula>
C13H20BNO4S

> <ID>
EN300-26370991

> <name>
Sulfonamides

> <LogP>
3,00

> <ROCS_ShapeQuery>
x0310_0A_x0719_0A_x1080_0A_x0739_0A_x0929_0A_x0526_0A_x0911_0A

> <ROCS_TanimotoCombo>
0.326 

> <ROCS_ShapeTanimoto>
0.212 

> <ROCS_ColorTanimoto>
0.115 

> <ROCS_RefTversky>
0.202 

> <ROCS_RefColorTversky>
0.132 

> <ROCS_RefTverskyCombo>
0.334 

> <ROCS_FitTversky>
1.307 

> <ROCS_FitColorTversky>
0.470 

> <ROCS_FitTverskyCombo>
1.778 

> <ROCS_ColorScore>
-3.843

> <ROCS_Overlap>
1616.489

> <ROCS_Rank>
155                 

$$$$
untitled-dbase-2164_27
  -OEChem-02092407103D

 28 29  0     0  0  0  0  0  0999 V2000
    9.1688   10.3635   24.2165 C   0  0  0  0  0  0  0  0  0  0  0  0
    8.0592   11.0986   24.6334 C   0  0  0  0  0  0  0  0  0  0  0  0
    9.7576   10.6299   22.9803 C   0  0  0  0  0  0  0  0  0  0  0  0
    4.0818   14.2044   22.3269 C   0  0  0  0  0  0  0  0  0  0  0  0
    7.5382   12.1001   23.8141 C   0  0  0  0  0  0  0  0  0  0  0  0
    9.2366   11.6313   22.1610 C   0  0  0  0  0  0  0  0  0  0  0  0
    5.4662   14.1540   22.4892 C   0  0  0  0  0  0  0  0  0  0  0  0
    3.4744   13.4925   21.2925 C   0  0  0  0  0  0  0  0  0  0  0  0
    5.6360   12.6799   20.5825 C   0  0  0  0  0  0  0  0  0  0  0  0
    8.1269   12.3665   22.5779 C   0  0  0  0  0  0  0  0  0  0  0  0
    6.2433   13.3918   21.6170 C   0  0  0  0  0  0  0  0  0  0  0  0
    4.2515   12.7303   20.4203 C   0  0  0  0  0  0  0  0  0  0  0  0
    3.1844   10.3440   19.8990 N   0  0  0  0  0  0  0  0  0  0  0  0
    2.2190   12.4745   18.8151 O   0  0  0  0  0  0  0  0  0  0  0  0
    4.4716   11.6252   18.0719 O   0  0  0  0  0  0  0  0  0  0  0  0
    7.6180   13.3425   21.7774 O   0  0  0  0  0  0  0  0  0  0  0  0
    3.4906   11.8371   19.1269 S   0  0  0  0  0  0  0  0  0  0  0  0
    9.5751    9.5840   24.8544 H   0  0  0  0  0  0  0  0  0  0  0  0
    7.6005   10.8912   25.5959 H   0  0  0  0  0  0  0  0  0  0  0  0
   10.6217   10.0570   22.6564 H   0  0  0  0  0  0  0  0  0  0  0  0
    3.4768   14.7982   23.0057 H   0  0  0  0  0  0  0  0  0  0  0  0
    6.6727   12.6682   24.1441 H   0  0  0  0  0  0  0  0  0  0  0  0
    9.6982   11.8333   21.1983 H   0  0  0  0  0  0  0  0  0  0  0  0
    5.9334   14.7109   23.2967 H   0  0  0  0  0  0  0  0  0  0  0  0
    2.3950   13.5378   21.1757 H   0  0  0  0  0  0  0  0  0  0  0  0
    6.2463   12.0874   19.9051 H   0  0  0  0  0  0  0  0  0  0  0  0
    2.2105   10.1112   20.1289 H   0  0  0  0  0  0  0  0  0  0  0  0
    3.7507    9.5330   19.6219 H   0  0  0  0  0  0  0  0  0  0  0  0
  1  2  1  0  0  0  0
  1  3  2  0  0  0  0
  2  5  2  0  0  0  0
  3  6  1  0  0  0  0
  4  7  1  0  0  0  0
  4  8  2  0  0  0  0
  5 10  1  0  0  0  0
  6 10  2  0  0  0  0
  7 11  2  0  0  0  0
  8 12  1  0  0  0  0
  9 11  1  0  0  0  0
  9 12  2  0  0  0  0
 10 16  1  0  0  0  0
 11 16  1  0  0  0  0
 12 17  1  0  0  0  0
 13 17  1  0  0  0  0
 14 17  2  0  0  0  0
 15 17  2  0  0  0  0
  1 18  1  0  0  0  0
  2 19  1  0  0  0  0
  3 20  1  0  0  0  0
  4 21  1  0  0  0  0
  5 22  1  0  0  0  0
  6 23  1  0  0  0  0
  7 24  1  0  0  0  0
  8 25  1  0  0  0  0
  9 26  1  0  0  0  0
 13 27  1  0  0  0  0
 13 28  1  0  0  0  0
M  END
> <Mol Weight>
249,28

> <Formula>
C12H11NO3S

> <ID>
EN300-1723691

> <name>
Sulfonamides

> <LogP>
2,08

> <ROCS_ShapeQuery>
x0310_0A_x0719_0A_x1080_0A_x0739_0A_x0929_0A_x0526_0A_x0911_0A

> <ROCS_TanimotoCombo>
0.326 

> <ROCS_ShapeTanimoto>
0.206 

> <ROCS_ColorTanimoto>
0.120 

> <ROCS_RefTversky>
0.195 

> <ROCS_RefColorTversky>
0.134 

> <ROCS_RefTverskyCombo>
0.329 

> <ROCS_FitTversky>
1.389 

> <ROCS_FitColorTversky>
0.539 

> <ROCS_FitTverskyCombo>
1.928 

> <ROCS_ColorScore>
-3.891

> <ROCS_Overlap>
1563.311

> <ROCS_Rank>
156                 

$$$$
untitled-dbase-2138_10
  -OEChem-02092407103D

 30 31  0     0  0  0  0  0  0999 V2000
    8.6686   10.4521   24.7673 C   0  0  0  0  0  0  0  0  0  0  0  0
    9.7712   11.2855   24.5795 C   0  0  0  0  0  0  0  0  0  0  0  0
    7.5865   10.5186   23.8896 C   0  0  0  0  0  0  0  0  0  0  0  0
    9.3020   13.6369   19.2274 C   0  0  0  0  0  0  0  0  0  0  0  0
    8.8066   14.9342   19.3587 C   0  0  0  0  0  0  0  0  0  0  0  0
    9.7917   12.1855   23.5140 C   0  0  0  0  0  0  0  0  0  0  0  0
    7.6070   11.4186   22.8241 C   0  0  0  0  0  0  0  0  0  0  0  0
    9.2644   12.7626   20.3136 C   0  0  0  0  0  0  0  0  0  0  0  0
    8.2735   15.3572   20.5763 C   0  0  0  0  0  0  0  0  0  0  0  0
    8.7095   12.2521   22.6363 C   0  0  0  0  0  0  0  0  0  0  0  0
    8.7313   13.1856   21.5312 C   0  0  0  0  0  0  0  0  0  0  0  0
    8.2358   14.4829   21.6626 C   0  0  0  0  0  0  0  0  0  0  0  0
    5.3921   16.3955   22.1037 C   0  0  0  0  0  0  0  0  0  0  0  0
    5.8961   15.1974   22.7901 N   0  0  0  0  0  0  0  0  0  0  0  0
    7.7258   14.0352   24.1824 O   0  0  0  0  0  0  0  0  0  0  0  0
    8.0900   16.3986   23.4039 O   0  0  0  0  0  0  0  0  0  0  0  0
    7.5559   15.0659   23.1695 S   0  0  0  0  0  0  0  0  0  0  0  0
    8.6536    9.7502   25.5959 H   0  0  0  0  0  0  0  0  0  0  0  0
   10.6145   11.2326   25.2618 H   0  0  0  0  0  0  0  0  0  0  0  0
    6.7282    9.8689   24.0344 H   0  0  0  0  0  0  0  0  0  0  0  0
    9.7164   13.3076   18.2790 H   0  0  0  0  0  0  0  0  0  0  0  0
    8.8352   15.6146   18.5127 H   0  0  0  0  0  0  0  0  0  0  0  0
   10.6586   12.8284   23.3809 H   0  0  0  0  0  0  0  0  0  0  0  0
    6.7564   11.4588   22.1477 H   0  0  0  0  0  0  0  0  0  0  0  0
    9.6551   11.7549   20.1934 H   0  0  0  0  0  0  0  0  0  0  0  0
    7.8903   16.3704   20.6651 H   0  0  0  0  0  0  0  0  0  0  0  0
    6.2044   16.8531   21.5198 H   0  0  0  0  0  0  0  0  0  0  0  0
    4.5702   16.1130   21.4294 H   0  0  0  0  0  0  0  0  0  0  0  0
    5.0243   17.1169   22.8481 H   0  0  0  0  0  0  0  0  0  0  0  0
    5.2154   14.6891   23.3677 H   0  0  0  0  0  0  0  0  0  0  0  0
  1  2  1  0  0  0  0
  1  3  2  0  0  0  0
  2  6  2  0  0  0  0
  3  7  1  0  0  0  0
  4  5  1  0  0  0  0
  4  8  2  0  0  0  0
  5  9  2  0  0  0  0
  6 10  1  0  0  0  0
  7 10  2  0  0  0  0
  8 11  1  0  0  0  0
  9 12  1  0  0  0  0
 10 11  1  0  0  0  0
 11 12  2  0  0  0  0
 12 17  1  0  0  0  0
 13 14  1  0  0  0  0
 14 17  1  0  0  0  0
 15 17  2  0  0  0  0
 16 17  2  0  0  0  0
  1 18  1  0  0  0  0
  2 19  1  0  0  0  0
  3 20  1  0  0  0  0
  4 21  1  0  0  0  0
  5 22  1  0  0  0  0
  6 23  1  0  0  0  0
  7 24  1  0  0  0  0
  8 25  1  0  0  0  0
  9 26  1  0  0  0  0
 13 27  1  0  0  0  0
 13 28  1  0  0  0  0
 13 29  1  0  0  0  0
 14 30  1  0  0  0  0
M  END
> <Mol Weight>
247,31

> <Formula>
C13H13NO2S

> <ID>
EN300-6472711

> <name>
Sulfonamides

> <LogP>
2,45

> <ROCS_ShapeQuery>
x0310_0A_x0719_0A_x1080_0A_x0739_0A_x0929_0A_x0526_0A_x0911_0A

> <ROCS_TanimotoCombo>
0.326 

> <ROCS_ShapeTanimoto>
0.163 

> <ROCS_ColorTanimoto>
0.163 

> <ROCS_RefTversky>
0.160 

> <ROCS_RefColorTversky>
0.171 

> <ROCS_RefTverskyCombo>
0.331 

> <ROCS_FitTversky>
1.141 

> <ROCS_FitColorTversky>
0.791 

> <ROCS_FitTverskyCombo>
1.932 

> <ROCS_ColorScore>
-4.956

> <ROCS_Overlap>
1280.715

> <ROCS_Rank>
157                 

$$$$
untitled-dbase-2632_938
  -OEChem-02092407103D

 40 40  0     1  0  0  0  0  0999 V2000
   10.0861   10.5547   21.2973 C   0  0  0  0  0  0  0  0  0  0  0  0
    7.5204   10.7638   23.8402 C   0  0  0  0  0  0  0  0  0  0  0  0
    7.9351   12.0339   24.5851 C   0  0  0  0  0  0  0  0  0  0  0  0
    8.7375    9.9788   23.3591 C   0  0  0  0  0  0  0  0  0  0  0  0
   10.1001   12.0442   23.2852 C   0  0  0  0  0  0  0  0  0  0  0  0
    8.9212   12.8951   23.7783 C   0  0  1  0  0  0  0  0  0  0  0  0
   12.5380    9.2335   20.6390 C   0  0  0  0  0  0  0  0  0  0  0  0
   11.0969    7.2795   19.9954 C   0  0  0  0  0  0  0  0  0  0  0  0
   10.8717    9.4582   18.7662 C   0  0  0  0  0  0  0  0  0  0  0  0
    8.2287   13.6076   22.6128 C   0  0  0  0  0  0  0  0  0  0  0  0
   11.1705    8.8004   20.1126 C   0  0  0  0  0  0  0  0  0  0  0  0
    9.6415   10.8403   22.5910 N   0  0  0  0  0  0  0  0  0  0  0  0
    6.2806   15.2511   21.8680 N   0  0  0  0  0  0  0  0  0  0  0  0
   10.3726   11.4078   20.4593 O   0  0  0  0  0  0  0  0  0  0  0  0
    6.6011   14.6770   24.3548 O   0  0  0  0  0  0  0  0  0  0  0  0
    8.2911   16.1544   23.1943 O   0  0  0  0  0  0  0  0  0  0  0  0
   10.1700    9.2097   21.0521 O   0  0  0  0  0  0  0  0  0  0  0  0
    7.3636   15.0338   23.1683 S   0  0  0  0  0  0  0  0  0  0  0  0
    6.9130   10.1317   24.5000 H   0  0  0  0  0  0  0  0  0  0  0  0
    6.8912   11.0304   22.9835 H   0  0  0  0  0  0  0  0  0  0  0  0
    7.0326   12.6231   24.8237 H   0  0  0  0  0  0  0  0  0  0  0  0
    8.3839   11.7572   25.5536 H   0  0  0  0  0  0  0  0  0  0  0  0
    9.2446    9.5268   24.2164 H   0  0  0  0  0  0  0  0  0  0  0  0
    8.4279    9.1618   22.6961 H   0  0  0  0  0  0  0  0  0  0  0  0
   10.7200   12.6098   22.5745 H   0  0  0  0  0  0  0  0  0  0  0  0
   10.7479   11.7746   24.1298 H   0  0  0  0  0  0  0  0  0  0  0  0
    9.3257   13.6759   24.4523 H   0  0  0  0  0  0  0  0  0  0  0  0
   12.5949   10.3245   20.7246 H   0  0  0  0  0  0  0  0  0  0  0  0
   12.7495    8.7962   21.6203 H   0  0  0  0  0  0  0  0  0  0  0  0
   13.3352    8.9356   19.9483 H   0  0  0  0  0  0  0  0  0  0  0  0
   10.1174    6.9643   19.6180 H   0  0  0  0  0  0  0  0  0  0  0  0
   11.2165    6.8062   20.9766 H   0  0  0  0  0  0  0  0  0  0  0  0
   11.8690    6.8881   19.3251 H   0  0  0  0  0  0  0  0  0  0  0  0
    9.8909    9.1477   18.3883 H   0  0  0  0  0  0  0  0  0  0  0  0
   10.8838   10.5505   18.8394 H   0  0  0  0  0  0  0  0  0  0  0  0
   11.6050    9.1516   18.0115 H   0  0  0  0  0  0  0  0  0  0  0  0
    7.5064   12.9441   22.1413 H   0  0  0  0  0  0  0  0  0  0  0  0
    8.9639   13.9304   21.8783 H   0  0  0  0  0  0  0  0  0  0  0  0
    5.2877   15.0460   22.0347 H   0  0  0  0  0  0  0  0  0  0  0  0
    6.4388   16.0520   21.2442 H   0  0  0  0  0  0  0  0  0  0  0  0
  1 12  1  0  0  0  0
  1 14  2  0  0  0  0
  1 17  1  0  0  0  0
  2  3  1  0  0  0  0
  2  4  1  0  0  0  0
  3  6  1  0  0  0  0
  4 12  1  0  0  0  0
  5  6  1  0  0  0  0
  5 12  1  0  0  0  0
  6 10  1  6  0  0  0
  7 11  1  0  0  0  0
  8 11  1  0  0  0  0
  9 11  1  0  0  0  0
 10 18  1  0  0  0  0
 11 17  1  0  0  0  0
 13 18  1  0  0  0  0
 15 18  2  0  0  0  0
 16 18  2  0  0  0  0
  2 19  1  0  0  0  0
  2 20  1  0  0  0  0
  3 21  1  0  0  0  0
  3 22  1  0  0  0  0
  4 23  1  0  0  0  0
  4 24  1  0  0  0  0
  5 25  1  0  0  0  0
  5 26  1  0  0  0  0
  6 27  1  0  0  0  0
  7 28  1  0  0  0  0
  7 29  1  0  0  0  0
  7 30  1  0  0  0  0
  8 31  1  0  0  0  0
  8 32  1  0  0  0  0
  8 33  1  0  0  0  0
  9 34  1  0  0  0  0
  9 35  1  0  0  0  0
  9 36  1  0  0  0  0
 10 37  1  0  0  0  0
 10 38  1  0  0  0  0
 13 39  1  0  0  0  0
 13 40  1  0  0  0  0
M  END
> <Mol Weight>
278,37

> <Formula>
C11H22N2O4S

> <ID>
EN300-28309212

> <name>
Sulfonamides

> <LogP>
0,05

> <ROCS_ShapeQuery>
x0310_0A_x0719_0A_x1080_0A_x0739_0A_x0929_0A_x0526_0A_x0911_0A

> <ROCS_TanimotoCombo>
0.326 

> <ROCS_ShapeTanimoto>
0.171 

> <ROCS_ColorTanimoto>
0.155 

> <ROCS_RefTversky>
0.167 

> <ROCS_RefColorTversky>
0.167 

> <ROCS_RefTverskyCombo>
0.334 

> <ROCS_FitTversky>
1.186 

> <ROCS_FitColorTversky>
0.673 

> <ROCS_FitTverskyCombo>
1.859 

> <ROCS_ColorScore>
-4.855

> <ROCS_Overlap>
1338.598

> <ROCS_Rank>
158                 

$$$$
untitled-dbase-2563_65
  -OEChem-02092407103D

 34 34  0     0  0  0  0  0  0999 V2000
    4.5421   11.3356   18.7768 C   0  0  0  0  0  0  0  0  0  0  0  0
    3.8193   12.4029   20.8201 C   0  0  0  0  0  0  0  0  0  0  0  0
    3.3288   11.6676   18.1741 C   0  0  0  0  0  0  0  0  0  0  0  0
    2.6059   12.7350   20.2175 C   0  0  0  0  0  0  0  0  0  0  0  0
    4.7873   11.7032   20.0999 C   0  0  0  0  0  0  0  0  0  0  0  0
    2.3607   12.3673   18.8944 C   0  0  0  0  0  0  0  0  0  0  0  0
    6.9636   12.2199   21.2433 C   0  0  0  0  0  0  0  0  0  0  0  0
    8.5303   13.0154   23.4999 C   0  0  0  0  0  0  0  0  0  0  0  0
   10.1158   11.1943   22.8080 C   0  0  0  0  0  0  0  0  0  0  0  0
    9.6821   13.1279   21.2648 C   0  0  0  0  0  0  0  0  0  0  0  0
    9.0799   12.2072   22.3253 C   0  0  0  0  0  0  0  0  0  0  0  0
   -0.0991   11.4092   18.5250 N   0  0  0  0  0  0  0  0  0  0  0  0
    6.0169   11.3667   20.7106 N   0  0  0  0  0  0  0  0  0  0  0  0
    6.9273   13.4434   21.2926 O   0  0  0  0  0  0  0  0  0  0  0  0
    0.2879   13.9397   18.8292 O   0  0  0  0  0  0  0  0  0  0  0  0
    1.0380   12.8253   16.6978 O   0  0  0  0  0  0  0  0  0  0  0  0
    8.0051   11.4754   21.7348 O   0  0  0  0  0  0  0  0  0  0  0  0
    0.8418   12.7826   18.1402 S   0  0  0  0  0  0  0  0  0  0  0  0
    5.2892   10.7900   18.2060 H   0  0  0  0  0  0  0  0  0  0  0  0
    3.9996   12.6947   21.8517 H   0  0  0  0  0  0  0  0  0  0  0  0
    3.1480   11.3761   17.1430 H   0  0  0  0  0  0  0  0  0  0  0  0
    1.8587   13.2804   20.7877 H   0  0  0  0  0  0  0  0  0  0  0  0
    7.7864   13.7437   23.1576 H   0  0  0  0  0  0  0  0  0  0  0  0
    8.0645   12.3694   24.2512 H   0  0  0  0  0  0  0  0  0  0  0  0
    9.3266   13.5916   23.9847 H   0  0  0  0  0  0  0  0  0  0  0  0
   10.5128   10.6121   21.9685 H   0  0  0  0  0  0  0  0  0  0  0  0
    9.6639   10.4724   23.4978 H   0  0  0  0  0  0  0  0  0  0  0  0
   10.9525   11.6834   23.3171 H   0  0  0  0  0  0  0  0  0  0  0  0
   10.0764   12.5484   20.4222 H   0  0  0  0  0  0  0  0  0  0  0  0
    8.9427   13.8377   20.8801 H   0  0  0  0  0  0  0  0  0  0  0  0
   10.5274   13.6929   21.6740 H   0  0  0  0  0  0  0  0  0  0  0  0
   -0.8453   11.5165   19.2229 H   0  0  0  0  0  0  0  0  0  0  0  0
   -0.3304   10.7556   17.7670 H   0  0  0  0  0  0  0  0  0  0  0  0
    6.2309   10.3738   20.7645 H   0  0  0  0  0  0  0  0  0  0  0  0
  1  3  2  0  0  0  0
  1  5  1  0  0  0  0
  2  4  1  0  0  0  0
  2  5  2  0  0  0  0
  3  6  1  0  0  0  0
  4  6  2  0  0  0  0
  5 13  1  0  0  0  0
  6 18  1  0  0  0  0
  7 13  1  0  0  0  0
  7 14  2  0  0  0  0
  7 17  1  0  0  0  0
  8 11  1  0  0  0  0
  9 11  1  0  0  0  0
 10 11  1  0  0  0  0
 11 17  1  0  0  0  0
 12 18  1  0  0  0  0
 15 18  2  0  0  0  0
 16 18  2  0  0  0  0
  1 19  1  0  0  0  0
  2 20  1  0  0  0  0
  3 21  1  0  0  0  0
  4 22  1  0  0  0  0
  8 23  1  0  0  0  0
  8 24  1  0  0  0  0
  8 25  1  0  0  0  0
  9 26  1  0  0  0  0
  9 27  1  0  0  0  0
  9 28  1  0  0  0  0
 10 29  1  0  0  0  0
 10 30  1  0  0  0  0
 10 31  1  0  0  0  0
 12 32  1  0  0  0  0
 12 33  1  0  0  0  0
 13 34  1  0  0  0  0
M  END
> <Mol Weight>
272,32

> <Formula>
C11H16N2O4S

> <ID>
EN300-1878555

> <name>
Sulfonamides

> <LogP>
1,49

> <ROCS_ShapeQuery>
x0310_0A_x0719_0A_x1080_0A_x0739_0A_x0929_0A_x0526_0A_x0911_0A

> <ROCS_TanimotoCombo>
0.326 

> <ROCS_ShapeTanimoto>
0.212 

> <ROCS_ColorTanimoto>
0.114 

> <ROCS_RefTversky>
0.200 

> <ROCS_RefColorTversky>
0.131 

> <ROCS_RefTverskyCombo>
0.331 

> <ROCS_FitTversky>
1.394 

> <ROCS_FitColorTversky>
0.468 

> <ROCS_FitTverskyCombo>
1.862 

> <ROCS_ColorScore>
-3.819

> <ROCS_Overlap>
1601.783

> <ROCS_Rank>
159                 

$$$$
untitled-dbase-2719_128
  -OEChem-02092407103D

 30 31  0     0  0  0  0  0  0999 V2000
    8.7057    9.9202   23.9172 C   0  0  0  0  0  0  0  0  0  0  0  0
    7.6452   10.7591   24.2463 C   0  0  0  0  0  0  0  0  0  0  0  0
    9.8131   10.4280   23.2373 C   0  0  0  0  0  0  0  0  0  0  0  0
    7.6879   12.1091   23.8969 C   0  0  0  0  0  0  0  0  0  0  0  0
   11.0225   13.6625   21.8436 C   0  0  0  0  0  0  0  0  0  0  0  0
    9.9619   14.5014   22.1727 C   0  0  0  0  0  0  0  0  0  0  0  0
    9.8731   11.7843   22.8776 C   0  0  0  0  0  0  0  0  0  0  0  0
    8.7946   12.6373   23.2123 C   0  0  0  0  0  0  0  0  0  0  0  0
   10.9797   12.3125   22.1931 C   0  0  0  0  0  0  0  0  0  0  0  0
    8.8545   13.9936   22.8526 C   0  0  0  0  0  0  0  0  0  0  0  0
   13.1035   11.4284   22.7962 C   0  0  0  0  0  0  0  0  0  0  0  0
   13.7976   10.0950   22.6457 C   0  0  0  0  0  0  0  0  0  0  0  0
    6.6034   14.9805   21.8216 N   0  0  0  0  0  0  0  0  0  0  0  0
    6.8324   14.6248   24.3645 O   0  0  0  0  0  0  0  0  0  0  0  0
    8.1441   16.4671   23.2543 O   0  0  0  0  0  0  0  0  0  0  0  0
   12.0440   11.5288   21.8491 O   0  0  0  0  0  0  0  0  0  0  0  0
   12.8849    9.1255   22.3922 F   0  0  0  0  0  0  0  0  0  0  0  0
   14.6437   10.1313   21.5874 F   0  0  0  0  0  0  0  0  0  0  0  0
    7.5686   15.1338   23.2205 S   0  0  0  0  0  0  0  0  0  0  0  0
    8.6714    8.8692   24.1891 H   0  0  0  0  0  0  0  0  0  0  0  0
    6.7836   10.3626   24.7758 H   0  0  0  0  0  0  0  0  0  0  0  0
   10.6242    9.7452   22.9949 H   0  0  0  0  0  0  0  0  0  0  0  0
    6.8369   12.7248   24.1756 H   0  0  0  0  0  0  0  0  0  0  0  0
   11.8815   14.0655   21.3138 H   0  0  0  0  0  0  0  0  0  0  0  0
   10.0099   15.5507   21.8927 H   0  0  0  0  0  0  0  0  0  0  0  0
   12.6777   11.5404   23.7974 H   0  0  0  0  0  0  0  0  0  0  0  0
   13.7997   12.2498   22.6057 H   0  0  0  0  0  0  0  0  0  0  0  0
   14.3632    9.8227   23.5409 H   0  0  0  0  0  0  0  0  0  0  0  0
    5.6976   14.5045   21.9132 H   0  0  0  0  0  0  0  0  0  0  0  0
    6.5960   15.7623   21.1553 H   0  0  0  0  0  0  0  0  0  0  0  0
  1  2  1  0  0  0  0
  1  3  2  0  0  0  0
  2  4  2  0  0  0  0
  3  7  1  0  0  0  0
  4  8  1  0  0  0  0
  5  6  2  0  0  0  0
  5  9  1  0  0  0  0
  6 10  1  0  0  0  0
  7  8  1  0  0  0  0
  7  9  2  0  0  0  0
  8 10  2  0  0  0  0
  9 16  1  0  0  0  0
 10 19  1  0  0  0  0
 11 12  1  0  0  0  0
 11 16  1  0  0  0  0
 12 17  1  0  0  0  0
 12 18  1  0  0  0  0
 13 19  1  0  0  0  0
 14 19  2  0  0  0  0
 15 19  2  0  0  0  0
  1 20  1  0  0  0  0
  2 21  1  0  0  0  0
  3 22  1  0  0  0  0
  4 23  1  0  0  0  0
  5 24  1  0  0  0  0
  6 25  1  0  0  0  0
 11 26  1  0  0  0  0
 11 27  1  0  0  0  0
 12 28  1  0  0  0  0
 13 29  1  0  0  0  0
 13 30  1  0  0  0  0
M  END
> <Mol Weight>
287,28

> <Formula>
C12H11F2NO3S

> <ID>
EN300-372008

> <name>
Sulfonamides

> <LogP>
1,88

> <ROCS_ShapeQuery>
x0310_0A_x0719_0A_x1080_0A_x0739_0A_x0929_0A_x0526_0A_x0911_0A

> <ROCS_TanimotoCombo>
0.326 

> <ROCS_ShapeTanimoto>
0.175 

> <ROCS_ColorTanimoto>
0.150 

> <ROCS_RefTversky>
0.172 

> <ROCS_RefColorTversky>
0.163 

> <ROCS_RefTverskyCombo>
0.335 

> <ROCS_FitTversky>
1.135 

> <ROCS_FitColorTversky>
0.656 

> <ROCS_FitTverskyCombo>
1.791 

> <ROCS_ColorScore>
-4.741

> <ROCS_Overlap>
1378.589

> <ROCS_Rank>
160                 

$$$$
untitled-dbase-2835_65
  -OEChem-02092407103D

 38 39  0     0  0  0  0  0  0999 V2000
    5.6664   13.3892   21.4051 B   0  0  0  0  0  0  0  0  0  0  0  0
    4.7256   12.1338   19.3706 C   0  0  0  0  0  0  0  0  0  0  0  0
    3.1657   13.2674   20.8260 C   0  0  0  0  0  0  0  0  0  0  0  0
    2.3584   12.0652   18.8921 C   0  0  0  0  0  0  0  0  0  0  0  0
    4.4747   12.9124   20.5003 C   0  0  0  0  0  0  0  0  0  0  0  0
    3.6675   11.7101   18.5664 C   0  0  0  0  0  0  0  0  0  0  0  0
    2.1075   12.8438   20.0219 C   0  0  0  0  0  0  0  0  0  0  0  0
    6.8313   14.5706   22.9837 C   0  0  0  0  0  0  0  0  0  0  0  0
    7.7676   13.5139   22.3077 C   0  0  0  0  0  0  0  0  0  0  0  0
    6.3623   14.2049   24.4100 C   0  0  0  0  0  0  0  0  0  0  0  0
    7.3993   15.9962   23.0258 C   0  0  0  0  0  0  0  0  0  0  0  0
    8.5466   12.6270   23.2891 C   0  0  0  0  0  0  0  0  0  0  0  0
    8.7760   14.0953   21.2913 C   0  0  0  0  0  0  0  0  0  0  0  0
    0.7219   14.2056   21.8468 N   0  0  0  0  0  0  0  0  0  0  0  0
   -0.0416   14.1662   19.3849 O   0  0  0  0  0  0  0  0  0  0  0  0
   -0.2647   12.0791   20.7783 O   0  0  0  0  0  0  0  0  0  0  0  0
    5.6413   14.5801   22.1309 O   0  0  0  0  0  0  0  0  0  0  0  0
    6.8459   12.6600   21.5561 O   0  0  0  0  0  0  0  0  0  0  0  0
    3.9116   10.9503   17.4637 O   0  0  0  0  0  0  0  0  0  0  0  0
    0.4682   13.2877   20.4282 S   0  0  0  0  0  0  0  0  0  0  0  0
    5.7395   11.8451   19.0978 H   0  0  0  0  0  0  0  0  0  0  0  0
    2.9523   13.8751   21.7041 H   0  0  0  0  0  0  0  0  0  0  0  0
    1.5369   11.7325   18.2624 H   0  0  0  0  0  0  0  0  0  0  0  0
    5.7246   14.9962   24.7836 H   0  0  0  0  0  0  0  0  0  0  0  0
    7.2305   14.0964   25.0479 H   0  0  0  0  0  0  0  0  0  0  0  0
    5.8123   13.2730   24.3706 H   0  0  0  0  0  0  0  0  0  0  0  0
    6.6846   16.6555   23.5097 H   0  0  0  0  0  0  0  0  0  0  0  0
    7.5835   16.3415   22.0127 H   0  0  0  0  0  0  0  0  0  0  0  0
    8.3305   15.9975   23.5848 H   0  0  0  0  0  0  0  0  0  0  0  0
    9.1654   11.9292   22.7324 H   0  0  0  0  0  0  0  0  0  0  0  0
    7.8472   12.0756   23.9108 H   0  0  0  0  0  0  0  0  0  0  0  0
    9.1770   13.2502   23.9168 H   0  0  0  0  0  0  0  0  0  0  0  0
    9.3705   13.2867   20.8850 H   0  0  0  0  0  0  0  0  0  0  0  0
    9.4152   14.8067   21.7989 H   0  0  0  0  0  0  0  0  0  0  0  0
    8.2292   14.5886   20.4975 H   0  0  0  0  0  0  0  0  0  0  0  0
    0.5865   15.2226   21.7933 H   0  0  0  0  0  0  0  0  0  0  0  0
    0.4356   13.7953   22.7440 H   0  0  0  0  0  0  0  0  0  0  0  0
    4.8639   10.7881   17.3713 H   0  0  0  0  0  0  0  0  0  0  0  0
  1  5  1  0  0  0  0
  1 17  1  0  0  0  0
  1 18  1  0  0  0  0
  2  5  1  0  0  0  0
  2  6  2  0  0  0  0
  3  5  2  0  0  0  0
  3  7  1  0  0  0  0
  4  6  1  0  0  0  0
  4  7  2  0  0  0  0
  6 19  1  0  0  0  0
  7 20  1  0  0  0  0
  8  9  1  0  0  0  0
  8 10  1  0  0  0  0
  8 11  1  0  0  0  0
  8 17  1  0  0  0  0
  9 12  1  0  0  0  0
  9 13  1  0  0  0  0
  9 18  1  0  0  0  0
 14 20  1  0  0  0  0
 15 20  2  0  0  0  0
 16 20  2  0  0  0  0
  2 21  1  0  0  0  0
  3 22  1  0  0  0  0
  4 23  1  0  0  0  0
 10 24  1  0  0  0  0
 10 25  1  0  0  0  0
 10 26  1  0  0  0  0
 11 27  1  0  0  0  0
 11 28  1  0  0  0  0
 11 29  1  0  0  0  0
 12 30  1  0  0  0  0
 12 31  1  0  0  0  0
 12 32  1  0  0  0  0
 13 33  1  0  0  0  0
 13 34  1  0  0  0  0
 13 35  1  0  0  0  0
 14 36  1  0  0  0  0
 14 37  1  0  0  0  0
 19 38  1  0  0  0  0
M  END
> <Mol Weight>
299,15

> <Formula>
C12H18BNO5S

> <ID>
EN300-25779148

> <name>
Sulfonamides

> <LogP>
2,25

> <ROCS_ShapeQuery>
x0310_0A_x0719_0A_x1080_0A_x0739_0A_x0929_0A_x0526_0A_x0911_0A

> <ROCS_TanimotoCombo>
0.326 

> <ROCS_ShapeTanimoto>
0.219 

> <ROCS_ColorTanimoto>
0.106 

> <ROCS_RefTversky>
0.208 

> <ROCS_RefColorTversky>
0.129 

> <ROCS_RefTverskyCombo>
0.337 

> <ROCS_FitTversky>
1.344 

> <ROCS_FitColorTversky>
0.375 

> <ROCS_FitTverskyCombo>
1.719 

> <ROCS_ColorScore>
-3.780

> <ROCS_Overlap>
1664.833

> <ROCS_Rank>
161                 

$$$$
untitled-dbase-2769_17
  -OEChem-02092407103D

 43 43  0     1  0  0  0  0  0999 V2000
    6.2245   11.7753   20.8731 C   0  0  0  0  0  0  0  0  0  0  0  0
    9.1881    9.6737   23.4912 C   0  0  0  0  0  0  0  0  0  0  0  0
    9.5854   10.4575   24.7376 C   0  0  0  0  0  0  0  0  0  0  0  0
    7.9526   10.2728   22.8270 C   0  0  0  0  0  0  0  0  0  0  0  0
    9.7921   11.9361   24.4243 C   0  0  0  0  0  0  0  0  0  0  0  0
    8.1428   11.7585   22.5104 C   0  0  2  0  0  0  0  0  0  0  0  0
    8.5614   12.5534   23.7539 C   0  0  2  0  0  0  0  0  0  0  0  0
    3.8946   10.5931   19.7226 C   0  0  0  0  0  0  0  0  0  0  0  0
    3.0669   12.9475   19.4378 C   0  0  0  0  0  0  0  0  0  0  0  0
    5.1540   12.2038   18.2548 C   0  0  0  0  0  0  0  0  0  0  0  0
    8.8604   15.4154   25.6066 C   0  0  0  0  0  0  0  0  0  0  0  0
    4.3011   12.0511   19.5134 C   0  0  0  0  0  0  0  0  0  0  0  0
    6.8591   12.2890   21.9803 N   0  0  0  0  0  0  0  0  0  0  0  0
    8.8930   13.9506   23.3641 N   0  0  0  0  0  0  0  0  0  0  0  0
    6.6173   10.8359   20.1892 O   0  0  0  0  0  0  0  0  0  0  0  0
    6.6534   14.7893   24.3467 O   0  0  0  0  0  0  0  0  0  0  0  0
    8.2528   16.4179   23.2762 O   0  0  0  0  0  0  0  0  0  0  0  0
    5.0738   12.4752   20.6420 O   0  0  0  0  0  0  0  0  0  0  0  0
    8.0069   15.2218   24.0587 S   0  0  0  0  0  0  0  0  0  0  0  0
   10.0211    9.6698   22.7807 H   0  0  0  0  0  0  0  0  0  0  0  0
    8.9948    8.6298   23.7614 H   0  0  0  0  0  0  0  0  0  0  0  0
    8.8082   10.3488   25.5011 H   0  0  0  0  0  0  0  0  0  0  0  0
   10.5050   10.0347   25.1569 H   0  0  0  0  0  0  0  0  0  0  0  0
    7.7576    9.7340   21.8957 H   0  0  0  0  0  0  0  0  0  0  0  0
    7.0774   10.1222   23.4633 H   0  0  0  0  0  0  0  0  0  0  0  0
    9.9910   12.4682   25.3574 H   0  0  0  0  0  0  0  0  0  0  0  0
   10.6732   12.0531   23.7909 H   0  0  0  0  0  0  0  0  0  0  0  0
    8.8529   11.8726   21.7103 H   0  0  0  0  0  0  0  0  0  0  0  0
    7.7441   12.6081   24.4722 H   0  0  0  0  0  0  0  0  0  0  0  0
    4.7777    9.9464   19.7774 H   0  0  0  0  0  0  0  0  0  0  0  0
    3.3119   10.4645   20.6406 H   0  0  0  0  0  0  0  0  0  0  0  0
    3.2967   10.2290   18.8793 H   0  0  0  0  0  0  0  0  0  0  0  0
    3.3539   13.9946   19.2878 H   0  0  0  0  0  0  0  0  0  0  0  0
    2.5020   12.9137   20.3764 H   0  0  0  0  0  0  0  0  0  0  0  0
    2.4010   12.6501   18.6213 H   0  0  0  0  0  0  0  0  0  0  0  0
    5.4456   13.2496   18.1046 H   0  0  0  0  0  0  0  0  0  0  0  0
    6.0628   11.5957   18.3073 H   0  0  0  0  0  0  0  0  0  0  0  0
    4.5889   11.9092   17.3631 H   0  0  0  0  0  0  0  0  0  0  0  0
    8.3811   16.2204   26.1659 H   0  0  0  0  0  0  0  0  0  0  0  0
    8.7938   14.4754   26.1565 H   0  0  0  0  0  0  0  0  0  0  0  0
    9.9020   15.6629   25.3968 H   0  0  0  0  0  0  0  0  0  0  0  0
    6.4290   13.0702   22.4597 H   0  0  0  0  0  0  0  0  0  0  0  0
    9.8907   14.0928   23.2010 H   0  0  0  0  0  0  0  0  0  0  0  0
  1 13  1  0  0  0  0
  1 15  2  0  0  0  0
  1 18  1  0  0  0  0
  2  3  1  0  0  0  0
  2  4  1  0  0  0  0
  3  5  1  0  0  0  0
  4  6  1  0  0  0  0
  5  7  1  0  0  0  0
  6  7  1  0  0  0  0
  6 13  1  6  0  0  0
  7 14  1  1  0  0  0
  8 12  1  0  0  0  0
  9 12  1  0  0  0  0
 10 12  1  0  0  0  0
 11 19  1  0  0  0  0
 12 18  1  0  0  0  0
 14 19  1  0  0  0  0
 16 19  2  0  0  0  0
 17 19  2  0  0  0  0
  2 20  1  0  0  0  0
  2 21  1  0  0  0  0
  3 22  1  0  0  0  0
  3 23  1  0  0  0  0
  4 24  1  0  0  0  0
  4 25  1  0  0  0  0
  5 26  1  0  0  0  0
  5 27  1  0  0  0  0
  6 28  1  0  0  0  0
  7 29  1  0  0  0  0
  8 30  1  0  0  0  0
  8 31  1  0  0  0  0
  8 32  1  0  0  0  0
  9 33  1  0  0  0  0
  9 34  1  0  0  0  0
  9 35  1  0  0  0  0
 10 36  1  0  0  0  0
 10 37  1  0  0  0  0
 10 38  1  0  0  0  0
 11 39  1  0  0  0  0
 11 40  1  0  0  0  0
 11 41  1  0  0  0  0
 13 42  1  0  0  0  0
 14 43  1  0  0  0  0
M  END
> <Mol Weight>
292,39

> <Formula>
C12H24N2O4S

> <ID>
EN300-332186

> <name>
Sulfonamides

> <LogP>
0,80

> <ROCS_ShapeQuery>
x0310_0A_x0719_0A_x1080_0A_x0739_0A_x0929_0A_x0526_0A_x0911_0A

> <ROCS_TanimotoCombo>
0.325 

> <ROCS_ShapeTanimoto>
0.202 

> <ROCS_ColorTanimoto>
0.123 

> <ROCS_RefTversky>
0.193 

> <ROCS_RefColorTversky>
0.141 

> <ROCS_RefTverskyCombo>
0.333 

> <ROCS_FitTversky>
1.325 

> <ROCS_FitColorTversky>
0.501 

> <ROCS_FitTverskyCombo>
1.825 

> <ROCS_ColorScore>
-4.090

> <ROCS_Overlap>
1544.000

> <ROCS_Rank>
162                 

$$$$
untitled-dbase-2834_73
  -OEChem-02092407103D

 38 39  0     0  0  0  0  0  0999 V2000
    5.4433   13.0802   20.9151 B   0  0  0  0  0  0  0  0  0  0  0  0
    4.7090   11.3721   19.1561 C   0  0  0  0  0  0  0  0  0  0  0  0
    3.7308   10.7410   18.3876 C   0  0  0  0  0  0  0  0  0  0  0  0
    3.0115   12.7485   20.1863 C   0  0  0  0  0  0  0  0  0  0  0  0
    4.3493   12.3758   20.0555 C   0  0  0  0  0  0  0  0  0  0  0  0
    2.3931   11.1137   18.5183 C   0  0  0  0  0  0  0  0  0  0  0  0
    2.0334   12.1175   19.4177 C   0  0  0  0  0  0  0  0  0  0  0  0
    7.4570   13.4834   21.9129 C   0  0  0  0  0  0  0  0  0  0  0  0
    6.4387   14.6157   22.2805 C   0  0  0  0  0  0  0  0  0  0  0  0
    8.8108   13.9845   21.3904 C   0  0  0  0  0  0  0  0  0  0  0  0
    7.7324   12.4660   23.0432 C   0  0  0  0  0  0  0  0  0  0  0  0
    6.6628   15.9551   21.5425 C   0  0  0  0  0  0  0  0  0  0  0  0
    6.3316   14.9179   23.7819 C   0  0  0  0  0  0  0  0  0  0  0  0
   -0.3975   11.5640   18.4748 N   0  0  0  0  0  0  0  0  0  0  0  0
   -0.0745   12.2512   20.9383 O   0  0  0  0  0  0  0  0  0  0  0  0
    0.2314   13.9756   19.1271 O   0  0  0  0  0  0  0  0  0  0  0  0
    6.7940   12.7522   20.8303 O   0  0  0  0  0  0  0  0  0  0  0  0
    5.1485   14.0884   21.8294 O   0  0  0  0  0  0  0  0  0  0  0  0
    1.4544   10.4843   17.7573 O   0  0  0  0  0  0  0  0  0  0  0  0
    0.3627   12.6043   19.5960 S   0  0  0  0  0  0  0  0  0  0  0  0
    5.7446   11.0608   19.0332 H   0  0  0  0  0  0  0  0  0  0  0  0
    4.0177    9.9583   17.6905 H   0  0  0  0  0  0  0  0  0  0  0  0
    2.7146   13.5314   20.8827 H   0  0  0  0  0  0  0  0  0  0  0  0
    9.4384   13.1310   21.1665 H   0  0  0  0  0  0  0  0  0  0  0  0
    9.2763   14.5970   22.1524 H   0  0  0  0  0  0  0  0  0  0  0  0
    8.6465   14.5692   20.4939 H   0  0  0  0  0  0  0  0  0  0  0  0
    8.4459   11.7246   22.6958 H   0  0  0  0  0  0  0  0  0  0  0  0
    6.8045   11.9746   23.3207 H   0  0  0  0  0  0  0  0  0  0  0  0
    8.1399   12.9858   23.9055 H   0  0  0  0  0  0  0  0  0  0  0  0
    5.9127   16.6730   21.8613 H   0  0  0  0  0  0  0  0  0  0  0  0
    6.5800   15.7954   20.4714 H   0  0  0  0  0  0  0  0  0  0  0  0
    7.6525   16.3357   21.7774 H   0  0  0  0  0  0  0  0  0  0  0  0
    5.6073   15.7091   23.9298 H   0  0  0  0  0  0  0  0  0  0  0  0
    7.3017   15.2305   24.1470 H   0  0  0  0  0  0  0  0  0  0  0  0
    6.0121   14.0215   24.2983 H   0  0  0  0  0  0  0  0  0  0  0  0
   -0.9725   10.7966   18.8434 H   0  0  0  0  0  0  0  0  0  0  0  0
   -0.7612   11.9752   17.6065 H   0  0  0  0  0  0  0  0  0  0  0  0
    0.5731   10.8409   17.9498 H   0  0  0  0  0  0  0  0  0  0  0  0
  1  5  1  0  0  0  0
  1 17  1  0  0  0  0
  1 18  1  0  0  0  0
  2  3  2  0  0  0  0
  2  5  1  0  0  0  0
  3  6  1  0  0  0  0
  4  5  2  0  0  0  0
  4  7  1  0  0  0  0
  6  7  2  0  0  0  0
  6 19  1  0  0  0  0
  7 20  1  0  0  0  0
  8  9  1  0  0  0  0
  8 10  1  0  0  0  0
  8 11  1  0  0  0  0
  8 17  1  0  0  0  0
  9 12  1  0  0  0  0
  9 13  1  0  0  0  0
  9 18  1  0  0  0  0
 14 20  1  0  0  0  0
 15 20  2  0  0  0  0
 16 20  2  0  0  0  0
  2 21  1  0  0  0  0
  3 22  1  0  0  0  0
  4 23  1  0  0  0  0
 10 24  1  0  0  0  0
 10 25  1  0  0  0  0
 10 26  1  0  0  0  0
 11 27  1  0  0  0  0
 11 28  1  0  0  0  0
 11 29  1  0  0  0  0
 12 30  1  0  0  0  0
 12 31  1  0  0  0  0
 12 32  1  0  0  0  0
 13 33  1  0  0  0  0
 13 34  1  0  0  0  0
 13 35  1  0  0  0  0
 14 36  1  0  0  0  0
 14 37  1  0  0  0  0
 19 38  1  0  0  0  0
M  END
> <Mol Weight>
299,15

> <Formula>
C12H18BNO5S

> <ID>
EN300-12604810

> <name>
Sulfonamides

> <LogP>
2,25

> <ROCS_ShapeQuery>
x0310_0A_x0719_0A_x1080_0A_x0739_0A_x0929_0A_x0526_0A_x0911_0A

> <ROCS_TanimotoCombo>
0.325 

> <ROCS_ShapeTanimoto>
0.216 

> <ROCS_ColorTanimoto>
0.109 

> <ROCS_RefTversky>
0.205 

> <ROCS_RefColorTversky>
0.132 

> <ROCS_RefTverskyCombo>
0.337 

> <ROCS_FitTversky>
1.327 

> <ROCS_FitColorTversky>
0.383 

> <ROCS_FitTverskyCombo>
1.710 

> <ROCS_ColorScore>
-3.856

> <ROCS_Overlap>
1648.072

> <ROCS_Rank>
163                 

$$$$
untitled-dbase-1659_11
  -OEChem-02092407103D

 32 32  0     1  0  0  0  0  0999 V2000
    9.6031   10.4681   24.3202 C   0  0  0  0  0  0  0  0  0  0  0  0
    8.2326   10.5713   24.5577 C   0  0  0  0  0  0  0  0  0  0  0  0
   10.2134   11.3021   23.3833 C   0  0  0  0  0  0  0  0  0  0  0  0
    7.4721   11.5084   23.8583 C   0  0  0  0  0  0  0  0  0  0  0  0
    9.4529   12.2392   22.6838 C   0  0  0  0  0  0  0  0  0  0  0  0
    8.0823   12.3424   22.9213 C   0  0  0  0  0  0  0  0  0  0  0  0
    7.8467   12.4171   19.8626 C   0  0  0  0  0  0  0  0  0  0  0  0
    6.9387   14.7281   20.0256 C   0  0  0  0  0  0  0  0  0  0  0  0
    4.4326   14.8552   22.5005 C   0  0  0  0  0  0  0  0  0  0  0  0
    7.2592   13.3574   22.1632 C   0  0  2  0  0  0  0  0  0  0  0  0
    7.7958   13.6751   20.7422 C   0  0  0  0  0  0  0  0  0  0  0  0
    5.7330   15.5456   22.4312 N   0  0  0  0  0  0  0  0  0  0  0  0
    6.7772   14.4122   24.5096 O   0  0  0  0  0  0  0  0  0  0  0  0
    8.2561   15.6559   22.8902 O   0  0  0  0  0  0  0  0  0  0  0  0
    7.0984   14.8293   23.1611 S   0  0  0  0  0  0  0  0  0  0  0  0
   10.1953    9.7393   24.8659 H   0  0  0  0  0  0  0  0  0  0  0  0
    7.7574    9.9228   25.2880 H   0  0  0  0  0  0  0  0  0  0  0  0
   11.2806   11.2228   23.1989 H   0  0  0  0  0  0  0  0  0  0  0  0
    6.4048   11.5816   24.0498 H   0  0  0  0  0  0  0  0  0  0  0  0
    9.9369   12.8847   21.9556 H   0  0  0  0  0  0  0  0  0  0  0  0
    6.8497   11.9751   19.7580 H   0  0  0  0  0  0  0  0  0  0  0  0
    8.5079   11.6587   20.2957 H   0  0  0  0  0  0  0  0  0  0  0  0
    8.2024   12.6443   18.8530 H   0  0  0  0  0  0  0  0  0  0  0  0
    5.9024   14.3902   19.9185 H   0  0  0  0  0  0  0  0  0  0  0  0
    7.3314   14.9334   19.0236 H   0  0  0  0  0  0  0  0  0  0  0  0
    6.9358   15.6795   20.5652 H   0  0  0  0  0  0  0  0  0  0  0  0
    4.3431   14.3368   23.4666 H   0  0  0  0  0  0  0  0  0  0  0  0
    3.6211   15.5914   22.4030 H   0  0  0  0  0  0  0  0  0  0  0  0
    4.3628   14.1222   21.6833 H   0  0  0  0  0  0  0  0  0  0  0  0
    6.2277   12.9911   22.0681 H   0  0  0  0  0  0  0  0  0  0  0  0
    8.8146   14.0771   20.8147 H   0  0  0  0  0  0  0  0  0  0  0  0
    5.8886   16.0550   21.5516 H   0  0  0  0  0  0  0  0  0  0  0  0
  1  2  1  0  0  0  0
  1  3  2  0  0  0  0
  2  4  2  0  0  0  0
  3  5  1  0  0  0  0
  4  6  1  0  0  0  0
  5  6  2  0  0  0  0
  6 10  1  0  0  0  0
  7 11  1  0  0  0  0
  8 11  1  0  0  0  0
  9 12  1  0  0  0  0
 10 11  1  0  0  0  0
 10 15  1  0  0  0  0
 12 15  1  0  0  0  0
 13 15  2  0  0  0  0
 14 15  2  0  0  0  0
  1 16  1  0  0  0  0
  2 17  1  0  0  0  0
  3 18  1  0  0  0  0
  4 19  1  0  0  0  0
  5 20  1  0  0  0  0
  7 21  1  0  0  0  0
  7 22  1  0  0  0  0
  7 23  1  0  0  0  0
  8 24  1  0  0  0  0
  8 25  1  0  0  0  0
  8 26  1  0  0  0  0
  9 27  1  0  0  0  0
  9 28  1  0  0  0  0
  9 29  1  0  0  0  0
 10 30  1  0  0  0  0
 11 31  1  0  0  0  0
 12 32  1  0  0  0  0
M  END
> <Mol Weight>
227,32

> <Formula>
C11H17NO2S

> <ID>
EN300-680141

> <name>
Sulfonamides

> <LogP>
2,02

> <ROCS_ShapeQuery>
x0310_0A_x0719_0A_x1080_0A_x0739_0A_x0929_0A_x0526_0A_x0911_0A

> <ROCS_TanimotoCombo>
0.325 

> <ROCS_ShapeTanimoto>
0.166 

> <ROCS_ColorTanimoto>
0.159 

> <ROCS_RefTversky>
0.160 

> <ROCS_RefColorTversky>
0.167 

> <ROCS_RefTverskyCombo>
0.327 

> <ROCS_FitTversky>
1.278 

> <ROCS_FitColorTversky>
0.773 

> <ROCS_FitTverskyCombo>
2.051 

> <ROCS_ColorScore>
-4.843

> <ROCS_Overlap>
1282.314

> <ROCS_Rank>
164                 

$$$$
untitled-dbase-2754_40
  -OEChem-02092407103D

 34 35  0     0  0  0  0  0  0999 V2000
    9.4956   13.2593   19.7090 C   0  0  0  0  0  0  0  0  0  0  0  0
    9.0799   14.5877   19.6185 C   0  0  0  0  0  0  0  0  0  0  0  0
    9.2602   12.5328   20.8762 C   0  0  0  0  0  0  0  0  0  0  0  0
    8.4288   15.1896   20.6952 C   0  0  0  0  0  0  0  0  0  0  0  0
    8.6091   13.1347   21.9530 C   0  0  0  0  0  0  0  0  0  0  0  0
    8.1934   14.4631   21.8625 C   0  0  0  0  0  0  0  0  0  0  0  0
   10.0710   10.9928   24.1841 C   0  0  0  0  0  0  0  0  0  0  0  0
    8.1521    9.9626   23.1242 C   0  0  0  0  0  0  0  0  0  0  0  0
    9.3464   12.3388   24.2085 C   0  0  0  0  0  0  0  0  0  0  0  0
    7.4047   11.3014   23.1164 C   0  0  0  0  0  0  0  0  0  0  0  0
    4.6381   15.3519   23.5044 C   0  0  0  0  0  0  0  0  0  0  0  0
    9.1116    9.8843   24.2304 N   0  0  0  0  0  0  0  0  0  0  0  0
    8.3862   12.3906   23.1046 N   0  0  0  0  0  0  0  0  0  0  0  0
    5.7844   15.4262   22.5872 N   0  0  0  0  0  0  0  0  0  0  0  0
    7.3457   14.3449   24.3278 O   0  0  0  0  0  0  0  0  0  0  0  0
    7.9599   16.5771   23.3457 O   0  0  0  0  0  0  0  0  0  0  0  0
    7.3727   15.2545   23.1916 S   0  0  0  0  0  0  0  0  0  0  0  0
   10.0021   12.7905   18.8703 H   0  0  0  0  0  0  0  0  0  0  0  0
    9.2636   15.1530   18.7095 H   0  0  0  0  0  0  0  0  0  0  0  0
    9.5885   11.4980   20.9345 H   0  0  0  0  0  0  0  0  0  0  0  0
    8.1093   16.2250   20.6119 H   0  0  0  0  0  0  0  0  0  0  0  0
   10.7002   10.9138   23.2925 H   0  0  0  0  0  0  0  0  0  0  0  0
   10.7295   10.9249   25.0533 H   0  0  0  0  0  0  0  0  0  0  0  0
    7.4244    9.1506   23.2308 H   0  0  0  0  0  0  0  0  0  0  0  0
    8.6634    9.8070   22.1659 H   0  0  0  0  0  0  0  0  0  0  0  0
    8.8265   12.4641   25.1623 H   0  0  0  0  0  0  0  0  0  0  0  0
   10.0831   13.1396   24.1113 H   0  0  0  0  0  0  0  0  0  0  0  0
    6.7730   11.3478   22.2299 H   0  0  0  0  0  0  0  0  0  0  0  0
    6.7721   11.3777   24.0015 H   0  0  0  0  0  0  0  0  0  0  0  0
    4.9569   15.6463   24.5152 H   0  0  0  0  0  0  0  0  0  0  0  0
    3.8462   16.0319   23.1572 H   0  0  0  0  0  0  0  0  0  0  0  0
    4.2529   14.3218   23.5270 H   0  0  0  0  0  0  0  0  0  0  0  0
    9.6208    8.9984   24.1710 H   0  0  0  0  0  0  0  0  0  0  0  0
    5.5970   15.1703   21.6101 H   0  0  0  0  0  0  0  0  0  0  0  0
  1  2  1  0  0  0  0
  1  3  2  0  0  0  0
  2  4  2  0  0  0  0
  3  5  1  0  0  0  0
  4  6  1  0  0  0  0
  5  6  2  0  0  0  0
  5 13  1  0  0  0  0
  6 17  1  0  0  0  0
  7  9  1  0  0  0  0
  7 12  1  0  0  0  0
  8 10  1  0  0  0  0
  8 12  1  0  0  0  0
  9 13  1  0  0  0  0
 10 13  1  0  0  0  0
 11 14  1  0  0  0  0
 14 17  1  0  0  0  0
 15 17  2  0  0  0  0
 16 17  2  0  0  0  0
  1 18  1  0  0  0  0
  2 19  1  0  0  0  0
  3 20  1  0  0  0  0
  4 21  1  0  0  0  0
  7 22  1  0  0  0  0
  7 23  1  0  0  0  0
  8 24  1  0  0  0  0
  8 25  1  0  0  0  0
  9 26  1  0  0  0  0
  9 27  1  0  0  0  0
 10 28  1  0  0  0  0
 10 29  1  0  0  0  0
 11 30  1  0  0  0  0
 11 31  1  0  0  0  0
 11 32  1  0  0  0  0
 12 33  1  0  0  0  0
 14 34  1  0  0  0  0
M  END
> <Mol Weight>
291,79

> <Formula>
C11H18ClN3O2S

> <ID>
EN300-67253

> <name>
Sulfonamides

> <LogP>
0,24

> <ROCS_ShapeQuery>
x0310_0A_x0719_0A_x1080_0A_x0739_0A_x0929_0A_x0526_0A_x0911_0A

> <ROCS_TanimotoCombo>
0.325 

> <ROCS_ShapeTanimoto>
0.165 

> <ROCS_ColorTanimoto>
0.160 

> <ROCS_RefTversky>
0.162 

> <ROCS_RefColorTversky>
0.176 

> <ROCS_RefTverskyCombo>
0.338 

> <ROCS_FitTversky>
1.165 

> <ROCS_FitColorTversky>
0.628 

> <ROCS_FitTverskyCombo>
1.793 

> <ROCS_ColorScore>
-5.131

> <ROCS_Overlap>
1294.935

> <ROCS_Rank>
165                 

$$$$
untitled-dbase-790_1
  -OEChem-02092407103D

 18 19  0     0  0  0  0  0  0999 V2000
   10.6270   13.1169   21.5512 C   0  0  0  0  0  0  0  0  0  0  0  0
   10.6202   11.7786   21.9844 C   0  0  0  0  0  0  0  0  0  0  0  0
    9.6706   14.0773   21.9735 C   0  0  0  0  0  0  0  0  0  0  0  0
    9.5805   11.4628   22.8782 C   0  0  0  0  0  0  0  0  0  0  0  0
    8.5982   12.4490   23.3119 C   0  0  0  0  0  0  0  0  0  0  0  0
    8.6236   13.7832   22.8658 C   0  0  0  0  0  0  0  0  0  0  0  0
    9.2922   10.2974   23.4709 N   0  0  0  0  0  0  0  0  0  0  0  0
    7.7468   11.8489   24.1531 N   0  0  0  0  0  0  0  0  0  0  0  0
    6.2820   14.8309   22.1421 N   0  0  0  0  0  0  0  0  0  0  0  0
    6.9152   14.6375   24.6335 O   0  0  0  0  0  0  0  0  0  0  0  0
    8.1102   16.3168   23.1845 O   0  0  0  0  0  0  0  0  0  0  0  0
    8.1722   10.5350   24.2490 O   0  0  0  0  0  0  0  0  0  0  0  0
    7.4848   15.0093   23.3440 S   0  0  0  0  0  0  0  0  0  0  0  0
   11.4042   13.4336   20.8567 H   0  0  0  0  0  0  0  0  0  0  0  0
   11.3579   11.0601   21.6505 H   0  0  0  0  0  0  0  0  0  0  0  0
    9.7639   15.0893   21.5796 H   0  0  0  0  0  0  0  0  0  0  0  0
    5.3823   14.4178   22.4170 H   0  0  0  0  0  0  0  0  0  0  0  0
    6.2010   15.5641   21.4273 H   0  0  0  0  0  0  0  0  0  0  0  0
  1  2  2  0  0  0  0
  1  3  1  0  0  0  0
  2  4  1  0  0  0  0
  3  6  2  0  0  0  0
  4  5  1  0  0  0  0
  4  7  2  0  0  0  0
  5  6  1  0  0  0  0
  5  8  2  0  0  0  0
  6 13  1  0  0  0  0
  7 12  1  0  0  0  0
  8 12  1  0  0  0  0
  9 13  1  0  0  0  0
 10 13  2  0  0  0  0
 11 13  2  0  0  0  0
  1 14  1  0  0  0  0
  2 15  1  0  0  0  0
  3 16  1  0  0  0  0
  9 17  1  0  0  0  0
  9 18  1  0  0  0  0
M  END
> <Mol Weight>
199,18

> <Formula>
C6H5N3O3S

> <ID>
EN300-372002

> <name>
Sulfonamides

> <LogP>
-0,07

> <ROCS_ShapeQuery>
x0310_0A_x0719_0A_x1080_0A_x0739_0A_x0929_0A_x0526_0A_x0911_0A

> <ROCS_TanimotoCombo>
0.325 

> <ROCS_ShapeTanimoto>
0.175 

> <ROCS_ColorTanimoto>
0.150 

> <ROCS_RefTversky>
0.167 

> <ROCS_RefColorTversky>
0.167 

> <ROCS_RefTverskyCombo>
0.334 

> <ROCS_FitTversky>
1.384 

> <ROCS_FitColorTversky>
0.594 

> <ROCS_FitTverskyCombo>
1.978 

> <ROCS_ColorScore>
-4.869

> <ROCS_Overlap>
1334.906

> <ROCS_Rank>
166                 

$$$$
untitled-dbase-2417_4
  -OEChem-02092407103D

 29 30  0     0  0  0  0  0  0999 V2000
   11.0155   13.6776   21.7922 C   0  0  0  0  0  0  0  0  0  0  0  0
   10.9730   12.3299   22.1493 C   0  0  0  0  0  0  0  0  0  0  0  0
    9.9613   14.5229   22.1316 C   0  0  0  0  0  0  0  0  0  0  0  0
    9.8761   11.8184   22.8554 C   0  0  0  0  0  0  0  0  0  0  0  0
    8.8032   12.6679   23.1791 C   0  0  0  0  0  0  0  0  0  0  0  0
    8.8598   14.0220   22.8249 C   0  0  0  0  0  0  0  0  0  0  0  0
    7.6260   12.1392   23.9584 C   0  0  0  0  0  0  0  0  0  0  0  0
    9.8225   10.3509   23.2035 C   0  0  0  0  0  0  0  0  0  0  0  0
    7.5439   10.6119   23.9351 C   0  0  0  0  0  0  0  0  0  0  0  0
    6.8801   15.7998   20.6206 C   0  0  0  0  0  0  0  0  0  0  0  0
    8.8477   10.0307   24.2527 N   0  0  0  0  0  0  0  0  0  0  0  0
    6.5655   15.0185   21.8253 N   0  0  0  0  0  0  0  0  0  0  0  0
    6.8360   14.6276   24.3572 O   0  0  0  0  0  0  0  0  0  0  0  0
    8.1374   16.4751   23.2537 O   0  0  0  0  0  0  0  0  0  0  0  0
    7.5633   15.1394   23.2056 S   0  0  0  0  0  0  0  0  0  0  0  0
   11.8713   14.0672   21.2487 H   0  0  0  0  0  0  0  0  0  0  0  0
   11.7995   11.6798   21.8736 H   0  0  0  0  0  0  0  0  0  0  0  0
   10.0089   15.5708   21.8466 H   0  0  0  0  0  0  0  0  0  0  0  0
    7.6873   12.4518   25.0070 H   0  0  0  0  0  0  0  0  0  0  0  0
    6.7089   12.5625   23.5289 H   0  0  0  0  0  0  0  0  0  0  0  0
    9.5596    9.7715   22.3109 H   0  0  0  0  0  0  0  0  0  0  0  0
   10.8204   10.0239   23.5210 H   0  0  0  0  0  0  0  0  0  0  0  0
    6.7881   10.2498   24.6437 H   0  0  0  0  0  0  0  0  0  0  0  0
    7.2273   10.2773   22.9410 H   0  0  0  0  0  0  0  0  0  0  0  0
    7.9582   16.0168   20.5948 H   0  0  0  0  0  0  0  0  0  0  0  0
    6.6009   15.2231   19.7264 H   0  0  0  0  0  0  0  0  0  0  0  0
    6.3165   16.7442   20.6386 H   0  0  0  0  0  0  0  0  0  0  0  0
    8.7550    9.0174   24.3278 H   0  0  0  0  0  0  0  0  0  0  0  0
    5.5792   14.7595   21.9495 H   0  0  0  0  0  0  0  0  0  0  0  0
  1  2  1  0  0  0  0
  1  3  2  0  0  0  0
  2  4  2  0  0  0  0
  3  6  1  0  0  0  0
  4  5  1  0  0  0  0
  4  8  1  0  0  0  0
  5  6  2  0  0  0  0
  5  7  1  0  0  0  0
  6 15  1  0  0  0  0
  7  9  1  0  0  0  0
  8 11  1  0  0  0  0
  9 11  1  0  0  0  0
 10 12  1  0  0  0  0
 12 15  1  0  0  0  0
 13 15  2  0  0  0  0
 14 15  2  0  0  0  0
  1 16  1  0  0  0  0
  2 17  1  0  0  0  0
  3 18  1  0  0  0  0
  7 19  1  0  0  0  0
  7 20  1  0  0  0  0
  8 21  1  0  0  0  0
  8 22  1  0  0  0  0
  9 23  1  0  0  0  0
  9 24  1  0  0  0  0
 10 25  1  0  0  0  0
 10 26  1  0  0  0  0
 10 27  1  0  0  0  0
 11 28  1  0  0  0  0
 12 29  1  0  0  0  0
M  END
> <Mol Weight>
262,75

> <Formula>
C10H15ClN2O2S

> <ID>
EN300-205155

> <name>
Sulfonamides

> <LogP>
0,29

> <ROCS_ShapeQuery>
x0310_0A_x0719_0A_x1080_0A_x0739_0A_x0929_0A_x0526_0A_x0911_0A

> <ROCS_TanimotoCombo>
0.325 

> <ROCS_ShapeTanimoto>
0.178 

> <ROCS_ColorTanimoto>
0.147 

> <ROCS_RefTversky>
0.170 

> <ROCS_RefColorTversky>
0.164 

> <ROCS_RefTverskyCombo>
0.334 

> <ROCS_FitTversky>
1.328 

> <ROCS_FitColorTversky>
0.585 

> <ROCS_FitTverskyCombo>
1.913 

> <ROCS_ColorScore>
-4.778

> <ROCS_Overlap>
1364.000

> <ROCS_Rank>
167                 

$$$$
untitled-dbase-1325_1
  -OEChem-02092407103D

 18 19  0     0  0  0  0  0  0999 V2000
   10.9343   13.1048   21.9927 C   0  0  0  0  0  0  0  0  0  0  0  0
   10.8307   11.7612   22.3909 C   0  0  0  0  0  0  0  0  0  0  0  0
    9.9396   14.0741   22.2625 C   0  0  0  0  0  0  0  0  0  0  0  0
    9.6520   11.4139   23.0938 C   0  0  0  0  0  0  0  0  0  0  0  0
    8.5912   12.4476   23.3816 C   0  0  0  0  0  0  0  0  0  0  0  0
    8.7508   13.7880   22.9550 C   0  0  0  0  0  0  0  0  0  0  0  0
    9.3413   10.1965   23.5674 N   0  0  0  0  0  0  0  0  0  0  0  0
    7.5421   11.9499   24.0559 N   0  0  0  0  0  0  0  0  0  0  0  0
    6.6061   14.9146   21.8433 N   0  0  0  0  0  0  0  0  0  0  0  0
    6.7850   14.6863   24.4049 O   0  0  0  0  0  0  0  0  0  0  0  0
    8.2670   16.3349   23.2076 O   0  0  0  0  0  0  0  0  0  0  0  0
    7.8595   10.3388   24.3034 S   0  0  0  0  0  0  0  0  0  0  0  0
    7.5807   15.0505   23.2405 S   0  0  0  0  0  0  0  0  0  0  0  0
   11.8247   13.4170   21.4487 H   0  0  0  0  0  0  0  0  0  0  0  0
   11.6102   11.0419   22.1693 H   0  0  0  0  0  0  0  0  0  0  0  0
   10.1157   15.0901   21.9101 H   0  0  0  0  0  0  0  0  0  0  0  0
    5.6600   14.5290   21.9511 H   0  0  0  0  0  0  0  0  0  0  0  0
    6.6746   15.6543   21.1338 H   0  0  0  0  0  0  0  0  0  0  0  0
  1  2  2  0  0  0  0
  1  3  1  0  0  0  0
  2  4  1  0  0  0  0
  3  6  2  0  0  0  0
  4  5  1  0  0  0  0
  4  7  2  0  0  0  0
  5  6  1  0  0  0  0
  5  8  2  0  0  0  0
  6 13  1  0  0  0  0
  7 12  1  0  0  0  0
  8 12  1  0  0  0  0
  9 13  1  0  0  0  0
 10 13  2  0  0  0  0
 11 13  2  0  0  0  0
  1 14  1  0  0  0  0
  2 15  1  0  0  0  0
  3 16  1  0  0  0  0
  9 17  1  0  0  0  0
  9 18  1  0  0  0  0
M  END
> <Mol Weight>
215,25

> <Formula>
C6H5N3O2S2

> <ID>
EN300-197137

> <name>
Sulfonamides

> <LogP>
0,72

> <ROCS_ShapeQuery>
x0310_0A_x0719_0A_x1080_0A_x0739_0A_x0929_0A_x0526_0A_x0911_0A

> <ROCS_TanimotoCombo>
0.325 

> <ROCS_ShapeTanimoto>
0.172 

> <ROCS_ColorTanimoto>
0.153 

> <ROCS_RefTversky>
0.164 

> <ROCS_RefColorTversky>
0.170 

> <ROCS_RefTverskyCombo>
0.334 

> <ROCS_FitTversky>
1.388 

> <ROCS_FitColorTversky>
0.604 

> <ROCS_FitTverskyCombo>
1.992 

> <ROCS_ColorScore>
-4.948

> <ROCS_Overlap>
1311.883

> <ROCS_Rank>
168                 

$$$$
untitled-dbase-2446_31
  -OEChem-02092407103D

 23 23  0     0  0  0  0  0  0999 V2000
    9.8478   11.9204   24.1856 C   0  0  0  0  0  0  0  0  0  0  0  0
    7.4739   11.8342   23.7449 C   0  0  0  0  0  0  0  0  0  0  0  0
   10.0282   10.7541   23.4422 C   0  0  0  0  0  0  0  0  0  0  0  0
    7.6543   10.6678   23.0015 C   0  0  0  0  0  0  0  0  0  0  0  0
    8.5706   12.4605   24.3370 C   0  0  0  0  0  0  0  0  0  0  0  0
    8.9314   10.1277   22.8501 C   0  0  0  0  0  0  0  0  0  0  0  0
    8.3778   13.7075   25.1319 C   0  0  0  0  0  0  0  0  0  0  0  0
    7.1984   14.5613   24.6579 C   0  0  0  0  0  0  0  0  0  0  0  0
    5.7169   15.4261   22.6310 N   0  0  0  0  0  0  0  0  0  0  0  0
    8.1298   16.2709   22.9152 O   0  0  0  0  0  0  0  0  0  0  0  0
    7.7278   13.8837   22.1905 O   0  0  0  0  0  0  0  0  0  0  0  0
    7.3452   15.0496   22.9677 S   0  0  0  0  0  0  0  0  0  0  0  0
    9.1766    8.5472   21.8436 Br  0  0  0  0  0  0  0  0  0  0  0  0
   10.7081   12.4017   24.6432 H   0  0  0  0  0  0  0  0  0  0  0  0
    6.4750   12.2472   23.8583 H   0  0  0  0  0  0  0  0  0  0  0  0
   11.0299   10.3458   23.3348 H   0  0  0  0  0  0  0  0  0  0  0  0
    6.7894   10.1922   22.5465 H   0  0  0  0  0  0  0  0  0  0  0  0
    9.2905   14.3254   25.0721 H   0  0  0  0  0  0  0  0  0  0  0  0
    8.2509   13.4805   26.2046 H   0  0  0  0  0  0  0  0  0  0  0  0
    6.2639   13.9953   24.7261 H   0  0  0  0  0  0  0  0  0  0  0  0
    7.0908   15.4760   25.2488 H   0  0  0  0  0  0  0  0  0  0  0  0
    5.0496   14.6476   22.5653 H   0  0  0  0  0  0  0  0  0  0  0  0
    5.3236   16.2734   23.0588 H   0  0  0  0  0  0  0  0  0  0  0  0
  1  3  2  0  0  0  0
  1  5  1  0  0  0  0
  2  4  1  0  0  0  0
  2  5  2  0  0  0  0
  3  6  1  0  0  0  0
  4  6  2  0  0  0  0
  5  7  1  0  0  0  0
  6 13  1  0  0  0  0
  7  8  1  0  0  0  0
  8 12  1  0  0  0  0
  9 12  1  0  0  0  0
 10 12  2  0  0  0  0
 11 12  2  0  0  0  0
  1 14  1  0  0  0  0
  2 15  1  0  0  0  0
  3 16  1  0  0  0  0
  4 17  1  0  0  0  0
  7 18  1  0  0  0  0
  7 19  1  0  0  0  0
  8 20  1  0  0  0  0
  8 21  1  0  0  0  0
  9 22  1  0  0  0  0
  9 23  1  0  0  0  0
M  END
> <Mol Weight>
264,14

> <Formula>
C8H10BrNO2S

> <ID>
EN300-283816

> <name>
Sulfonamides

> <LogP>
1,40

> <ROCS_ShapeQuery>
x0310_0A_x0719_0A_x1080_0A_x0739_0A_x0929_0A_x0526_0A_x0911_0A

> <ROCS_TanimotoCombo>
0.325 

> <ROCS_ShapeTanimoto>
0.173 

> <ROCS_ColorTanimoto>
0.152 

> <ROCS_RefTversky>
0.164 

> <ROCS_RefColorTversky>
0.160 

> <ROCS_RefTverskyCombo>
0.324 

> <ROCS_FitTversky>
1.438 

> <ROCS_FitColorTversky>
0.743 

> <ROCS_FitTverskyCombo>
2.181 

> <ROCS_ColorScore>
-4.655

> <ROCS_Overlap>
1312.069

> <ROCS_Rank>
169                 

$$$$
untitled-dbase-413_283
  -OEChem-02092407103D

 24 24  0     0  0  0  0  0  0999 V2000
    8.3533   10.8003   24.6060 C   0  0  0  0  0  0  0  0  0  0  0  0
    9.7243   10.7252   23.9086 C   0  0  0  0  0  0  0  0  0  0  0  0
    7.7790   11.3494   23.2868 C   0  0  0  0  0  0  0  0  0  0  0  0
    9.2119   11.7924   22.9149 C   0  0  0  0  0  0  0  0  0  0  0  0
    9.4455   13.9795   22.0794 C   0  0  0  0  0  0  0  0  0  0  0  0
    8.0010   14.3647   21.8264 C   0  0  0  0  0  0  0  0  0  0  0  0
    5.7334   15.5076   22.6028 N   0  0  0  0  0  0  0  0  0  0  0  0
    7.2317   14.3192   24.3231 O   0  0  0  0  0  0  0  0  0  0  0  0
    7.9918   16.5098   23.3185 O   0  0  0  0  0  0  0  0  0  0  0  0
    9.5446   13.1586   23.2282 O   0  0  0  0  0  0  0  0  0  0  0  0
    7.3072   15.2347   23.1982 S   0  0  0  0  0  0  0  0  0  0  0  0
    7.9484    9.8206   24.8887 H   0  0  0  0  0  0  0  0  0  0  0  0
    8.2934   11.4714   25.4677 H   0  0  0  0  0  0  0  0  0  0  0  0
   10.5620   11.0595   24.5331 H   0  0  0  0  0  0  0  0  0  0  0  0
    9.9743    9.7530   23.4733 H   0  0  0  0  0  0  0  0  0  0  0  0
    7.3272   10.6022   22.6274 H   0  0  0  0  0  0  0  0  0  0  0  0
    7.0735   12.1792   23.4187 H   0  0  0  0  0  0  0  0  0  0  0  0
    9.4728   11.5641   21.8736 H   0  0  0  0  0  0  0  0  0  0  0  0
    9.8456   13.4175   21.2297 H   0  0  0  0  0  0  0  0  0  0  0  0
   10.0753   14.8608   22.2346 H   0  0  0  0  0  0  0  0  0  0  0  0
    7.3697   13.4861   21.6651 H   0  0  0  0  0  0  0  0  0  0  0  0
    7.9227   15.0327   20.9642 H   0  0  0  0  0  0  0  0  0  0  0  0
    4.9626   14.9769   23.0269 H   0  0  0  0  0  0  0  0  0  0  0  0
    5.4803   16.4688   22.3425 H   0  0  0  0  0  0  0  0  0  0  0  0
  1  2  1  0  0  0  0
  1  3  1  0  0  0  0
  2  4  1  0  0  0  0
  3  4  1  0  0  0  0
  4 10  1  0  0  0  0
  5  6  1  0  0  0  0
  5 10  1  0  0  0  0
  6 11  1  0  0  0  0
  7 11  1  0  0  0  0
  8 11  2  0  0  0  0
  9 11  2  0  0  0  0
  1 12  1  0  0  0  0
  1 13  1  0  0  0  0
  2 14  1  0  0  0  0
  2 15  1  0  0  0  0
  3 16  1  0  0  0  0
  3 17  1  0  0  0  0
  4 18  1  0  0  0  0
  5 19  1  0  0  0  0
  5 20  1  0  0  0  0
  6 21  1  0  0  0  0
  6 22  1  0  0  0  0
  7 23  1  0  0  0  0
  7 24  1  0  0  0  0
M  END
> <Mol Weight>
179,23

> <Formula>
C6H13NO3S

> <ID>
EN300-1120909

> <name>
Sulfonamides

> <LogP>
-0,52

> <ROCS_ShapeQuery>
x0310_0A_x0719_0A_x1080_0A_x0739_0A_x0929_0A_x0526_0A_x0911_0A

> <ROCS_TanimotoCombo>
0.324 

> <ROCS_ShapeTanimoto>
0.149 

> <ROCS_ColorTanimoto>
0.175 

> <ROCS_RefTversky>
0.143 

> <ROCS_RefColorTversky>
0.181 

> <ROCS_RefTverskyCombo>
0.324 

> <ROCS_FitTversky>
1.383 

> <ROCS_FitColorTversky>
0.840 

> <ROCS_FitTverskyCombo>
2.223 

> <ROCS_ColorScore>
-5.262

> <ROCS_Overlap>
1144.071

> <ROCS_Rank>
170                 

$$$$
untitled-dbase-2826_39
  -OEChem-02092407103D

 39 40  0     0  0  0  0  0  0999 V2000
    5.6621   13.3819   21.3951 B   0  0  0  0  0  0  0  0  0  0  0  0
    4.7142   12.1109   19.3733 C   0  0  0  0  0  0  0  0  0  0  0  0
    3.1603   13.2621   20.8214 C   0  0  0  0  0  0  0  0  0  0  0  0
    2.3460   12.0457   18.8993 C   0  0  0  0  0  0  0  0  0  0  0  0
    4.4676   12.9001   20.4966 C   0  0  0  0  0  0  0  0  0  0  0  0
    3.6534   11.6837   18.5746 C   0  0  0  0  0  0  0  0  0  0  0  0
    2.0995   12.8349   20.0227 C   0  0  0  0  0  0  0  0  0  0  0  0
    6.8326   14.5744   22.9612 C   0  0  0  0  0  0  0  0  0  0  0  0
    7.7652   13.5095   22.2928 C   0  0  0  0  0  0  0  0  0  0  0  0
    6.3653   14.2224   24.3915 C   0  0  0  0  0  0  0  0  0  0  0  0
    7.4041   15.9989   22.9897 C   0  0  0  0  0  0  0  0  0  0  0  0
    8.5438   12.6294   23.2807 C   0  0  0  0  0  0  0  0  0  0  0  0
    8.7731   14.0795   21.2696 C   0  0  0  0  0  0  0  0  0  0  0  0
    3.9014   10.8856   17.4381 N   0  0  0  0  0  0  0  0  0  0  0  0
    0.7216   14.2147   21.8400 N   0  0  0  0  0  0  0  0  0  0  0  0
   -0.0475   14.1582   19.3802 O   0  0  0  0  0  0  0  0  0  0  0  0
   -0.2731   12.0827   20.7904 O   0  0  0  0  0  0  0  0  0  0  0  0
    5.6412   14.5792   22.1104 O   0  0  0  0  0  0  0  0  0  0  0  0
    6.8401   12.6513   21.5504 O   0  0  0  0  0  0  0  0  0  0  0  0
    0.4625   13.2864   20.4291 S   0  0  0  0  0  0  0  0  0  0  0  0
    5.7290   11.8200   19.1044 H   0  0  0  0  0  0  0  0  0  0  0  0
    2.9503   13.8778   21.6948 H   0  0  0  0  0  0  0  0  0  0  0  0
    1.5187   11.7126   18.2768 H   0  0  0  0  0  0  0  0  0  0  0  0
    5.7302   15.0185   24.7592 H   0  0  0  0  0  0  0  0  0  0  0  0
    7.2344   14.1174   25.0288 H   0  0  0  0  0  0  0  0  0  0  0  0
    5.8130   13.2915   24.3612 H   0  0  0  0  0  0  0  0  0  0  0  0
    6.6919   16.6642   23.4690 H   0  0  0  0  0  0  0  0  0  0  0  0
    7.5873   16.3349   21.9733 H   0  0  0  0  0  0  0  0  0  0  0  0
    8.3364   16.0029   23.5470 H   0  0  0  0  0  0  0  0  0  0  0  0
    9.1599   11.9253   22.7291 H   0  0  0  0  0  0  0  0  0  0  0  0
    7.8442   12.0852   23.9084 H   0  0  0  0  0  0  0  0  0  0  0  0
    9.1768   13.2566   23.9018 H   0  0  0  0  0  0  0  0  0  0  0  0
    9.3650   13.2659   20.8694 H   0  0  0  0  0  0  0  0  0  0  0  0
    9.4150   14.7937   21.7698 H   0  0  0  0  0  0  0  0  0  0  0  0
    8.2261   14.5671   20.4724 H   0  0  0  0  0  0  0  0  0  0  0  0
    3.1285   10.5474   16.9017 H   0  0  0  0  0  0  0  0  0  0  0  0
    4.8375   10.5937   17.2425 H   0  0  0  0  0  0  0  0  0  0  0  0
    1.0005   13.7214   22.6969 H   0  0  0  0  0  0  0  0  0  0  0  0
    1.1533   15.1410   21.7350 H   0  0  0  0  0  0  0  0  0  0  0  0
  1  5  1  0  0  0  0
  1 18  1  0  0  0  0
  1 19  1  0  0  0  0
  2  5  1  0  0  0  0
  2  6  2  0  0  0  0
  3  5  2  0  0  0  0
  3  7  1  0  0  0  0
  4  6  1  0  0  0  0
  4  7  2  0  0  0  0
  6 14  1  0  0  0  0
  7 20  1  0  0  0  0
  8  9  1  0  0  0  0
  8 10  1  0  0  0  0
  8 11  1  0  0  0  0
  8 18  1  0  0  0  0
  9 12  1  0  0  0  0
  9 13  1  0  0  0  0
  9 19  1  0  0  0  0
 15 20  1  0  0  0  0
 16 20  2  0  0  0  0
 17 20  2  0  0  0  0
  2 21  1  0  0  0  0
  3 22  1  0  0  0  0
  4 23  1  0  0  0  0
 10 24  1  0  0  0  0
 10 25  1  0  0  0  0
 10 26  1  0  0  0  0
 11 27  1  0  0  0  0
 11 28  1  0  0  0  0
 11 29  1  0  0  0  0
 12 30  1  0  0  0  0
 12 31  1  0  0  0  0
 12 32  1  0  0  0  0
 13 33  1  0  0  0  0
 13 34  1  0  0  0  0
 13 35  1  0  0  0  0
 14 36  1  0  0  0  0
 14 37  1  0  0  0  0
 15 38  1  0  0  0  0
 15 39  1  0  0  0  0
M  END
> <Mol Weight>
298,16

> <Formula>
C12H19BN2O4S

> <ID>
EN300-21669247

> <name>
Sulfonamides

> <LogP>
1,75

> <ROCS_ShapeQuery>
x0310_0A_x0719_0A_x1080_0A_x0739_0A_x0929_0A_x0526_0A_x0911_0A

> <ROCS_TanimotoCombo>
0.324 

> <ROCS_ShapeTanimoto>
0.219 

> <ROCS_ColorTanimoto>
0.106 

> <ROCS_RefTversky>
0.207 

> <ROCS_RefColorTversky>
0.128 

> <ROCS_RefTverskyCombo>
0.335 

> <ROCS_FitTversky>
1.342 

> <ROCS_FitColorTversky>
0.372 

> <ROCS_FitTverskyCombo>
1.715 

> <ROCS_ColorScore>
-3.752

> <ROCS_Overlap>
1660.549

> <ROCS_Rank>
171                 

$$$$
untitled-dbase-1868_7486
  -OEChem-02092407103D

 35 35  0     0  0  0  0  0  0999 V2000
    1.5820   12.5055   19.3317 C   0  0  0  0  0  0  0  0  0  0  0  0
    3.3386   10.7980   18.7958 C   0  0  0  0  0  0  0  0  0  0  0  0
    2.6955   13.4404   19.8111 C   0  0  0  0  0  0  0  0  0  0  0  0
    4.3947   11.7886   19.2927 C   0  0  0  0  0  0  0  0  0  0  0  0
    2.0683   11.4919   18.2884 C   0  0  0  0  0  0  0  0  0  0  0  0
    8.0292   16.0634   22.7177 C   0  0  0  0  0  0  0  0  0  0  0  0
    2.2861   12.1452   16.9212 C   0  0  0  0  0  0  0  0  0  0  0  0
    4.8768   13.5857   20.8224 C   0  0  0  0  0  0  0  0  0  0  0  0
    4.5299   14.1518   22.1892 C   0  0  0  0  0  0  0  0  0  0  0  0
    3.8433   12.6797   20.3217 N   0  0  0  0  0  0  0  0  0  0  0  0
    5.5384   15.0574   22.6688 N   0  0  0  0  0  0  0  0  0  0  0  0
    7.5337   13.6820   21.7514 O   0  0  0  0  0  0  0  0  0  0  0  0
    7.3510   14.0550   24.2382 O   0  0  0  0  0  0  0  0  0  0  0  0
    1.0546   12.6862   16.4797 O   0  0  0  0  0  0  0  0  0  0  0  0
    7.1638   14.5181   22.8766 S   0  0  0  0  0  0  0  0  0  0  0  0
    1.1577   11.9731   20.1988 H   0  0  0  0  0  0  0  0  0  0  0  0
    0.7581   13.1085   18.9120 H   0  0  0  0  0  0  0  0  0  0  0  0
    3.7728   10.1779   17.9922 H   0  0  0  0  0  0  0  0  0  0  0  0
    3.0823   10.1022   19.6116 H   0  0  0  0  0  0  0  0  0  0  0  0
    3.0086   14.0597   18.9616 H   0  0  0  0  0  0  0  0  0  0  0  0
    2.3010   14.1180   20.5799 H   0  0  0  0  0  0  0  0  0  0  0  0
    5.2641   11.2380   19.6760 H   0  0  0  0  0  0  0  0  0  0  0  0
    4.7369   12.3797   18.4344 H   0  0  0  0  0  0  0  0  0  0  0  0
    1.2833   10.7213   18.1704 H   0  0  0  0  0  0  0  0  0  0  0  0
    9.0976   15.8729   22.8302 H   0  0  0  0  0  0  0  0  0  0  0  0
    7.8163   16.4774   21.7310 H   0  0  0  0  0  0  0  0  0  0  0  0
    7.6765   16.7374   23.4997 H   0  0  0  0  0  0  0  0  0  0  0  0
    2.6306   11.4002   16.2043 H   0  0  0  0  0  0  0  0  0  0  0  0
    3.0222   12.9445   17.0043 H   0  0  0  0  0  0  0  0  0  0  0  0
    5.8173   13.0262   20.8488 H   0  0  0  0  0  0  0  0  0  0  0  0
    4.9739   14.3962   20.0935 H   0  0  0  0  0  0  0  0  0  0  0  0
    3.5915   14.7127   22.1398 H   0  0  0  0  0  0  0  0  0  0  0  0
    4.4203   13.3569   22.9339 H   0  0  0  0  0  0  0  0  0  0  0  0
    5.2204   15.7577   23.3741 H   0  0  0  0  0  0  0  0  0  0  0  0
    1.2167   13.0946   15.6121 H   0  0  0  0  0  0  0  0  0  0  0  0
  1  3  1  0  0  0  0
  1  5  1  0  0  0  0
  2  4  1  0  0  0  0
  2  5  1  0  0  0  0
  3 10  1  0  0  0  0
  4 10  1  0  0  0  0
  5  7  1  0  0  0  0
  6 15  1  0  0  0  0
  7 14  1  0  0  0  0
  8  9  1  0  0  0  0
  8 10  1  0  0  0  0
  9 11  1  0  0  0  0
 11 15  1  0  0  0  0
 12 15  2  0  0  0  0
 13 15  2  0  0  0  0
  1 16  1  0  0  0  0
  1 17  1  0  0  0  0
  2 18  1  0  0  0  0
  2 19  1  0  0  0  0
  3 20  1  0  0  0  0
  3 21  1  0  0  0  0
  4 22  1  0  0  0  0
  4 23  1  0  0  0  0
  5 24  1  0  0  0  0
  6 25  1  0  0  0  0
  6 26  1  0  0  0  0
  6 27  1  0  0  0  0
  7 28  1  0  0  0  0
  7 29  1  0  0  0  0
  8 30  1  0  0  0  0
  8 31  1  0  0  0  0
  9 32  1  0  0  0  0
  9 33  1  0  0  0  0
 11 34  1  0  0  0  0
 14 35  1  0  0  0  0
M  END
> <Mol Weight>
236,33

> <Formula>
C9H20N2O3S

> <ID>
EN300-1167129

> <name>
Sulfonamides

> <LogP>
-1,51

> <ROCS_ShapeQuery>
x0310_0A_x0719_0A_x1080_0A_x0739_0A_x0929_0A_x0526_0A_x0911_0A

> <ROCS_TanimotoCombo>
0.324 

> <ROCS_ShapeTanimoto>
0.179 

> <ROCS_ColorTanimoto>
0.144 

> <ROCS_RefTversky>
0.171 

> <ROCS_RefColorTversky>
0.162 

> <ROCS_RefTverskyCombo>
0.333 

> <ROCS_FitTversky>
1.388 

> <ROCS_FitColorTversky>
0.576 

> <ROCS_FitTverskyCombo>
1.964 

> <ROCS_ColorScore>
-4.705

> <ROCS_Overlap>
1368.465

> <ROCS_Rank>
172                 

$$$$
untitled-dbase-1211_1
  -OEChem-02092407103D

 26 26  0     0  0  0  0  0  0999 V2000
    8.8679   10.6635   24.1053 C   0  0  0  0  0  0  0  0  0  0  0  0
    9.1091   11.1720   22.6709 C   0  0  0  0  0  0  0  0  0  0  0  0
    8.1319   11.9856   24.3964 C   0  0  0  0  0  0  0  0  0  0  0  0
    8.8994   12.6215   23.2000 C   0  0  0  0  0  0  0  0  0  0  0  0
   10.7874   14.0925   22.4363 C   0  0  0  0  0  0  0  0  0  0  0  0
    8.0313   13.4921   22.2978 C   0  0  0  0  0  0  0  0  0  0  0  0
   10.1915   13.3377   23.5940 C   0  0  0  0  0  0  0  0  0  0  0  0
    6.0577   15.2636   22.1645 N   0  0  0  0  0  0  0  0  0  0  0  0
    6.8305   14.3656   24.4477 O   0  0  0  0  0  0  0  0  0  0  0  0
    8.3307   15.9401   23.1610 O   0  0  0  0  0  0  0  0  0  0  0  0
   11.0785   12.4261   24.0452 F   0  0  0  0  0  0  0  0  0  0  0  0
    9.9287   14.1923   24.6048 F   0  0  0  0  0  0  0  0  0  0  0  0
    7.3621   14.8551   23.1853 S   0  0  0  0  0  0  0  0  0  0  0  0
    8.2628    9.7571   24.1901 H   0  0  0  0  0  0  0  0  0  0  0  0
    9.7860   10.5300   24.6882 H   0  0  0  0  0  0  0  0  0  0  0  0
   10.0944   10.9452   22.2536 H   0  0  0  0  0  0  0  0  0  0  0  0
    8.3454   10.8315   21.9611 H   0  0  0  0  0  0  0  0  0  0  0  0
    7.0469   11.9132   24.2542 H   0  0  0  0  0  0  0  0  0  0  0  0
    8.3228   12.4202   25.3820 H   0  0  0  0  0  0  0  0  0  0  0  0
   11.7170   14.6142   22.6994 H   0  0  0  0  0  0  0  0  0  0  0  0
   10.1052   14.8452   22.0200 H   0  0  0  0  0  0  0  0  0  0  0  0
   11.0374   13.4112   21.6122 H   0  0  0  0  0  0  0  0  0  0  0  0
    7.1974   12.9140   21.9020 H   0  0  0  0  0  0  0  0  0  0  0  0
    8.6217   13.8913   21.4745 H   0  0  0  0  0  0  0  0  0  0  0  0
    6.2779   15.6938   21.2578 H   0  0  0  0  0  0  0  0  0  0  0  0
    5.2562   14.6216   22.1344 H   0  0  0  0  0  0  0  0  0  0  0  0
  1  2  1  0  0  0  0
  1  3  1  0  0  0  0
  2  4  1  0  0  0  0
  3  4  1  0  0  0  0
  4  6  1  0  0  0  0
  4  7  1  0  0  0  0
  5  7  1  0  0  0  0
  6 13  1  0  0  0  0
  7 11  1  0  0  0  0
  7 12  1  0  0  0  0
  8 13  1  0  0  0  0
  9 13  2  0  0  0  0
 10 13  2  0  0  0  0
  1 14  1  0  0  0  0
  1 15  1  0  0  0  0
  2 16  1  0  0  0  0
  2 17  1  0  0  0  0
  3 18  1  0  0  0  0
  3 19  1  0  0  0  0
  5 20  1  0  0  0  0
  5 21  1  0  0  0  0
  5 22  1  0  0  0  0
  6 23  1  0  0  0  0
  6 24  1  0  0  0  0
  8 25  1  0  0  0  0
  8 26  1  0  0  0  0
M  END
> <Mol Weight>
213,24

> <Formula>
C7H13F2NO2S

> <ID>
EN300-1670243

> <name>
Sulfonamides

> <LogP>
0,34

> <ROCS_ShapeQuery>
x0310_0A_x0719_0A_x1080_0A_x0739_0A_x0929_0A_x0526_0A_x0911_0A

> <ROCS_TanimotoCombo>
0.324 

> <ROCS_ShapeTanimoto>
0.163 

> <ROCS_ColorTanimoto>
0.161 

> <ROCS_RefTversky>
0.157 

> <ROCS_RefColorTversky>
0.164 

> <ROCS_RefTverskyCombo>
0.320 

> <ROCS_FitTversky>
1.338 

> <ROCS_FitColorTversky>
0.892 

> <ROCS_FitTverskyCombo>
2.230 

> <ROCS_ColorScore>
-4.743

> <ROCS_Overlap>
1254.557

> <ROCS_Rank>
173                 

$$$$
untitled-dbase-811_45
  -OEChem-02092407103D

 26 26  0     0  0  0  0  0  0999 V2000
    8.0792   10.5036   23.0746 C   0  0  0  0  0  0  0  0  0  0  0  0
    9.4009   10.1620   23.3611 C   0  0  0  0  0  0  0  0  0  0  0  0
    7.5884   11.7577   23.4381 C   0  0  0  0  0  0  0  0  0  0  0  0
    9.7410   12.3285   24.3749 C   0  0  0  0  0  0  0  0  0  0  0  0
   10.2318   11.0745   24.0113 C   0  0  0  0  0  0  0  0  0  0  0  0
    8.4193   12.6701   24.0883 C   0  0  0  0  0  0  0  0  0  0  0  0
   11.6453   10.7090   24.3160 C   0  0  0  0  0  0  0  0  0  0  0  0
    7.8942   14.0108   24.4776 C   0  0  0  0  0  0  0  0  0  0  0  0
    6.7973   14.5342   23.5465 C   0  0  0  0  0  0  0  0  0  0  0  0
    6.1672   15.7581   21.2758 N   0  0  0  0  0  0  0  0  0  0  0  0
    8.6323   15.3039   21.8532 O   0  0  0  0  0  0  0  0  0  0  0  0
    7.1274   13.3721   21.2295 O   0  0  0  0  0  0  0  0  0  0  0  0
    7.3299   14.6609   21.8681 S   0  0  0  0  0  0  0  0  0  0  0  0
    7.4323    9.7930   22.5682 H   0  0  0  0  0  0  0  0  0  0  0  0
    9.7747    9.1828   23.0735 H   0  0  0  0  0  0  0  0  0  0  0  0
    6.5571   12.0150   23.2115 H   0  0  0  0  0  0  0  0  0  0  0  0
   10.3885   13.0407   24.8809 H   0  0  0  0  0  0  0  0  0  0  0  0
   12.3014   10.9954   23.4850 H   0  0  0  0  0  0  0  0  0  0  0  0
   11.9988   11.2096   25.2268 H   0  0  0  0  0  0  0  0  0  0  0  0
   11.7499    9.6295   24.4860 H   0  0  0  0  0  0  0  0  0  0  0  0
    8.7202   14.7429   24.4753 H   0  0  0  0  0  0  0  0  0  0  0  0
    7.5151   14.0042   25.5142 H   0  0  0  0  0  0  0  0  0  0  0  0
    5.9428   13.8499   23.5387 H   0  0  0  0  0  0  0  0  0  0  0  0
    6.4423   15.5247   23.8470 H   0  0  0  0  0  0  0  0  0  0  0  0
    5.2037   15.4194   21.1631 H   0  0  0  0  0  0  0  0  0  0  0  0
    6.2288   16.7350   21.5877 H   0  0  0  0  0  0  0  0  0  0  0  0
  1  2  2  0  0  0  0
  1  3  1  0  0  0  0
  2  5  1  0  0  0  0
  3  6  2  0  0  0  0
  4  5  2  0  0  0  0
  4  6  1  0  0  0  0
  5  7  1  0  0  0  0
  6  8  1  0  0  0  0
  8  9  1  0  0  0  0
  9 13  1  0  0  0  0
 10 13  1  0  0  0  0
 11 13  2  0  0  0  0
 12 13  2  0  0  0  0
  1 14  1  0  0  0  0
  2 15  1  0  0  0  0
  3 16  1  0  0  0  0
  4 17  1  0  0  0  0
  7 18  1  0  0  0  0
  7 19  1  0  0  0  0
  7 20  1  0  0  0  0
  8 21  1  0  0  0  0
  8 22  1  0  0  0  0
  9 23  1  0  0  0  0
  9 24  1  0  0  0  0
 10 25  1  0  0  0  0
 10 26  1  0  0  0  0
M  END
> <Mol Weight>
199,27

> <Formula>
C9H13NO2S

> <ID>
EN300-283874

> <name>
Sulfonamides

> <LogP>
1,14

> <ROCS_ShapeQuery>
x0310_0A_x0719_0A_x1080_0A_x0739_0A_x0929_0A_x0526_0A_x0911_0A

> <ROCS_TanimotoCombo>
0.324 

> <ROCS_ShapeTanimoto>
0.158 

> <ROCS_ColorTanimoto>
0.165 

> <ROCS_RefTversky>
0.152 

> <ROCS_RefColorTversky>
0.168 

> <ROCS_RefTverskyCombo>
0.320 

> <ROCS_FitTversky>
1.323 

> <ROCS_FitColorTversky>
0.914 

> <ROCS_FitTverskyCombo>
2.237 

> <ROCS_ColorScore>
-4.862

> <ROCS_Overlap>
1219.781

> <ROCS_Rank>
174                 

$$$$
untitled-dbase-2451_33
  -OEChem-02092407103D

 30 31  0     0  0  0  0  0  0999 V2000
    6.8437   13.7145   22.5248 C   0  0  0  0  0  0  0  0  0  0  0  0
    7.6467   11.5463   23.2255 C   0  0  0  0  0  0  0  0  0  0  0  0
    6.3740   13.1564   21.3359 C   0  0  0  0  0  0  0  0  0  0  0  0
    7.1769   10.9881   22.0366 C   0  0  0  0  0  0  0  0  0  0  0  0
    4.6432   12.7145   18.6765 C   0  0  0  0  0  0  0  0  0  0  0  0
    3.7060   10.8646   19.9160 C   0  0  0  0  0  0  0  0  0  0  0  0
    3.3652   13.0770   18.2512 C   0  0  0  0  0  0  0  0  0  0  0  0
    2.4280   11.2271   19.4907 C   0  0  0  0  0  0  0  0  0  0  0  0
    7.4801   12.9094   23.4696 C   0  0  0  0  0  0  0  0  0  0  0  0
    6.5406   11.7932   21.0918 C   0  0  0  0  0  0  0  0  0  0  0  0
    4.8136   11.6083   19.5089 C   0  0  0  0  0  0  0  0  0  0  0  0
    2.2576   12.3333   18.6583 C   0  0  0  0  0  0  0  0  0  0  0  0
    7.9550   13.4738   24.6717 N   0  0  0  0  0  0  0  0  0  0  0  0
   -0.2910   11.5869   18.8868 N   0  0  0  0  0  0  0  0  0  0  0  0
    0.3306   14.0820   18.7038 O   0  0  0  0  0  0  0  0  0  0  0  0
    0.5802   12.5979   16.6832 O   0  0  0  0  0  0  0  0  0  0  0  0
    6.0823   11.2486   19.9317 O   0  0  0  0  0  0  0  0  0  0  0  0
    0.6577   12.7865   18.1251 S   0  0  0  0  0  0  0  0  0  0  0  0
    6.7086   14.7780   22.7048 H   0  0  0  0  0  0  0  0  0  0  0  0
    8.1411   10.9097   23.9549 H   0  0  0  0  0  0  0  0  0  0  0  0
    5.8792   13.7886   20.6037 H   0  0  0  0  0  0  0  0  0  0  0  0
    7.3096    9.9255   21.8521 H   0  0  0  0  0  0  0  0  0  0  0  0
    5.5022   13.2981   18.3567 H   0  0  0  0  0  0  0  0  0  0  0  0
    3.8324   10.0018   20.5643 H   0  0  0  0  0  0  0  0  0  0  0  0
    3.2440   13.9405   17.6028 H   0  0  0  0  0  0  0  0  0  0  0  0
    1.5719   10.6406   19.8134 H   0  0  0  0  0  0  0  0  0  0  0  0
    8.3670   12.8781   25.3611 H   0  0  0  0  0  0  0  0  0  0  0  0
    7.7875   14.4425   24.8553 H   0  0  0  0  0  0  0  0  0  0  0  0
   -0.8817   11.8702   19.6781 H   0  0  0  0  0  0  0  0  0  0  0  0
   -0.7088   10.8566   18.2974 H   0  0  0  0  0  0  0  0  0  0  0  0
  1  3  2  0  0  0  0
  1  9  1  0  0  0  0
  2  4  1  0  0  0  0
  2  9  2  0  0  0  0
  3 10  1  0  0  0  0
  4 10  2  0  0  0  0
  5  7  2  0  0  0  0
  5 11  1  0  0  0  0
  6  8  1  0  0  0  0
  6 11  2  0  0  0  0
  7 12  1  0  0  0  0
  8 12  2  0  0  0  0
  9 13  1  0  0  0  0
 10 17  1  0  0  0  0
 11 17  1  0  0  0  0
 12 18  1  0  0  0  0
 14 18  1  0  0  0  0
 15 18  2  0  0  0  0
 16 18  2  0  0  0  0
  1 19  1  0  0  0  0
  2 20  1  0  0  0  0
  3 21  1  0  0  0  0
  4 22  1  0  0  0  0
  5 23  1  0  0  0  0
  6 24  1  0  0  0  0
  7 25  1  0  0  0  0
  8 26  1  0  0  0  0
 13 27  1  0  0  0  0
 13 28  1  0  0  0  0
 14 29  1  0  0  0  0
 14 30  1  0  0  0  0
M  END
> <Mol Weight>
264,30

> <Formula>
C12H12N2O3S

> <ID>
EN300-73545

> <name>
Sulfonamides

> <LogP>
1,25

> <ROCS_ShapeQuery>
x0310_0A_x0719_0A_x1080_0A_x0739_0A_x0929_0A_x0526_0A_x0911_0A

> <ROCS_TanimotoCombo>
0.324 

> <ROCS_ShapeTanimoto>
0.209 

> <ROCS_ColorTanimoto>
0.115 

> <ROCS_RefTversky>
0.198 

> <ROCS_RefColorTversky>
0.135 

> <ROCS_RefTverskyCombo>
0.333 

> <ROCS_FitTversky>
1.358 

> <ROCS_FitColorTversky>
0.432 

> <ROCS_FitTverskyCombo>
1.791 

> <ROCS_ColorScore>
-3.940

> <ROCS_Overlap>
1586.756

> <ROCS_Rank>
175                 

$$$$
untitled-dbase-2746_214
  -OEChem-02092407103D

 33 33  0     1  0  0  0  0  0999 V2000
    4.4022   11.0393   18.6349 C   0  0  0  0  0  0  0  0  0  0  0  0
    3.8117   12.0927   20.7275 C   0  0  0  0  0  0  0  0  0  0  0  0
    3.2088   11.4903   18.0711 C   0  0  0  0  0  0  0  0  0  0  0  0
    2.6182   12.5438   20.1636 C   0  0  0  0  0  0  0  0  0  0  0  0
    4.7036   11.3404   19.9632 C   0  0  0  0  0  0  0  0  0  0  0  0
    2.3168   12.2426   18.8354 C   0  0  0  0  0  0  0  0  0  0  0  0
    6.7313   12.5837   22.1998 C   0  0  0  0  0  0  0  0  0  0  0  0
    6.1182    9.3282   20.5479 C   0  0  0  0  0  0  0  0  0  0  0  0
    6.9802   11.6252   24.5199 C   0  0  0  0  0  0  0  0  0  0  0  0
    5.9981   10.8505   20.5755 C   0  0  2  0  0  0  0  0  0  0  0  0
    6.7682   12.8805   23.6890 C   0  0  1  0  0  0  0  0  0  0  0  0
   -0.2214   11.5063   18.4886 N   0  0  0  0  0  0  0  0  0  0  0  0
    6.1632   11.3491   21.9211 N   0  0  0  0  0  0  0  0  0  0  0  0
    7.1480   13.3734   21.3551 O   0  0  0  0  0  0  0  0  0  0  0  0
    0.3825   13.9835   18.8684 O   0  0  0  0  0  0  0  0  0  0  0  0
    0.9953   12.8859   16.6850 O   0  0  0  0  0  0  0  0  0  0  0  0
    0.8241   12.8091   18.1291 S   0  0  0  0  0  0  0  0  0  0  0  0
    8.1208   14.0126   23.9531 Cl  0  0  0  0  0  0  0  0  0  0  0  0
    5.0908   10.4536   18.0319 H   0  0  0  0  0  0  0  0  0  0  0  0
    4.0379   12.3318   21.7632 H   0  0  0  0  0  0  0  0  0  0  0  0
    2.9834   11.2497   17.0355 H   0  0  0  0  0  0  0  0  0  0  0  0
    1.9303   13.1288   20.7682 H   0  0  0  0  0  0  0  0  0  0  0  0
    5.2981    8.8576   21.1012 H   0  0  0  0  0  0  0  0  0  0  0  0
    6.0873    8.9593   19.5165 H   0  0  0  0  0  0  0  0  0  0  0  0
    7.0622    8.9834   20.9847 H   0  0  0  0  0  0  0  0  0  0  0  0
    7.9017   11.1162   24.2167 H   0  0  0  0  0  0  0  0  0  0  0  0
    7.0686   11.8516   25.5885 H   0  0  0  0  0  0  0  0  0  0  0  0
    6.1499   10.9230   24.3896 H   0  0  0  0  0  0  0  0  0  0  0  0
    6.8423   11.2616   20.0084 H   0  0  0  0  0  0  0  0  0  0  0  0
    5.8453   13.3806   24.0003 H   0  0  0  0  0  0  0  0  0  0  0  0
   -0.9424   11.6508   19.2061 H   0  0  0  0  0  0  0  0  0  0  0  0
   -0.5213   10.9012   17.7146 H   0  0  0  0  0  0  0  0  0  0  0  0
    5.8502   10.7715   22.6957 H   0  0  0  0  0  0  0  0  0  0  0  0
  1  3  2  0  0  0  0
  1  5  1  0  0  0  0
  2  4  1  0  0  0  0
  2  5  2  0  0  0  0
  3  6  1  0  0  0  0
  4  6  2  0  0  0  0
  5 10  1  0  0  0  0
  6 17  1  0  0  0  0
  7 11  1  0  0  0  0
  7 13  1  0  0  0  0
  7 14  2  0  0  0  0
  8 10  1  0  0  0  0
  9 11  1  0  0  0  0
 10 13  1  0  0  0  0
 11 18  1  0  0  0  0
 12 17  1  0  0  0  0
 15 17  2  0  0  0  0
 16 17  2  0  0  0  0
  1 19  1  0  0  0  0
  2 20  1  0  0  0  0
  3 21  1  0  0  0  0
  4 22  1  0  0  0  0
  8 23  1  0  0  0  0
  8 24  1  0  0  0  0
  8 25  1  0  0  0  0
  9 26  1  0  0  0  0
  9 27  1  0  0  0  0
  9 28  1  0  0  0  0
 10 29  1  0  0  0  0
 11 30  1  0  0  0  0
 12 31  1  0  0  0  0
 12 32  1  0  0  0  0
 13 33  1  0  0  0  0
M  END
> <Mol Weight>
290,76

> <Formula>
C11H15ClN2O3S

> <ID>
EN300-28029

> <name>
Sulfonamides

> <LogP>
1,05

> <ROCS_ShapeQuery>
x0310_0A_x0719_0A_x1080_0A_x0739_0A_x0929_0A_x0526_0A_x0911_0A

> <ROCS_TanimotoCombo>
0.324 

> <ROCS_ShapeTanimoto>
0.199 

> <ROCS_ColorTanimoto>
0.124 

> <ROCS_RefTversky>
0.189 

> <ROCS_RefColorTversky>
0.138 

> <ROCS_RefTverskyCombo>
0.327 

> <ROCS_FitTversky>
1.351 

> <ROCS_FitColorTversky>
0.555 

> <ROCS_FitTverskyCombo>
1.906 

> <ROCS_ColorScore>
-4.009

> <ROCS_Overlap>
1518.760

> <ROCS_Rank>
176                 

$$$$
untitled-dbase-1598_72
  -OEChem-02092407103D

 30 31  0     1  0  0  0  0  0999 V2000
   11.2578    9.4526   25.3497 C   0  0  0  0  0  0  0  0  0  0  0  0
   11.8067   10.7440   25.3560 C   0  0  0  0  0  0  0  0  0  0  0  0
   10.0206    9.2093   24.7512 C   0  0  0  0  0  0  0  0  0  0  0  0
   11.1262   11.8109   24.7642 C   0  0  0  0  0  0  0  0  0  0  0  0
    9.3470   10.2754   24.1779 C   0  0  0  0  0  0  0  0  0  0  0  0
    9.8916   11.5671   24.1829 C   0  0  0  0  0  0  0  0  0  0  0  0
    8.0359   10.2478   23.4571 C   0  0  0  0  0  0  0  0  0  0  0  0
    7.6590   11.7359   23.4773 C   0  0  0  0  0  0  0  0  0  0  0  0
    8.9871   12.5217   23.4531 C   0  0  1  0  0  0  0  0  0  0  0  0
    8.8524   13.8982   24.0860 C   0  0  0  0  0  0  0  0  0  0  0  0
    7.5775   14.5922   23.6379 C   0  0  0  0  0  0  0  0  0  0  0  0
    6.0311   15.5699   21.7134 N   0  0  0  0  0  0  0  0  0  0  0  0
    8.5911   15.7092   21.5043 O   0  0  0  0  0  0  0  0  0  0  0  0
    7.4479   13.4664   21.2833 O   0  0  0  0  0  0  0  0  0  0  0  0
    7.5355   14.7862   21.8844 S   0  0  0  0  0  0  0  0  0  0  0  0
   11.8054    8.6344   25.8096 H   0  0  0  0  0  0  0  0  0  0  0  0
   12.7747   10.9129   25.8201 H   0  0  0  0  0  0  0  0  0  0  0  0
    9.6024    8.2085   24.7371 H   0  0  0  0  0  0  0  0  0  0  0  0
   11.5663   12.8022   24.7602 H   0  0  0  0  0  0  0  0  0  0  0  0
    8.1756    9.8871   22.4329 H   0  0  0  0  0  0  0  0  0  0  0  0
    7.2864    9.6399   23.9714 H   0  0  0  0  0  0  0  0  0  0  0  0
    7.0036   12.0050   22.6425 H   0  0  0  0  0  0  0  0  0  0  0  0
    7.1068   11.9510   24.4033 H   0  0  0  0  0  0  0  0  0  0  0  0
    9.3412   12.6178   22.4190 H   0  0  0  0  0  0  0  0  0  0  0  0
    9.7240   14.5063   23.8187 H   0  0  0  0  0  0  0  0  0  0  0  0
    8.8603   13.7972   25.1773 H   0  0  0  0  0  0  0  0  0  0  0  0
    6.6905   14.0147   23.9150 H   0  0  0  0  0  0  0  0  0  0  0  0
    7.4954   15.5937   24.0705 H   0  0  0  0  0  0  0  0  0  0  0  0
    5.1818   15.0167   21.8817 H   0  0  0  0  0  0  0  0  0  0  0  0
    5.9605   16.5441   22.0320 H   0  0  0  0  0  0  0  0  0  0  0  0
  1  2  1  0  0  0  0
  1  3  2  0  0  0  0
  2  4  2  0  0  0  0
  3  5  1  0  0  0  0
  4  6  1  0  0  0  0
  5  6  2  0  0  0  0
  5  7  1  0  0  0  0
  6  9  1  0  0  0  0
  7  8  1  0  0  0  0
  8  9  1  0  0  0  0
  9 10  1  0  0  0  0
 10 11  1  0  0  0  0
 11 15  1  0  0  0  0
 12 15  1  0  0  0  0
 13 15  2  0  0  0  0
 14 15  2  0  0  0  0
  1 16  1  0  0  0  0
  2 17  1  0  0  0  0
  3 18  1  0  0  0  0
  4 19  1  0  0  0  0
  7 20  1  0  0  0  0
  7 21  1  0  0  0  0
  8 22  1  0  0  0  0
  8 23  1  0  0  0  0
  9 24  1  0  0  0  0
 10 25  1  0  0  0  0
 10 26  1  0  0  0  0
 11 27  1  0  0  0  0
 11 28  1  0  0  0  0
 12 29  1  0  0  0  0
 12 30  1  0  0  0  0
M  END
> <Mol Weight>
225,31

> <Formula>
C11H15NO2S

> <ID>
EN300-233478

> <name>
Sulfonamides

> <LogP>
1,41

> <ROCS_ShapeQuery>
x0310_0A_x0719_0A_x1080_0A_x0739_0A_x0929_0A_x0526_0A_x0911_0A

> <ROCS_TanimotoCombo>
0.323 

> <ROCS_ShapeTanimoto>
0.150 

> <ROCS_ColorTanimoto>
0.173 

> <ROCS_RefTversky>
0.147 

> <ROCS_RefColorTversky>
0.180 

> <ROCS_RefTverskyCombo>
0.327 

> <ROCS_FitTversky>
1.152 

> <ROCS_FitColorTversky>
0.831 

> <ROCS_FitTverskyCombo>
1.983 

> <ROCS_ColorScore>
-5.218

> <ROCS_Overlap>
1176.846

> <ROCS_Rank>
177                 

$$$$
untitled-dbase-2362_58
  -OEChem-02092407103D

 31 31  0     0  0  0  0  0  0999 V2000
    5.3369   12.9253   20.7007 C   0  0  0  0  0  0  0  0  0  0  0  0
    5.2298   12.2978   19.4596 C   0  0  0  0  0  0  0  0  0  0  0  0
    3.0051   13.5476   20.5872 C   0  0  0  0  0  0  0  0  0  0  0  0
    4.2245   13.5502   21.2646 C   0  0  0  0  0  0  0  0  0  0  0  0
    4.0105   12.2952   18.7823 C   0  0  0  0  0  0  0  0  0  0  0  0
    2.8981   12.9201   19.3461 C   0  0  0  0  0  0  0  0  0  0  0  0
    6.4326   15.2837   23.4134 C   0  0  0  0  0  0  0  0  0  0  0  0
    7.3162   16.4741   23.2391 C   0  0  0  0  0  0  0  0  0  0  0  0
    3.5720   10.2969   17.5698 C   0  0  0  0  0  0  0  0  0  0  0  0
    4.3401   14.2215   22.5912 C   0  0  0  0  0  0  0  0  0  0  0  0
    0.6533   11.5001   19.1244 N   0  0  0  0  0  0  0  0  0  0  0  0
    5.3216   15.2765   22.5877 N   0  0  0  0  0  0  0  0  0  0  0  0
    6.7303   14.4256   24.2360 O   0  0  0  0  0  0  0  0  0  0  0  0
    0.5923   14.0738   18.9918 O   0  0  0  0  0  0  0  0  0  0  0  0
    1.6035   12.7651   17.0912 O   0  0  0  0  0  0  0  0  0  0  0  0
    3.9295   11.6775   17.5707 O   0  0  0  0  0  0  0  0  0  0  0  0
    1.3584   12.9318   18.5160 S   0  0  0  0  0  0  0  0  0  0  0  0
    6.2907   12.9227   21.2213 H   0  0  0  0  0  0  0  0  0  0  0  0
    6.1003   11.8132   19.0259 H   0  0  0  0  0  0  0  0  0  0  0  0
    2.1398   14.0354   21.0300 H   0  0  0  0  0  0  0  0  0  0  0  0
    7.0334   17.3084   23.9011 H   0  0  0  0  0  0  0  0  0  0  0  0
    8.3689   16.2553   23.4801 H   0  0  0  0  0  0  0  0  0  0  0  0
    7.3346   16.9029   22.2244 H   0  0  0  0  0  0  0  0  0  0  0  0
    3.5434    9.9278   16.5416 H   0  0  0  0  0  0  0  0  0  0  0  0
    2.5933   10.1726   18.0401 H   0  0  0  0  0  0  0  0  0  0  0  0
    4.3197    9.7357   18.1353 H   0  0  0  0  0  0  0  0  0  0  0  0
    3.3814   14.6639   22.8962 H   0  0  0  0  0  0  0  0  0  0  0  0
    4.6262   13.5110   23.3789 H   0  0  0  0  0  0  0  0  0  0  0  0
   -0.1269   11.5914   19.7864 H   0  0  0  0  0  0  0  0  0  0  0  0
    0.5661   10.6983   18.4881 H   0  0  0  0  0  0  0  0  0  0  0  0
    5.1915   16.0554   21.9459 H   0  0  0  0  0  0  0  0  0  0  0  0
  1  2  2  0  0  0  0
  1  4  1  0  0  0  0
  2  5  1  0  0  0  0
  3  4  2  0  0  0  0
  3  6  1  0  0  0  0
  4 10  1  0  0  0  0
  5  6  2  0  0  0  0
  5 16  1  0  0  0  0
  6 17  1  0  0  0  0
  7  8  1  0  0  0  0
  7 12  1  0  0  0  0
  7 13  2  0  0  0  0
  9 16  1  0  0  0  0
 10 12  1  0  0  0  0
 11 17  1  0  0  0  0
 14 17  2  0  0  0  0
 15 17  2  0  0  0  0
  1 18  1  0  0  0  0
  2 19  1  0  0  0  0
  3 20  1  0  0  0  0
  8 21  1  0  0  0  0
  8 22  1  0  0  0  0
  8 23  1  0  0  0  0
  9 24  1  0  0  0  0
  9 25  1  0  0  0  0
  9 26  1  0  0  0  0
 10 27  1  0  0  0  0
 10 28  1  0  0  0  0
 11 29  1  0  0  0  0
 11 30  1  0  0  0  0
 12 31  1  0  0  0  0
M  END
> <Mol Weight>
258,29

> <Formula>
C10H14N2O4S

> <ID>
EN300-1617964

> <name>
Sulfonamides

> <LogP>
-0,63

> <ROCS_ShapeQuery>
x0310_0A_x0719_0A_x1080_0A_x0739_0A_x0929_0A_x0526_0A_x0911_0A

> <ROCS_TanimotoCombo>
0.323 

> <ROCS_ShapeTanimoto>
0.184 

> <ROCS_ColorTanimoto>
0.139 

> <ROCS_RefTversky>
0.177 

> <ROCS_RefColorTversky>
0.156 

> <ROCS_RefTverskyCombo>
0.333 

> <ROCS_FitTversky>
1.286 

> <ROCS_FitColorTversky>
0.558 

> <ROCS_FitTverskyCombo>
1.843 

> <ROCS_ColorScore>
-4.556

> <ROCS_Overlap>
1416.411

> <ROCS_Rank>
178                 

$$$$
untitled-dbase-1718_111
  -OEChem-02092407103D

 30 30  0     1  0  0  0  0  0999 V2000
    9.6090   10.5189   24.3369 C   0  0  0  0  0  0  0  0  0  0  0  0
    8.2318   10.5782   24.5503 C   0  0  0  0  0  0  0  0  0  0  0  0
   10.2090   11.3737   23.4123 C   0  0  0  0  0  0  0  0  0  0  0  0
    7.4546   11.4924   23.8390 C   0  0  0  0  0  0  0  0  0  0  0  0
    9.4318   12.2878   22.7010 C   0  0  0  0  0  0  0  0  0  0  0  0
    8.0546   12.3472   22.9143 C   0  0  0  0  0  0  0  0  0  0  0  0
    5.8806   16.4158   21.3084 C   0  0  0  0  0  0  0  0  0  0  0  0
    7.4526   13.1016   18.4939 C   0  0  0  0  0  0  0  0  0  0  0  0
    7.7504   13.6740   20.7537 C   0  0  0  0  0  0  0  0  0  0  0  0
    7.2139   13.3367   22.1438 C   0  0  2  0  0  0  0  0  0  0  0  0
    5.7210   15.5382   22.4818 N   0  0  0  0  0  0  0  0  0  0  0  0
    6.8146   14.3701   24.5151 O   0  0  0  0  0  0  0  0  0  0  0  0
    8.2579   15.6159   22.8655 O   0  0  0  0  0  0  0  0  0  0  0  0
    7.4204   12.6367   19.8354 O   0  0  0  0  0  0  0  0  0  0  0  0
    7.1001   14.7929   23.1580 S   0  0  0  0  0  0  0  0  0  0  0  0
   10.2142    9.8080   24.8919 H   0  0  0  0  0  0  0  0  0  0  0  0
    7.7646    9.9135   25.2710 H   0  0  0  0  0  0  0  0  0  0  0  0
   11.2813   11.3285   23.2467 H   0  0  0  0  0  0  0  0  0  0  0  0
    6.3823   11.5314   24.0116 H   0  0  0  0  0  0  0  0  0  0  0  0
    9.9079   12.9498   21.9825 H   0  0  0  0  0  0  0  0  0  0  0  0
    6.6762   16.0205   20.6597 H   0  0  0  0  0  0  0  0  0  0  0  0
    4.9351   16.4532   20.7475 H   0  0  0  0  0  0  0  0  0  0  0  0
    6.1492   17.4289   21.6422 H   0  0  0  0  0  0  0  0  0  0  0  0
    7.1953   12.2828   17.8175 H   0  0  0  0  0  0  0  0  0  0  0  0
    8.4515   13.4795   18.2622 H   0  0  0  0  0  0  0  0  0  0  0  0
    6.7244   13.9080   18.3796 H   0  0  0  0  0  0  0  0  0  0  0  0
    8.8416   13.7715   20.7622 H   0  0  0  0  0  0  0  0  0  0  0  0
    7.3303   14.6066   20.3633 H   0  0  0  0  0  0  0  0  0  0  0  0
    6.1829   12.9726   22.0561 H   0  0  0  0  0  0  0  0  0  0  0  0
    4.9908   15.8462   23.1370 H   0  0  0  0  0  0  0  0  0  0  0  0
  1  2  1  0  0  0  0
  1  3  2  0  0  0  0
  2  4  2  0  0  0  0
  3  5  1  0  0  0  0
  4  6  1  0  0  0  0
  5  6  2  0  0  0  0
  6 10  1  0  0  0  0
  7 11  1  0  0  0  0
  8 14  1  0  0  0  0
  9 10  1  0  0  0  0
  9 14  1  0  0  0  0
 10 15  1  0  0  0  0
 11 15  1  0  0  0  0
 12 15  2  0  0  0  0
 13 15  2  0  0  0  0
  1 16  1  0  0  0  0
  2 17  1  0  0  0  0
  3 18  1  0  0  0  0
  4 19  1  0  0  0  0
  5 20  1  0  0  0  0
  7 21  1  0  0  0  0
  7 22  1  0  0  0  0
  7 23  1  0  0  0  0
  8 24  1  0  0  0  0
  8 25  1  0  0  0  0
  8 26  1  0  0  0  0
  9 27  1  0  0  0  0
  9 28  1  0  0  0  0
 10 29  1  0  0  0  0
 11 30  1  0  0  0  0
M  END
> <Mol Weight>
229,29

> <Formula>
C10H15NO3S

> <ID>
EN300-680160

> <name>
Sulfonamides

> <LogP>
0,73

> <ROCS_ShapeQuery>
x0310_0A_x0719_0A_x1080_0A_x0739_0A_x0929_0A_x0526_0A_x0911_0A

> <ROCS_TanimotoCombo>
0.323 

> <ROCS_ShapeTanimoto>
0.164 

> <ROCS_ColorTanimoto>
0.159 

> <ROCS_RefTversky>
0.158 

> <ROCS_RefColorTversky>
0.167 

> <ROCS_RefTverskyCombo>
0.325 

> <ROCS_FitTversky>
1.261 

> <ROCS_FitColorTversky>
0.774 

> <ROCS_FitTverskyCombo>
2.034 

> <ROCS_ColorScore>
-4.848

> <ROCS_Overlap>
1267.646

> <ROCS_Rank>
179                 

$$$$
untitled-dbase-2491_57
  -OEChem-02092407103D

 29 29  0     0  0  0  0  0  0999 V2000
    7.9306   11.8826   24.0001 C   0  0  0  0  0  0  0  0  0  0  0  0
   10.1652   11.1538   23.4414 C   0  0  0  0  0  0  0  0  0  0  0  0
    7.4673   10.5753   23.8525 C   0  0  0  0  0  0  0  0  0  0  0  0
    9.7020    9.8464   23.2938 C   0  0  0  0  0  0  0  0  0  0  0  0
    9.2795   12.1719   23.7945 C   0  0  0  0  0  0  0  0  0  0  0  0
    8.3530    9.5572   23.4994 C   0  0  0  0  0  0  0  0  0  0  0  0
    9.7813   13.5851   23.9539 C   0  0  0  0  0  0  0  0  0  0  0  0
    9.7297   14.4144   22.6640 C   0  0  0  0  0  0  0  0  0  0  0  0
    8.3334   14.6253   22.0898 C   0  0  0  0  0  0  0  0  0  0  0  0
    7.8571    8.1592   23.3434 C   0  0  0  0  0  0  0  0  0  0  0  0
    5.8504   15.5559   22.2306 N   0  0  0  0  0  0  0  0  0  0  0  0
    7.0249   14.6934   24.3504 O   0  0  0  0  0  0  0  0  0  0  0  0
    7.7812   16.8687   23.3104 O   0  0  0  0  0  0  0  0  0  0  0  0
    6.5179    8.0242   23.5764 F   0  0  0  0  0  0  0  0  0  0  0  0
    8.0545    7.6454   22.0934 F   0  0  0  0  0  0  0  0  0  0  0  0
    8.4671    7.2873   24.1982 F   0  0  0  0  0  0  0  0  0  0  0  0
    7.2681   15.5157   23.1773 S   0  0  0  0  0  0  0  0  0  0  0  0
    7.2332   12.6697   24.2749 H   0  0  0  0  0  0  0  0  0  0  0  0
   11.2181   11.3703   23.2804 H   0  0  0  0  0  0  0  0  0  0  0  0
    6.4150   10.3588   24.0162 H   0  0  0  0  0  0  0  0  0  0  0  0
   10.3987    9.0592   23.0182 H   0  0  0  0  0  0  0  0  0  0  0  0
    9.2328   14.0941   24.7551 H   0  0  0  0  0  0  0  0  0  0  0  0
   10.8216   13.5373   24.3016 H   0  0  0  0  0  0  0  0  0  0  0  0
   10.3499   13.9345   21.8970 H   0  0  0  0  0  0  0  0  0  0  0  0
   10.1858   15.3915   22.8662 H   0  0  0  0  0  0  0  0  0  0  0  0
    8.3972   15.2246   21.1757 H   0  0  0  0  0  0  0  0  0  0  0  0
    7.8377   13.6834   21.8413 H   0  0  0  0  0  0  0  0  0  0  0  0
    5.8484   16.1583   21.3983 H   0  0  0  0  0  0  0  0  0  0  0  0
    5.3333   14.6768   22.1068 H   0  0  0  0  0  0  0  0  0  0  0  0
  1  3  2  0  0  0  0
  1  5  1  0  0  0  0
  2  4  1  0  0  0  0
  2  5  2  0  0  0  0
  3  6  1  0  0  0  0
  4  6  2  0  0  0  0
  5  7  1  0  0  0  0
  6 10  1  0  0  0  0
  7  8  1  0  0  0  0
  8  9  1  0  0  0  0
  9 17  1  0  0  0  0
 10 14  1  0  0  0  0
 10 15  1  0  0  0  0
 10 16  1  0  0  0  0
 11 17  1  0  0  0  0
 12 17  2  0  0  0  0
 13 17  2  0  0  0  0
  1 18  1  0  0  0  0
  2 19  1  0  0  0  0
  3 20  1  0  0  0  0
  4 21  1  0  0  0  0
  7 22  1  0  0  0  0
  7 23  1  0  0  0  0
  8 24  1  0  0  0  0
  8 25  1  0  0  0  0
  9 26  1  0  0  0  0
  9 27  1  0  0  0  0
 11 28  1  0  0  0  0
 11 29  1  0  0  0  0
M  END
> <Mol Weight>
267,27

> <Formula>
C10H12F3NO2S

> <ID>
EN300-1629198

> <name>
Sulfonamides

> <LogP>
1,95

> <ROCS_ShapeQuery>
x0310_0A_x0719_0A_x1080_0A_x0739_0A_x0929_0A_x0526_0A_x0911_0A

> <ROCS_TanimotoCombo>
0.323 

> <ROCS_ShapeTanimoto>
0.169 

> <ROCS_ColorTanimoto>
0.154 

> <ROCS_RefTversky>
0.165 

> <ROCS_RefColorTversky>
0.158 

> <ROCS_RefTverskyCombo>
0.322 

> <ROCS_FitTversky>
1.200 

> <ROCS_FitColorTversky>
0.859 

> <ROCS_FitTverskyCombo>
2.058 

> <ROCS_ColorScore>
-4.565

> <ROCS_Overlap>
1318.618

> <ROCS_Rank>
180                 

$$$$
untitled-dbase-1490_1
  -OEChem-02092407103D

 26 27  0     0  0  0  0  0  0999 V2000
    9.2349    9.6247   23.9116 C   0  0  0  0  0  0  0  0  0  0  0  0
    9.9023   10.3509   22.9297 C   0  0  0  0  0  0  0  0  0  0  0  0
    8.2461   10.2368   24.6823 C   0  0  0  0  0  0  0  0  0  0  0  0
    9.5833   11.6920   22.7147 C   0  0  0  0  0  0  0  0  0  0  0  0
    6.9195   12.2180   25.2460 C   0  0  0  0  0  0  0  0  0  0  0  0
    6.6006   13.5591   25.0310 C   0  0  0  0  0  0  0  0  0  0  0  0
    8.2568   13.6732   23.2784 C   0  0  0  0  0  0  0  0  0  0  0  0
    7.9121   11.5858   24.4796 C   0  0  0  0  0  0  0  0  0  0  0  0
    8.5908   12.3242   23.4811 C   0  0  0  0  0  0  0  0  0  0  0  0
    7.2680   14.2853   24.0491 C   0  0  0  0  0  0  0  0  0  0  0  0
    4.3910   15.1329   22.9082 C   0  0  0  0  0  0  0  0  0  0  0  0
    5.6300   15.8642   22.6069 N   0  0  0  0  0  0  0  0  0  0  0  0
    6.3018   16.5117   25.0082 O   0  0  0  0  0  0  0  0  0  0  0  0
    8.0278   16.6077   23.1818 O   0  0  0  0  0  0  0  0  0  0  0  0
    6.8670   15.9639   23.7819 S   0  0  0  0  0  0  0  0  0  0  0  0
    9.4831    8.5804   24.0777 H   0  0  0  0  0  0  0  0  0  0  0  0
   10.6710    9.8732   22.3294 H   0  0  0  0  0  0  0  0  0  0  0  0
    7.7372    9.6498   25.4441 H   0  0  0  0  0  0  0  0  0  0  0  0
   10.1179   12.2399   21.9416 H   0  0  0  0  0  0  0  0  0  0  0  0
    6.3842   11.6694   26.0180 H   0  0  0  0  0  0  0  0  0  0  0  0
    5.8291   14.0268   25.6371 H   0  0  0  0  0  0  0  0  0  0  0  0
    8.7717   14.2507   22.5126 H   0  0  0  0  0  0  0  0  0  0  0  0
    4.2216   15.1296   23.9951 H   0  0  0  0  0  0  0  0  0  0  0  0
    3.5442   15.6242   22.4067 H   0  0  0  0  0  0  0  0  0  0  0  0
    4.4798   14.0973   22.5479 H   0  0  0  0  0  0  0  0  0  0  0  0
    5.8850   15.9287   21.6138 H   0  0  0  0  0  0  0  0  0  0  0  0
  1  2  1  0  0  0  0
  1  3  2  0  0  0  0
  2  4  2  0  0  0  0
  3  8  1  0  0  0  0
  4  9  1  0  0  0  0
  5  6  2  0  0  0  0
  5  8  1  0  0  0  0
  6 10  1  0  0  0  0
  7  9  1  0  0  0  0
  7 10  2  0  0  0  0
  8  9  2  0  0  0  0
 10 15  1  0  0  0  0
 11 12  1  0  0  0  0
 12 15  1  0  0  0  0
 13 15  2  0  0  0  0
 14 15  2  0  0  0  0
  1 16  1  0  0  0  0
  2 17  1  0  0  0  0
  3 18  1  0  0  0  0
  4 19  1  0  0  0  0
  5 20  1  0  0  0  0
  6 21  1  0  0  0  0
  7 22  1  0  0  0  0
 11 23  1  0  0  0  0
 11 24  1  0  0  0  0
 11 25  1  0  0  0  0
 12 26  1  0  0  0  0
M  END
> <Mol Weight>
221,27

> <Formula>
C11H11NO2S

> <ID>
EN300-15844

> <name>
Sulfonamides

> <LogP>
1,79

> <ROCS_ShapeQuery>
x0310_0A_x0719_0A_x1080_0A_x0739_0A_x0929_0A_x0526_0A_x0911_0A

> <ROCS_TanimotoCombo>
0.323 

> <ROCS_ShapeTanimoto>
0.196 

> <ROCS_ColorTanimoto>
0.127 

> <ROCS_RefTversky>
0.185 

> <ROCS_RefColorTversky>
0.137 

> <ROCS_RefTverskyCombo>
0.322 

> <ROCS_FitTversky>
1.430 

> <ROCS_FitColorTversky>
0.632 

> <ROCS_FitTverskyCombo>
2.062 

> <ROCS_ColorScore>
-3.965

> <ROCS_Overlap>
1483.552

> <ROCS_Rank>
181                 

$$$$
untitled-dbase-2553_28
  -OEChem-02092407103D

 30 31  0     0  0  0  0  0  0999 V2000
    2.4842   12.9428   20.4414 C   0  0  0  0  0  0  0  0  0  0  0  0
    3.5141   13.4446   21.2440 C   0  0  0  0  0  0  0  0  0  0  0  0
    5.1964   12.8377   19.5919 C   0  0  0  0  0  0  0  0  0  0  0  0
    4.1745   12.3286   18.7728 C   0  0  0  0  0  0  0  0  0  0  0  0
    2.8558   12.3934   19.2140 C   0  0  0  0  0  0  0  0  0  0  0  0
    4.8468   13.3941   20.8288 C   0  0  0  0  0  0  0  0  0  0  0  0
    3.0038   11.4492   17.2186 C   0  0  0  0  0  0  0  0  0  0  0  0
    0.2966   13.9530   17.2351 C   0  0  0  0  0  0  0  0  0  0  0  0
   -0.0379   12.9933   18.3652 C   0  0  0  0  0  0  0  0  0  0  0  0
    0.6906   11.6617   18.1980 C   0  0  0  0  0  0  0  0  0  0  0  0
    4.2468   11.7393   17.5315 N   0  0  0  0  0  0  0  0  0  0  0  0
    2.1289   11.8238   18.2001 N   0  0  0  0  0  0  0  0  0  0  0  0
    6.1619   15.6570   21.3334 N   0  0  0  0  0  0  0  0  0  0  0  0
    5.6140   14.0090   23.2385 O   0  0  0  0  0  0  0  0  0  0  0  0
    7.3555   13.3824   21.5290 O   0  0  0  0  0  0  0  0  0  0  0  0
    2.4895   10.6846   15.7545 S   0  0  0  0  0  0  0  0  0  0  0  0
    6.0992   14.0353   21.8665 S   0  0  0  0  0  0  0  0  0  0  0  0
    1.4503   12.9833   20.7644 H   0  0  0  0  0  0  0  0  0  0  0  0
    3.2591   13.8805   22.2075 H   0  0  0  0  0  0  0  0  0  0  0  0
    6.2320   12.7988   19.2681 H   0  0  0  0  0  0  0  0  0  0  0  0
    0.0359   13.5208   16.2638 H   0  0  0  0  0  0  0  0  0  0  0  0
    1.3682   14.1758   17.2314 H   0  0  0  0  0  0  0  0  0  0  0  0
   -0.2464   14.8968   17.3485 H   0  0  0  0  0  0  0  0  0  0  0  0
    0.2342   13.4539   19.3225 H   0  0  0  0  0  0  0  0  0  0  0  0
   -1.1219   12.8291   18.3912 H   0  0  0  0  0  0  0  0  0  0  0  0
    0.4116   11.1765   17.2551 H   0  0  0  0  0  0  0  0  0  0  0  0
    0.4326   10.9677   19.0069 H   0  0  0  0  0  0  0  0  0  0  0  0
    6.5663   15.8443   20.4077 H   0  0  0  0  0  0  0  0  0  0  0  0
    5.3777   16.2745   21.5764 H   0  0  0  0  0  0  0  0  0  0  0  0
    3.6867   10.5275   15.1524 H   0  0  0  0  0  0  0  0  0  0  0  0
  1  2  2  0  0  0  0
  1  5  1  0  0  0  0
  2  6  1  0  0  0  0
  3  4  1  0  0  0  0
  3  6  2  0  0  0  0
  4  5  2  0  0  0  0
  4 11  1  0  0  0  0
  5 12  1  0  0  0  0
  6 17  1  0  0  0  0
  7 11  2  0  0  0  0
  7 12  1  0  0  0  0
  7 16  1  0  0  0  0
  8  9  1  0  0  0  0
  9 10  1  0  0  0  0
 10 12  1  0  0  0  0
 13 17  1  0  0  0  0
 14 17  2  0  0  0  0
 15 17  2  0  0  0  0
  1 18  1  0  0  0  0
  2 19  1  0  0  0  0
  3 20  1  0  0  0  0
  8 21  1  0  0  0  0
  8 22  1  0  0  0  0
  8 23  1  0  0  0  0
  9 24  1  0  0  0  0
  9 25  1  0  0  0  0
 10 26  1  0  0  0  0
 10 27  1  0  0  0  0
 13 28  1  0  0  0  0
 13 29  1  0  0  0  0
 16 30  1  0  0  0  0
M  END
> <Mol Weight>
271,35

> <Formula>
C10H13N3O2S2

> <ID>
EN300-11665

> <name>
Sulfonamides

> <LogP>
1,75

> <ROCS_ShapeQuery>
x0310_0A_x0719_0A_x1080_0A_x0739_0A_x0929_0A_x0526_0A_x0911_0A

> <ROCS_TanimotoCombo>
0.323 

> <ROCS_ShapeTanimoto>
0.173 

> <ROCS_ColorTanimoto>
0.150 

> <ROCS_RefTversky>
0.168 

> <ROCS_RefColorTversky>
0.175 

> <ROCS_RefTverskyCombo>
0.343 

> <ROCS_FitTversky>
1.205 

> <ROCS_FitColorTversky>
0.507 

> <ROCS_FitTverskyCombo>
1.712 

> <ROCS_ColorScore>
-5.113

> <ROCS_Overlap>
1347.496

> <ROCS_Rank>
182                 

$$$$
untitled-dbase-763_1
  -OEChem-02092407103D

 20 21  0     0  0  0  0  0  0999 V2000
   11.0335   13.3334   21.9533 C   0  0  0  0  0  0  0  0  0  0  0  0
   10.9369   11.9911   22.3451 C   0  0  0  0  0  0  0  0  0  0  0  0
   10.0100   14.2418   22.2348 C   0  0  0  0  0  0  0  0  0  0  0  0
    9.3177   10.3458   23.5781 C   0  0  0  0  0  0  0  0  0  0  0  0
    8.0852   10.6116   24.1284 C   0  0  0  0  0  0  0  0  0  0  0  0
    9.7842   11.5701   23.0311 C   0  0  0  0  0  0  0  0  0  0  0  0
    8.7877   12.5050   23.2923 C   0  0  0  0  0  0  0  0  0  0  0  0
    8.8553   13.8451   22.9158 C   0  0  0  0  0  0  0  0  0  0  0  0
    6.6423   14.8703   21.8404 N   0  0  0  0  0  0  0  0  0  0  0  0
    6.8404   14.5733   24.3934 O   0  0  0  0  0  0  0  0  0  0  0  0
    8.2144   16.3477   23.2484 O   0  0  0  0  0  0  0  0  0  0  0  0
    7.7547   11.9186   23.9605 O   0  0  0  0  0  0  0  0  0  0  0  0
    7.6068   15.0252   23.2417 S   0  0  0  0  0  0  0  0  0  0  0  0
   11.9196   13.6713   21.4217 H   0  0  0  0  0  0  0  0  0  0  0  0
   11.7401   11.2964   22.1191 H   0  0  0  0  0  0  0  0  0  0  0  0
   10.1252   15.2750   21.9134 H   0  0  0  0  0  0  0  0  0  0  0  0
    9.8182    9.3878   23.5717 H   0  0  0  0  0  0  0  0  0  0  0  0
    7.3552   10.0088   24.6488 H   0  0  0  0  0  0  0  0  0  0  0  0
    5.7222   14.4233   21.9361 H   0  0  0  0  0  0  0  0  0  0  0  0
    6.6631   15.6347   21.1545 H   0  0  0  0  0  0  0  0  0  0  0  0
  1  2  1  0  0  0  0
  1  3  2  0  0  0  0
  2  6  2  0  0  0  0
  3  8  1  0  0  0  0
  4  5  2  0  0  0  0
  4  6  1  0  0  0  0
  5 12  1  0  0  0  0
  6  7  1  0  0  0  0
  7  8  2  0  0  0  0
  7 12  1  0  0  0  0
  8 13  1  0  0  0  0
  9 13  1  0  0  0  0
 10 13  2  0  0  0  0
 11 13  2  0  0  0  0
  1 14  1  0  0  0  0
  2 15  1  0  0  0  0
  3 16  1  0  0  0  0
  4 17  1  0  0  0  0
  5 18  1  0  0  0  0
  9 19  1  0  0  0  0
  9 20  1  0  0  0  0
M  END
> <Mol Weight>
197,21

> <Formula>
C8H7NO3S

> <ID>
EN300-79466

> <name>
Sulfonamides

> <LogP>
0,74

> <ROCS_ShapeQuery>
x0310_0A_x0719_0A_x1080_0A_x0739_0A_x0929_0A_x0526_0A_x0911_0A

> <ROCS_TanimotoCombo>
0.322 

> <ROCS_ShapeTanimoto>
0.172 

> <ROCS_ColorTanimoto>
0.150 

> <ROCS_RefTversky>
0.165 

> <ROCS_RefColorTversky>
0.163 

> <ROCS_RefTverskyCombo>
0.328 

> <ROCS_FitTversky>
1.363 

> <ROCS_FitColorTversky>
0.655 

> <ROCS_FitTverskyCombo>
2.018 

> <ROCS_ColorScore>
-4.743

> <ROCS_Overlap>
1317.652

> <ROCS_Rank>
183                 

$$$$
untitled-dbase-2509_91
  -OEChem-02092407103D

 28 28  0     0  0  0  0  0  0999 V2000
    3.7018   11.9160   20.6349 C   0  0  0  0  0  0  0  0  0  0  0  0
    4.2240   10.8753   18.5180 C   0  0  0  0  0  0  0  0  0  0  0  0
    2.5281   12.4364   20.0896 C   0  0  0  0  0  0  0  0  0  0  0  0
    3.0503   11.3956   17.9727 C   0  0  0  0  0  0  0  0  0  0  0  0
    4.5498   11.1355   19.8491 C   0  0  0  0  0  0  0  0  0  0  0  0
    2.2023   12.1761   18.7585 C   0  0  0  0  0  0  0  0  0  0  0  0
    5.8051   10.5797   20.4316 C   0  0  0  0  0  0  0  0  0  0  0  0
    7.7722   11.1537   21.6821 C   0  0  0  0  0  0  0  0  0  0  0  0
    8.2405   11.6857   23.0131 C   0  0  0  0  0  0  0  0  0  0  0  0
   -0.3706   11.5669   18.4217 N   0  0  0  0  0  0  0  0  0  0  0  0
    6.3525   11.4256   21.4617 N   0  0  0  0  0  0  0  0  0  0  0  0
    0.3529   14.0054   18.8409 O   0  0  0  0  0  0  0  0  0  0  0  0
    0.8949   12.9209   16.6323 O   0  0  0  0  0  0  0  0  0  0  0  0
    9.5532   11.4194   23.1931 F   0  0  0  0  0  0  0  0  0  0  0  0
    8.0798   13.0238   23.0935 F   0  0  0  0  0  0  0  0  0  0  0  0
    7.5646   11.1198   24.0355 F   0  0  0  0  0  0  0  0  0  0  0  0
    0.7322   12.8254   18.0764 S   0  0  0  0  0  0  0  0  0  0  0  0
    3.9475   12.1244   21.6727 H   0  0  0  0  0  0  0  0  0  0  0  0
    4.8788   10.2685   17.8981 H   0  0  0  0  0  0  0  0  0  0  0  0
    1.8747   13.0437   20.7104 H   0  0  0  0  0  0  0  0  0  0  0  0
    2.8063   11.1869   16.9343 H   0  0  0  0  0  0  0  0  0  0  0  0
    5.6312    9.5895   20.8757 H   0  0  0  0  0  0  0  0  0  0  0  0
    6.5825   10.4515   19.6658 H   0  0  0  0  0  0  0  0  0  0  0  0
    7.9146   10.0704   21.6273 H   0  0  0  0  0  0  0  0  0  0  0  0
    8.3293   11.6180   20.8631 H   0  0  0  0  0  0  0  0  0  0  0  0
   -0.2854   10.6920   17.8900 H   0  0  0  0  0  0  0  0  0  0  0  0
   -0.6583   11.4325   19.3987 H   0  0  0  0  0  0  0  0  0  0  0  0
    5.8516   11.2747   22.3430 H   0  0  0  0  0  0  0  0  0  0  0  0
  1  3  2  0  0  0  0
  1  5  1  0  0  0  0
  2  4  1  0  0  0  0
  2  5  2  0  0  0  0
  3  6  1  0  0  0  0
  4  6  2  0  0  0  0
  5  7  1  0  0  0  0
  6 17  1  0  0  0  0
  7 11  1  0  0  0  0
  8  9  1  0  0  0  0
  8 11  1  0  0  0  0
  9 14  1  0  0  0  0
  9 15  1  0  0  0  0
  9 16  1  0  0  0  0
 10 17  1  0  0  0  0
 12 17  2  0  0  0  0
 13 17  2  0  0  0  0
  1 18  1  0  0  0  0
  2 19  1  0  0  0  0
  3 20  1  0  0  0  0
  4 21  1  0  0  0  0
  7 22  1  0  0  0  0
  7 23  1  0  0  0  0
  8 24  1  0  0  0  0
  8 25  1  0  0  0  0
 10 26  1  0  0  0  0
 10 27  1  0  0  0  0
 11 28  1  0  0  0  0
M  END
> <Mol Weight>
268,25

> <Formula>
C9H11F3N2O2S

> <ID>
EN300-13921

> <name>
Sulfonamides

> <LogP>
1,09

> <ROCS_ShapeQuery>
x0310_0A_x0719_0A_x1080_0A_x0739_0A_x0929_0A_x0526_0A_x0911_0A

> <ROCS_TanimotoCombo>
0.322 

> <ROCS_ShapeTanimoto>
0.226 

> <ROCS_ColorTanimoto>
0.096 

> <ROCS_RefTversky>
0.209 

> <ROCS_RefColorTversky>
0.110 

> <ROCS_RefTverskyCombo>
0.319 

> <ROCS_FitTversky>
1.521 

> <ROCS_FitColorTversky>
0.442 

> <ROCS_FitTverskyCombo>
1.963 

> <ROCS_ColorScore>
-3.188

> <ROCS_Overlap>
1678.983

> <ROCS_Rank>
184                 

$$$$
untitled-dbase-2824_36
  -OEChem-02092407103D

 39 40  0     0  0  0  0  0  0999 V2000
    5.3769   12.7785   21.2079 B   0  0  0  0  0  0  0  0  0  0  0  0
    4.6761   11.2269   19.2837 C   0  0  0  0  0  0  0  0  0  0  0  0
    3.7227   10.6970   18.4144 C   0  0  0  0  0  0  0  0  0  0  0  0
    2.9766   12.6059   20.3070 C   0  0  0  0  0  0  0  0  0  0  0  0
    4.3030   12.1813   20.2301 C   0  0  0  0  0  0  0  0  0  0  0  0
    2.3962   11.1215   18.4913 C   0  0  0  0  0  0  0  0  0  0  0  0
    2.0231   12.0760   19.4376 C   0  0  0  0  0  0  0  0  0  0  0  0
    6.2776   13.8874   22.9979 C   0  0  0  0  0  0  0  0  0  0  0  0
    7.4197   13.3058   22.0992 C   0  0  0  0  0  0  0  0  0  0  0  0
    6.0287   13.1150   24.3130 C   0  0  0  0  0  0  0  0  0  0  0  0
    6.4314   15.3744   23.3470 C   0  0  0  0  0  0  0  0  0  0  0  0
    8.4799   12.4935   22.8561 C   0  0  0  0  0  0  0  0  0  0  0  0
    8.1548   14.3484   21.2271 C   0  0  0  0  0  0  0  0  0  0  0  0
    1.4498   10.5708   17.5989 N   0  0  0  0  0  0  0  0  0  0  0  0
   -0.3749   11.7177   18.3304 N   0  0  0  0  0  0  0  0  0  0  0  0
   -0.1575   12.2060   20.8523 O   0  0  0  0  0  0  0  0  0  0  0  0
    0.3296   14.0400   19.1950 O   0  0  0  0  0  0  0  0  0  0  0  0
    5.0747   13.7349   22.1773 O   0  0  0  0  0  0  0  0  0  0  0  0
    6.7194   12.4007   21.1860 O   0  0  0  0  0  0  0  0  0  0  0  0
    0.3679   12.6339   19.5653 S   0  0  0  0  0  0  0  0  0  0  0  0
    5.7037   10.8776   19.2018 H   0  0  0  0  0  0  0  0  0  0  0  0
    4.0248    9.9541   17.6802 H   0  0  0  0  0  0  0  0  0  0  0  0
    2.6706   13.3510   21.0400 H   0  0  0  0  0  0  0  0  0  0  0  0
    5.2249   13.5963   24.8560 H   0  0  0  0  0  0  0  0  0  0  0  0
    6.9354   13.1280   24.9047 H   0  0  0  0  0  0  0  0  0  0  0  0
    5.7560   12.0946   24.0745 H   0  0  0  0  0  0  0  0  0  0  0  0
    5.5981   15.6873   23.9693 H   0  0  0  0  0  0  0  0  0  0  0  0
    6.4418   15.9607   22.4329 H   0  0  0  0  0  0  0  0  0  0  0  0
    7.3628   15.5245   23.8853 H   0  0  0  0  0  0  0  0  0  0  0  0
    9.2268   12.1325   22.1551 H   0  0  0  0  0  0  0  0  0  0  0  0
    8.0052   11.6491   23.3472 H   0  0  0  0  0  0  0  0  0  0  0  0
    8.9559   13.1256   23.6001 H   0  0  0  0  0  0  0  0  0  0  0  0
    8.9196   13.8454   20.6487 H   0  0  0  0  0  0  0  0  0  0  0  0
    8.6066   15.0904   21.8732 H   0  0  0  0  0  0  0  0  0  0  0  0
    7.4390   14.8194   20.5651 H   0  0  0  0  0  0  0  0  0  0  0  0
    0.4908   10.8376   17.6825 H   0  0  0  0  0  0  0  0  0  0  0  0
    1.7397    9.8560   16.9642 H   0  0  0  0  0  0  0  0  0  0  0  0
   -1.0050   10.9558   18.6095 H   0  0  0  0  0  0  0  0  0  0  0  0
   -0.6699   12.2091   17.4779 H   0  0  0  0  0  0  0  0  0  0  0  0
  1  5  1  0  0  0  0
  1 18  1  0  0  0  0
  1 19  1  0  0  0  0
  2  3  2  0  0  0  0
  2  5  1  0  0  0  0
  3  6  1  0  0  0  0
  4  5  2  0  0  0  0
  4  7  1  0  0  0  0
  6  7  2  0  0  0  0
  6 14  1  0  0  0  0
  7 20  1  0  0  0  0
  8  9  1  0  0  0  0
  8 10  1  0  0  0  0
  8 11  1  0  0  0  0
  8 18  1  0  0  0  0
  9 12  1  0  0  0  0
  9 13  1  0  0  0  0
  9 19  1  0  0  0  0
 15 20  1  0  0  0  0
 16 20  2  0  0  0  0
 17 20  2  0  0  0  0
  2 21  1  0  0  0  0
  3 22  1  0  0  0  0
  4 23  1  0  0  0  0
 10 24  1  0  0  0  0
 10 25  1  0  0  0  0
 10 26  1  0  0  0  0
 11 27  1  0  0  0  0
 11 28  1  0  0  0  0
 11 29  1  0  0  0  0
 12 30  1  0  0  0  0
 12 31  1  0  0  0  0
 12 32  1  0  0  0  0
 13 33  1  0  0  0  0
 13 34  1  0  0  0  0
 13 35  1  0  0  0  0
 14 36  1  0  0  0  0
 14 37  1  0  0  0  0
 15 38  1  0  0  0  0
 15 39  1  0  0  0  0
M  END
> <Mol Weight>
298,16

> <Formula>
C12H19BN2O4S

> <ID>
EN300-21666109

> <name>
Sulfonamides

> <LogP>
1,75

> <ROCS_ShapeQuery>
x0310_0A_x0719_0A_x1080_0A_x0739_0A_x0929_0A_x0526_0A_x0911_0A

> <ROCS_TanimotoCombo>
0.322 

> <ROCS_ShapeTanimoto>
0.214 

> <ROCS_ColorTanimoto>
0.108 

> <ROCS_RefTversky>
0.204 

> <ROCS_RefColorTversky>
0.131 

> <ROCS_RefTverskyCombo>
0.335 

> <ROCS_FitTversky>
1.318 

> <ROCS_FitColorTversky>
0.379 

> <ROCS_FitTverskyCombo>
1.697 

> <ROCS_ColorScore>
-3.821

> <ROCS_Overlap>
1634.411

> <ROCS_Rank>
185                 

$$$$
untitled-dbase-2448_5
  -OEChem-02092407103D

 23 23  0     0  0  0  0  0  0999 V2000
    9.5693   10.4967   24.3366 C   0  0  0  0  0  0  0  0  0  0  0  0
   10.1455   11.1544   23.2498 C   0  0  0  0  0  0  0  0  0  0  0  0
    7.5107   11.7099   23.9792 C   0  0  0  0  0  0  0  0  0  0  0  0
    8.2518   10.7745   24.7013 C   0  0  0  0  0  0  0  0  0  0  0  0
    8.0870   12.3676   22.8925 C   0  0  0  0  0  0  0  0  0  0  0  0
    9.4044   12.0898   22.5278 C   0  0  0  0  0  0  0  0  0  0  0  0
    7.6362   10.0684   25.8617 C   0  0  0  0  0  0  0  0  0  0  0  0
    7.2551   13.3622   22.1488 C   0  0  0  0  0  0  0  0  0  0  0  0
    5.7354   15.5191   22.4480 N   0  0  0  0  0  0  0  0  0  0  0  0
    6.7893   14.3905   24.5052 O   0  0  0  0  0  0  0  0  0  0  0  0
    8.2658   15.6548   22.8906 O   0  0  0  0  0  0  0  0  0  0  0  0
    7.1155   14.8055   23.1511 S   0  0  0  0  0  0  0  0  0  0  0  0
   10.2313   12.9585   21.0586 Br  0  0  0  0  0  0  0  0  0  0  0  0
   10.1546    9.7687   24.8924 H   0  0  0  0  0  0  0  0  0  0  0  0
   11.1737   10.9250   22.9815 H   0  0  0  0  0  0  0  0  0  0  0  0
    6.4834   11.9243   24.2643 H   0  0  0  0  0  0  0  0  0  0  0  0
    7.8092   10.6315   26.7870 H   0  0  0  0  0  0  0  0  0  0  0  0
    6.5537    9.9469   25.7257 H   0  0  0  0  0  0  0  0  0  0  0  0
    8.0559    9.0613   25.9836 H   0  0  0  0  0  0  0  0  0  0  0  0
    6.2456   12.9889   21.9494 H   0  0  0  0  0  0  0  0  0  0  0  0
    7.7119   13.6531   21.1974 H   0  0  0  0  0  0  0  0  0  0  0  0
    4.8640   15.5119   22.9921 H   0  0  0  0  0  0  0  0  0  0  0  0
    5.8696   16.3728   21.8923 H   0  0  0  0  0  0  0  0  0  0  0  0
  1  2  2  0  0  0  0
  1  4  1  0  0  0  0
  2  6  1  0  0  0  0
  3  4  2  0  0  0  0
  3  5  1  0  0  0  0
  4  7  1  0  0  0  0
  5  6  2  0  0  0  0
  5  8  1  0  0  0  0
  6 13  1  0  0  0  0
  8 12  1  0  0  0  0
  9 12  1  0  0  0  0
 10 12  2  0  0  0  0
 11 12  2  0  0  0  0
  1 14  1  0  0  0  0
  2 15  1  0  0  0  0
  3 16  1  0  0  0  0
  7 17  1  0  0  0  0
  7 18  1  0  0  0  0
  7 19  1  0  0  0  0
  8 20  1  0  0  0  0
  8 21  1  0  0  0  0
  9 22  1  0  0  0  0
  9 23  1  0  0  0  0
M  END
> <Mol Weight>
264,14

> <Formula>
C8H10BrNO2S

> <ID>
EN300-283785

> <name>
Sulfonamides

> <LogP>
1,62

> <ROCS_ShapeQuery>
x0310_0A_x0719_0A_x1080_0A_x0739_0A_x0929_0A_x0526_0A_x0911_0A

> <ROCS_TanimotoCombo>
0.322 

> <ROCS_ShapeTanimoto>
0.163 

> <ROCS_ColorTanimoto>
0.159 

> <ROCS_RefTversky>
0.156 

> <ROCS_RefColorTversky>
0.167 

> <ROCS_RefTverskyCombo>
0.323 

> <ROCS_FitTversky>
1.359 

> <ROCS_FitColorTversky>
0.773 

> <ROCS_FitTverskyCombo>
2.132 

> <ROCS_ColorScore>
-4.842

> <ROCS_Overlap>
1249.409

> <ROCS_Rank>
186                 

$$$$
untitled-dbase-2603_37
  -OEChem-02092407103D

 29 30  0     1  0  0  0  0  0999 V2000
    6.7094   10.8247   21.1116 C   0  0  0  0  0  0  0  0  0  0  0  0
    5.3303   12.2888   22.4502 C   0  0  0  0  0  0  0  0  0  0  0  0
    5.7910   10.9157   20.0658 C   0  0  0  0  0  0  0  0  0  0  0  0
    4.4119   12.3798   21.4043 C   0  0  0  0  0  0  0  0  0  0  0  0
    6.4791   11.5112   22.3039 C   0  0  0  0  0  0  0  0  0  0  0  0
    4.6422   11.6933   20.2121 C   0  0  0  0  0  0  0  0  0  0  0  0
    9.6911   10.5556   23.3179 C   0  0  0  0  0  0  0  0  0  0  0  0
    8.2322   10.1628   23.5355 C   0  0  0  0  0  0  0  0  0  0  0  0
    9.8820   11.8868   24.0248 C   0  0  0  0  0  0  0  0  0  0  0  0
    7.4299   11.4173   23.3862 N   0  0  1  0  0  0  0  0  0  0  0  0
    2.4554   10.4985   19.2659 N   0  0  0  0  0  0  0  0  0  0  0  0
    8.6667   13.4992   22.3499 O   0  0  0  0  0  0  0  0  0  0  0  0
    7.9829   13.5521   24.7903 O   0  0  0  0  0  0  0  0  0  0  0  0
    2.7494   13.0506   19.0509 O   0  0  0  0  0  0  0  0  0  0  0  0
    4.1845   11.5222   17.6537 O   0  0  0  0  0  0  0  0  0  0  0  0
    8.4273   12.8328   23.6147 S   0  0  0  0  0  0  0  0  0  0  0  0
    3.4926   11.8070   18.9031 S   0  0  0  0  0  0  0  0  0  0  0  0
    7.6015   10.2163   20.9875 H   0  0  0  0  0  0  0  0  0  0  0  0
    5.1414   12.8275   23.3752 H   0  0  0  0  0  0  0  0  0  0  0  0
    5.9803   10.3768   19.1414 H   0  0  0  0  0  0  0  0  0  0  0  0
    3.5199   12.9881   21.5291 H   0  0  0  0  0  0  0  0  0  0  0  0
   10.3799    9.7913   23.6917 H   0  0  0  0  0  0  0  0  0  0  0  0
    9.8807   10.6804   22.2436 H   0  0  0  0  0  0  0  0  0  0  0  0
    7.9137    9.4216   22.7881 H   0  0  0  0  0  0  0  0  0  0  0  0
    8.0908    9.7313   24.5393 H   0  0  0  0  0  0  0  0  0  0  0  0
    9.9027   11.7544   25.1090 H   0  0  0  0  0  0  0  0  0  0  0  0
   10.7733   12.4174   23.6899 H   0  0  0  0  0  0  0  0  0  0  0  0
    2.8127    9.5461   19.1220 H   0  0  0  0  0  0  0  0  0  0  0  0
    1.8300   10.5894   20.0757 H   0  0  0  0  0  0  0  0  0  0  0  0
  1  3  2  0  0  0  0
  1  5  1  0  0  0  0
  2  4  1  0  0  0  0
  2  5  2  0  0  0  0
  3  6  1  0  0  0  0
  4  6  2  0  0  0  0
  5 10  1  0  0  0  0
  6 17  1  0  0  0  0
  7  8  1  0  0  0  0
  7  9  1  0  0  0  0
  8 10  1  0  0  0  0
  9 16  1  0  0  0  0
 10 16  1  0  0  0  0
 11 17  1  0  0  0  0
 12 16  2  0  0  0  0
 13 16  2  0  0  0  0
 14 17  2  0  0  0  0
 15 17  2  0  0  0  0
  1 18  1  0  0  0  0
  2 19  1  0  0  0  0
  3 20  1  0  0  0  0
  4 21  1  0  0  0  0
  7 22  1  0  0  0  0
  7 23  1  0  0  0  0
  8 24  1  0  0  0  0
  8 25  1  0  0  0  0
  9 26  1  0  0  0  0
  9 27  1  0  0  0  0
 11 28  1  0  0  0  0
 11 29  1  0  0  0  0
M  END
> <Mol Weight>
276,33

> <Formula>
C9H12N2O4S2

> <ID>
EN300-1618527

> <name>
Sulfonamides

> <LogP>
-0,78

> <ROCS_ShapeQuery>
x0310_0A_x0719_0A_x1080_0A_x0739_0A_x0929_0A_x0526_0A_x0911_0A

> <ROCS_TanimotoCombo>
0.322 

> <ROCS_ShapeTanimoto>
0.196 

> <ROCS_ColorTanimoto>
0.125 

> <ROCS_RefTversky>
0.187 

> <ROCS_RefColorTversky>
0.146 

> <ROCS_RefTverskyCombo>
0.333 

> <ROCS_FitTversky>
1.367 

> <ROCS_FitColorTversky>
0.468 

> <ROCS_FitTverskyCombo>
1.835 

> <ROCS_ColorScore>
-4.265

> <ROCS_Overlap>
1495.824

> <ROCS_Rank>
187                 

$$$$
untitled-dbase-1395_13
  -OEChem-02092407103D

 23 23  0     1  0  0  0  0  0999 V2000
    8.6528   10.1642   23.7929 C   0  0  0  0  0  0  0  0  0  0  0  0
    9.9483   11.9579   22.8778 C   0  0  0  0  0  0  0  0  0  0  0  0
    7.6872   11.1802   24.3885 C   0  0  0  0  0  0  0  0  0  0  0  0
    8.9871   12.9774   23.4966 C   0  0  1  0  0  0  0  0  0  0  0  0
    7.9665   13.5311   22.5032 C   0  0  0  0  0  0  0  0  0  0  0  0
    9.2668   10.6978   22.5767 N   0  0  0  0  0  0  0  0  0  0  0  0
    6.2104   15.3911   21.7909 N   0  0  0  0  0  0  0  0  0  0  0  0
    6.4888   14.7645   24.2702 O   0  0  0  0  0  0  0  0  0  0  0  0
    8.3239   16.0495   23.1011 O   0  0  0  0  0  0  0  0  0  0  0  0
    8.3449   12.4205   24.6507 O   0  0  0  0  0  0  0  0  0  0  0  0
    7.2741   15.0432   23.0783 S   0  0  0  0  0  0  0  0  0  0  0  0
    9.4340    9.9151   24.5191 H   0  0  0  0  0  0  0  0  0  0  0  0
    8.1236    9.2343   23.5505 H   0  0  0  0  0  0  0  0  0  0  0  0
   10.3884   12.3540   21.9484 H   0  0  0  0  0  0  0  0  0  0  0  0
   10.7862   11.7589   23.5625 H   0  0  0  0  0  0  0  0  0  0  0  0
    6.8728   11.3801   23.6806 H   0  0  0  0  0  0  0  0  0  0  0  0
    7.2270   10.8081   25.3157 H   0  0  0  0  0  0  0  0  0  0  0  0
    9.6008   13.8641   23.8652 H   0  0  0  0  0  0  0  0  0  0  0  0
    7.1471   12.8257   22.3653 H   0  0  0  0  0  0  0  0  0  0  0  0
    8.4394   13.7303   21.5418 H   0  0  0  0  0  0  0  0  0  0  0  0
    9.9513   10.0268   22.2309 H   0  0  0  0  0  0  0  0  0  0  0  0
    6.6231   15.6788   20.8951 H   0  0  0  0  0  0  0  0  0  0  0  0
    5.3733   14.8038   21.6915 H   0  0  0  0  0  0  0  0  0  0  0  0
  1  3  1  0  0  0  0
  1  6  1  0  0  0  0
  2  4  1  0  0  0  0
  2  6  1  0  0  0  0
  3 10  1  0  0  0  0
  4  5  1  6  0  0  0
  4 10  1  0  0  0  0
  5 11  1  0  0  0  0
  7 11  1  0  0  0  0
  8 11  2  0  0  0  0
  9 11  2  0  0  0  0
  1 12  1  0  0  0  0
  1 13  1  0  0  0  0
  2 14  1  0  0  0  0
  2 15  1  0  0  0  0
  3 16  1  0  0  0  0
  3 17  1  0  0  0  0
  4 18  1  0  0  0  0
  5 19  1  0  0  0  0
  5 20  1  0  0  0  0
  6 21  1  0  0  0  0
  7 22  1  0  0  0  0
  7 23  1  0  0  0  0
M  END
> <Mol Weight>
216,68

> <Formula>
C5H13ClN2O3S

> <ID>
EN300-28338720

> <name>
Sulfonamides

> <LogP>
-1,91

> <ROCS_ShapeQuery>
x0310_0A_x0719_0A_x1080_0A_x0739_0A_x0929_0A_x0526_0A_x0911_0A

> <ROCS_TanimotoCombo>
0.322 

> <ROCS_ShapeTanimoto>
0.168 

> <ROCS_ColorTanimoto>
0.154 

> <ROCS_RefTversky>
0.159 

> <ROCS_RefColorTversky>
0.171 

> <ROCS_RefTverskyCombo>
0.330 

> <ROCS_FitTversky>
1.517 

> <ROCS_FitColorTversky>
0.609 

> <ROCS_FitTverskyCombo>
2.126 

> <ROCS_ColorScore>
-4.974

> <ROCS_Overlap>
1270.526

> <ROCS_Rank>
188                 

$$$$
untitled-dbase-2246_56
  -OEChem-02092407103D

 26 27  0     0  0  0  0  0  0999 V2000
    5.6777   10.5462   20.7737 C   0  0  0  0  0  0  0  0  0  0  0  0
    5.5110   12.9360   21.0872 C   0  0  0  0  0  0  0  0  0  0  0  0
    6.6713   10.4873   21.7508 C   0  0  0  0  0  0  0  0  0  0  0  0
    6.5046   12.8771   22.0644 C   0  0  0  0  0  0  0  0  0  0  0  0
    4.0209   11.5028   18.0971 C   0  0  0  0  0  0  0  0  0  0  0  0
    2.7065   11.8033   17.6664 C   0  0  0  0  0  0  0  0  0  0  0  0
    5.0975   11.7706   20.4418 C   0  0  0  0  0  0  0  0  0  0  0  0
    7.0848   11.6528   22.3962 C   0  0  0  0  0  0  0  0  0  0  0  0
    4.0699   11.8313   19.4318 C   0  0  0  0  0  0  0  0  0  0  0  0
    2.0461   12.2937   18.7688 C   0  0  0  0  0  0  0  0  0  0  0  0
    0.7111   12.7558   18.9406 C   0  0  0  0  0  0  0  0  0  0  0  0
    9.7320   11.8016   22.6703 N   0  0  0  0  0  0  0  0  0  0  0  0
    0.3497   13.9431   18.7795 O   0  0  0  0  0  0  0  0  0  0  0  0
    8.1723   12.7259   24.5030 O   0  0  0  0  0  0  0  0  0  0  0  0
    8.3500   10.2340   24.1769 O   0  0  0  0  0  0  0  0  0  0  0  0
    2.8701   12.3140   19.8491 O   0  0  0  0  0  0  0  0  0  0  0  0
    8.3283   11.5792   23.6190 S   0  0  0  0  0  0  0  0  0  0  0  0
    5.3661    9.6291   20.2796 H   0  0  0  0  0  0  0  0  0  0  0  0
    5.0682   13.8980   20.8397 H   0  0  0  0  0  0  0  0  0  0  0  0
    7.1167    9.5283   22.0017 H   0  0  0  0  0  0  0  0  0  0  0  0
    6.8194   13.7911   22.5609 H   0  0  0  0  0  0  0  0  0  0  0  0
    4.8287   11.0985   17.5038 H   0  0  0  0  0  0  0  0  0  0  0  0
    2.2964   11.6773   16.6743 H   0  0  0  0  0  0  0  0  0  0  0  0
   -0.0844   12.0172   19.2415 H   0  0  0  0  0  0  0  0  0  0  0  0
   10.0252   11.0324   22.0557 H   0  0  0  0  0  0  0  0  0  0  0  0
    9.9063   12.7353   22.2790 H   0  0  0  0  0  0  0  0  0  0  0  0
  1  3  2  0  0  0  0
  1  7  1  0  0  0  0
  2  4  1  0  0  0  0
  2  7  2  0  0  0  0
  3  8  1  0  0  0  0
  4  8  2  0  0  0  0
  5  6  1  0  0  0  0
  5  9  2  0  0  0  0
  6 10  2  0  0  0  0
  7  9  1  0  0  0  0
  8 17  1  0  0  0  0
  9 16  1  0  0  0  0
 10 11  1  0  0  0  0
 10 16  1  0  0  0  0
 11 13  2  0  0  0  0
 12 17  1  0  0  0  0
 14 17  2  0  0  0  0
 15 17  2  0  0  0  0
  1 18  1  0  0  0  0
  2 19  1  0  0  0  0
  3 20  1  0  0  0  0
  4 21  1  0  0  0  0
  5 22  1  0  0  0  0
  6 23  1  0  0  0  0
 11 24  1  0  0  0  0
 12 25  1  0  0  0  0
 12 26  1  0  0  0  0
M  END
> <Mol Weight>
251,26

> <Formula>
C11H9NO4S

> <ID>
EN300-08148

> <name>
Sulfonamides

> <LogP>
0,92

> <ROCS_ShapeQuery>
x0310_0A_x0719_0A_x1080_0A_x0739_0A_x0929_0A_x0526_0A_x0911_0A

> <ROCS_TanimotoCombo>
0.321 

> <ROCS_ShapeTanimoto>
0.218 

> <ROCS_ColorTanimoto>
0.104 

> <ROCS_RefTversky>
0.204 

> <ROCS_RefColorTversky>
0.120 

> <ROCS_RefTverskyCombo>
0.324 

> <ROCS_FitTversky>
1.444 

> <ROCS_FitColorTversky>
0.429 

> <ROCS_FitTverskyCombo>
1.873 

> <ROCS_ColorScore>
-3.501

> <ROCS_Overlap>
1635.162

> <ROCS_Rank>
189                 

$$$$
untitled-dbase-2814_43
  -OEChem-02092407103D

 40 41  0     0  0  0  0  0  0999 V2000
    5.8070   13.2957   21.4627 B   0  0  0  0  0  0  0  0  0  0  0  0
    4.4537   12.9201   19.3110 C   0  0  0  0  0  0  0  0  0  0  0  0
    3.5029   12.1602   21.3980 C   0  0  0  0  0  0  0  0  0  0  0  0
    3.3292   12.4552   18.6293 C   0  0  0  0  0  0  0  0  0  0  0  0
    2.3783   11.6953   20.7163 C   0  0  0  0  0  0  0  0  0  0  0  0
    4.5407   12.7726   20.6953 C   0  0  0  0  0  0  0  0  0  0  0  0
    2.2914   11.8428   19.3320 C   0  0  0  0  0  0  0  0  0  0  0  0
    7.1310   14.6251   22.7759 C   0  0  0  0  0  0  0  0  0  0  0  0
    7.9536   13.3998   22.2541 C   0  0  0  0  0  0  0  0  0  0  0  0
    6.7076   14.5390   24.2596 C   0  0  0  0  0  0  0  0  0  0  0  0
    7.8025   15.9881   22.5562 C   0  0  0  0  0  0  0  0  0  0  0  0
    8.7136   12.6281   23.3421 C   0  0  0  0  0  0  0  0  0  0  0  0
    8.9502   13.7227   21.1182 C   0  0  0  0  0  0  0  0  0  0  0  0
    1.0896   11.3448   18.6029 C   0  0  0  0  0  0  0  0  0  0  0  0
   -1.2419   12.0881   17.5719 N   0  0  0  0  0  0  0  0  0  0  0  0
    0.2391   13.8090   18.7810 O   0  0  0  0  0  0  0  0  0  0  0  0
    0.9543   12.9234   16.5250 O   0  0  0  0  0  0  0  0  0  0  0  0
    5.9043   14.5884   21.9776 O   0  0  0  0  0  0  0  0  0  0  0  0
    6.9364   12.5098   21.6915 O   0  0  0  0  0  0  0  0  0  0  0  0
    0.3209   12.7244   17.8175 S   0  0  0  0  0  0  0  0  0  0  0  0
    5.2482   13.3944   18.7379 H   0  0  0  0  0  0  0  0  0  0  0  0
    3.5440   12.0308   22.4780 H   0  0  0  0  0  0  0  0  0  0  0  0
    3.2696   12.5733   17.5507 H   0  0  0  0  0  0  0  0  0  0  0  0
    1.5745   11.2189   21.2714 H   0  0  0  0  0  0  0  0  0  0  0  0
    6.1482   15.4296   24.5173 H   0  0  0  0  0  0  0  0  0  0  0  0
    7.5960   14.4685   24.8746 H   0  0  0  0  0  0  0  0  0  0  0  0
    6.0901   13.6603   24.3980 H   0  0  0  0  0  0  0  0  0  0  0  0
    7.1623   16.7733   22.9476 H   0  0  0  0  0  0  0  0  0  0  0  0
    7.9611   16.1453   21.4933 H   0  0  0  0  0  0  0  0  0  0  0  0
    8.7578   16.0074   23.0726 H   0  0  0  0  0  0  0  0  0  0  0  0
    9.2518   11.8007   22.8889 H   0  0  0  0  0  0  0  0  0  0  0  0
    8.0075   12.2447   24.0729 H   0  0  0  0  0  0  0  0  0  0  0  0
    9.4177   13.2941   23.8323 H   0  0  0  0  0  0  0  0  0  0  0  0
    9.4637   12.8132   20.8328 H   0  0  0  0  0  0  0  0  0  0  0  0
    9.6637   14.4548   21.4749 H   0  0  0  0  0  0  0  0  0  0  0  0
    8.4023   14.1200   20.2730 H   0  0  0  0  0  0  0  0  0  0  0  0
    0.3549   10.8873   19.2752 H   0  0  0  0  0  0  0  0  0  0  0  0
    1.3466   10.6153   17.8263 H   0  0  0  0  0  0  0  0  0  0  0  0
   -1.3533   11.3552   16.8605 H   0  0  0  0  0  0  0  0  0  0  0  0
   -1.8403   11.9586   18.3970 H   0  0  0  0  0  0  0  0  0  0  0  0
  1  6  1  0  0  0  0
  1 18  1  0  0  0  0
  1 19  1  0  0  0  0
  2  4  2  0  0  0  0
  2  6  1  0  0  0  0
  3  5  1  0  0  0  0
  3  6  2  0  0  0  0
  4  7  1  0  0  0  0
  5  7  2  0  0  0  0
  7 14  1  0  0  0  0
  8  9  1  0  0  0  0
  8 10  1  0  0  0  0
  8 11  1  0  0  0  0
  8 18  1  0  0  0  0
  9 12  1  0  0  0  0
  9 13  1  0  0  0  0
  9 19  1  0  0  0  0
 14 20  1  0  0  0  0
 15 20  1  0  0  0  0
 16 20  2  0  0  0  0
 17 20  2  0  0  0  0
  2 21  1  0  0  0  0
  3 22  1  0  0  0  0
  4 23  1  0  0  0  0
  5 24  1  0  0  0  0
 10 25  1  0  0  0  0
 10 26  1  0  0  0  0
 10 27  1  0  0  0  0
 11 28  1  0  0  0  0
 11 29  1  0  0  0  0
 11 30  1  0  0  0  0
 12 31  1  0  0  0  0
 12 32  1  0  0  0  0
 12 33  1  0  0  0  0
 13 34  1  0  0  0  0
 13 35  1  0  0  0  0
 13 36  1  0  0  0  0
 14 37  1  0  0  0  0
 14 38  1  0  0  0  0
 15 39  1  0  0  0  0
 15 40  1  0  0  0  0
M  END
> <Mol Weight>
297,18

> <Formula>
C13H20BNO4S

> <ID>
EN300-12606120

> <name>
Sulfonamides

> <LogP>
2,38

> <ROCS_ShapeQuery>
x0310_0A_x0719_0A_x1080_0A_x0739_0A_x0929_0A_x0526_0A_x0911_0A

> <ROCS_TanimotoCombo>
0.321 

> <ROCS_ShapeTanimoto>
0.221 

> <ROCS_ColorTanimoto>
0.100 

> <ROCS_RefTversky>
0.209 

> <ROCS_RefColorTversky>
0.116 

> <ROCS_RefTverskyCombo>
0.325 

> <ROCS_FitTversky>
1.358 

> <ROCS_FitColorTversky>
0.415 

> <ROCS_FitTverskyCombo>
1.772 

> <ROCS_ColorScore>
-3.390

> <ROCS_Overlap>
1674.679

> <ROCS_Rank>
190                 

$$$$
untitled-dbase-1175_3
  -OEChem-02092407103D

 27 28  0     0  0  0  0  0  0999 V2000
    9.5609   12.8147   22.1957 C   0  0  0  0  0  0  0  0  0  0  0  0
    8.9154   14.0324   22.4209 C   0  0  0  0  0  0  0  0  0  0  0  0
    7.5309   13.0307   24.1535 C   0  0  0  0  0  0  0  0  0  0  0  0
    9.1896   11.7237   22.9634 C   0  0  0  0  0  0  0  0  0  0  0  0
    8.1848   11.8306   23.9320 C   0  0  0  0  0  0  0  0  0  0  0  0
    7.9079   14.1397   23.3929 C   0  0  0  0  0  0  0  0  0  0  0  0
    9.7039   10.3212   22.8816 C   0  0  0  0  0  0  0  0  0  0  0  0
    7.9331   10.5092   24.5868 C   0  0  0  0  0  0  0  0  0  0  0  0
    9.2152    9.7469   24.2199 C   0  0  0  0  0  0  0  0  0  0  0  0
    5.9972   15.9327   21.1402 C   0  0  0  0  0  0  0  0  0  0  0  0
    5.7978   15.5897   22.5556 N   0  0  0  0  0  0  0  0  0  0  0  0
    6.5877   15.7112   25.0046 O   0  0  0  0  0  0  0  0  0  0  0  0
    8.0185   16.7232   23.2010 O   0  0  0  0  0  0  0  0  0  0  0  0
    7.1112   15.6741   23.6455 S   0  0  0  0  0  0  0  0  0  0  0  0
   10.3311   12.7311   21.4365 H   0  0  0  0  0  0  0  0  0  0  0  0
    9.1981   14.8993   21.8289 H   0  0  0  0  0  0  0  0  0  0  0  0
    6.7449   13.1015   24.8986 H   0  0  0  0  0  0  0  0  0  0  0  0
    9.2443    9.7999   22.0357 H   0  0  0  0  0  0  0  0  0  0  0  0
   10.7937   10.2777   22.8030 H   0  0  0  0  0  0  0  0  0  0  0  0
    7.8156   10.5931   25.6710 H   0  0  0  0  0  0  0  0  0  0  0  0
    7.0501   10.0333   24.1481 H   0  0  0  0  0  0  0  0  0  0  0  0
    9.0603    8.6640   24.1786 H   0  0  0  0  0  0  0  0  0  0  0  0
    9.9765    9.9349   24.9901 H   0  0  0  0  0  0  0  0  0  0  0  0
    7.0485   15.7618   20.8655 H   0  0  0  0  0  0  0  0  0  0  0  0
    5.3479   15.3020   20.5152 H   0  0  0  0  0  0  0  0  0  0  0  0
    5.7439   16.9912   20.9804 H   0  0  0  0  0  0  0  0  0  0  0  0
    4.8450   15.7129   22.9192 H   0  0  0  0  0  0  0  0  0  0  0  0
  1  2  2  0  0  0  0
  1  4  1  0  0  0  0
  2  6  1  0  0  0  0
  3  5  1  0  0  0  0
  3  6  2  0  0  0  0
  4  5  2  0  0  0  0
  4  7  1  0  0  0  0
  5  8  1  0  0  0  0
  6 14  1  0  0  0  0
  7  9  1  0  0  0  0
  8  9  1  0  0  0  0
 10 11  1  0  0  0  0
 11 14  1  0  0  0  0
 12 14  2  0  0  0  0
 13 14  2  0  0  0  0
  1 15  1  0  0  0  0
  2 16  1  0  0  0  0
  3 17  1  0  0  0  0
  7 18  1  0  0  0  0
  7 19  1  0  0  0  0
  8 20  1  0  0  0  0
  8 21  1  0  0  0  0
  9 22  1  0  0  0  0
  9 23  1  0  0  0  0
 10 24  1  0  0  0  0
 10 25  1  0  0  0  0
 10 26  1  0  0  0  0
 11 27  1  0  0  0  0
M  END
> <Mol Weight>
211,28

> <Formula>
C10H13NO2S

> <ID>
EN300-1453185

> <name>
Sulfonamides

> <LogP>
1,81

> <ROCS_ShapeQuery>
x0310_0A_x0719_0A_x1080_0A_x0739_0A_x0929_0A_x0526_0A_x0911_0A

> <ROCS_TanimotoCombo>
0.321 

> <ROCS_ShapeTanimoto>
0.190 

> <ROCS_ColorTanimoto>
0.131 

> <ROCS_RefTversky>
0.179 

> <ROCS_RefColorTversky>
0.141 

> <ROCS_RefTverskyCombo>
0.320 

> <ROCS_FitTversky>
1.455 

> <ROCS_FitColorTversky>
0.650 

> <ROCS_FitTverskyCombo>
2.105 

> <ROCS_ColorScore>
-4.084

> <ROCS_Overlap>
1435.109

> <ROCS_Rank>
191                 

$$$$
untitled-dbase-704_117
  -OEChem-02092407103D

 27 27  0     1  0  0  0  0  0999 V2000
   10.2496   11.3026   23.6400 C   0  0  0  0  0  0  0  0  0  0  0  0
    9.3455   12.5348   23.6328 C   0  0  0  0  0  0  0  0  0  0  0  0
    9.4828   10.0618   23.2124 C   0  0  0  0  0  0  0  0  0  0  0  0
    7.7560   10.8990   24.6791 C   0  0  0  0  0  0  0  0  0  0  0  0
    7.8681   12.1657   23.8309 C   0  0  1  0  0  0  0  0  0  0  0  0
    7.0864   13.3240   24.4412 C   0  0  0  0  0  0  0  0  0  0  0  0
    7.1021   14.5388   23.5314 C   0  0  0  0  0  0  0  0  0  0  0  0
    5.9975   15.7598   21.4481 N   0  0  0  0  0  0  0  0  0  0  0  0
    7.3728   13.6136   21.1028 O   0  0  0  0  0  0  0  0  0  0  0  0
    5.1102   13.4718   22.2192 O   0  0  0  0  0  0  0  0  0  0  0  0
    8.3852    9.7663   24.0760 O   0  0  0  0  0  0  0  0  0  0  0  0
    6.3559   14.1779   21.9736 S   0  0  0  0  0  0  0  0  0  0  0  0
   11.0779   11.4749   22.9399 H   0  0  0  0  0  0  0  0  0  0  0  0
   10.6856   11.1592   24.6356 H   0  0  0  0  0  0  0  0  0  0  0  0
    9.6688   13.2216   24.4331 H   0  0  0  0  0  0  0  0  0  0  0  0
    9.4761   13.0828   22.6859 H   0  0  0  0  0  0  0  0  0  0  0  0
    9.0757   10.2059   22.1974 H   0  0  0  0  0  0  0  0  0  0  0  0
   10.1477    9.1802   23.1583 H   0  0  0  0  0  0  0  0  0  0  0  0
    8.1817   11.0480   25.6901 H   0  0  0  0  0  0  0  0  0  0  0  0
    6.6937   10.6375   24.8296 H   0  0  0  0  0  0  0  0  0  0  0  0
    7.4494   11.9483   22.8357 H   0  0  0  0  0  0  0  0  0  0  0  0
    7.5203   13.5756   25.4141 H   0  0  0  0  0  0  0  0  0  0  0  0
    6.0560   13.0034   24.6249 H   0  0  0  0  0  0  0  0  0  0  0  0
    6.5419   15.3717   23.9667 H   0  0  0  0  0  0  0  0  0  0  0  0
    8.1239   14.8708   23.3251 H   0  0  0  0  0  0  0  0  0  0  0  0
    6.5519   16.1432   20.6727 H   0  0  0  0  0  0  0  0  0  0  0  0
    5.0110   16.0467   21.4333 H   0  0  0  0  0  0  0  0  0  0  0  0
  1  2  1  0  0  0  0
  1  3  1  0  0  0  0
  2  5  1  0  0  0  0
  3 11  1  0  0  0  0
  4  5  1  0  0  0  0
  4 11  1  0  0  0  0
  5  6  1  0  0  0  0
  6  7  1  0  0  0  0
  7 12  1  0  0  0  0
  8 12  1  0  0  0  0
  9 12  2  0  0  0  0
 10 12  2  0  0  0  0
  1 13  1  0  0  0  0
  1 14  1  0  0  0  0
  2 15  1  0  0  0  0
  2 16  1  0  0  0  0
  3 17  1  0  0  0  0
  3 18  1  0  0  0  0
  4 19  1  0  0  0  0
  4 20  1  0  0  0  0
  5 21  1  0  0  0  0
  6 22  1  0  0  0  0
  6 23  1  0  0  0  0
  7 24  1  0  0  0  0
  7 25  1  0  0  0  0
  8 26  1  0  0  0  0
  8 27  1  0  0  0  0
M  END
> <Mol Weight>
193,26

> <Formula>
C7H15NO3S

> <ID>
EN300-1671698

> <name>
Sulfonamides

> <LogP>
-0,52

> <ROCS_ShapeQuery>
x0310_0A_x0719_0A_x1080_0A_x0739_0A_x0929_0A_x0526_0A_x0911_0A

> <ROCS_TanimotoCombo>
0.320 

> <ROCS_ShapeTanimoto>
0.156 

> <ROCS_ColorTanimoto>
0.164 

> <ROCS_RefTversky>
0.150 

> <ROCS_RefColorTversky>
0.172 

> <ROCS_RefTverskyCombo>
0.321 

> <ROCS_FitTversky>
1.381 

> <ROCS_FitColorTversky>
0.794 

> <ROCS_FitTverskyCombo>
2.175 

> <ROCS_ColorScore>
-4.977

> <ROCS_Overlap>
1198.774

> <ROCS_Rank>
192                 

$$$$
untitled-dbase-2110_2
  -OEChem-02092407103D

 29 29  0     1  0  0  0  0  0999 V2000
    8.9120   10.3964   22.5050 C   0  0  0  0  0  0  0  0  0  0  0  0
    8.7375    9.9929   23.9649 C   0  0  0  0  0  0  0  0  0  0  0  0
    9.6375   11.7328   22.3655 C   0  0  0  0  0  0  0  0  0  0  0  0
    8.0657   11.0924   24.7844 C   0  0  0  0  0  0  0  0  0  0  0  0
    8.9876   12.8616   23.1837 C   0  0  2  0  0  0  0  0  0  0  0  0
    8.7702   12.4542   24.6609 C   0  0  2  0  0  0  0  0  0  0  0  0
    7.6742   13.3201   22.5367 C   0  0  0  0  0  0  0  0  0  0  0  0
   10.0937   12.4579   25.4370 C   0  0  0  0  0  0  0  0  0  0  0  0
    6.1437   15.3844   21.8679 N   0  0  0  0  0  0  0  0  0  0  0  0
    6.4589   14.7634   24.3441 O   0  0  0  0  0  0  0  0  0  0  0  0
    8.3869   15.7781   23.0639 O   0  0  0  0  0  0  0  0  0  0  0  0
    9.8684   12.1579   26.7237 F   0  0  0  0  0  0  0  0  0  0  0  0
   10.9302   11.5498   24.9157 F   0  0  0  0  0  0  0  0  0  0  0  0
   10.6617   13.6696   25.3632 F   0  0  0  0  0  0  0  0  0  0  0  0
    7.2155   14.9157   23.1102 S   0  0  0  0  0  0  0  0  0  0  0  0
    9.4761    9.6173   21.9739 H   0  0  0  0  0  0  0  0  0  0  0  0
    7.9291   10.4589   22.0205 H   0  0  0  0  0  0  0  0  0  0  0  0
    8.1360    9.0752   24.0225 H   0  0  0  0  0  0  0  0  0  0  0  0
    9.7165    9.7552   24.4006 H   0  0  0  0  0  0  0  0  0  0  0  0
   10.6856   11.6018   22.6770 H   0  0  0  0  0  0  0  0  0  0  0  0
    9.6677   12.0157   21.3005 H   0  0  0  0  0  0  0  0  0  0  0  0
    7.0167   11.1843   24.4623 H   0  0  0  0  0  0  0  0  0  0  0  0
    8.0354   10.7843   25.8422 H   0  0  0  0  0  0  0  0  0  0  0  0
    9.6736   13.7321   23.1697 H   0  0  0  0  0  0  0  0  0  0  0  0
    8.1200   13.2188   25.1311 H   0  0  0  0  0  0  0  0  0  0  0  0
    6.8735   12.6303   22.7904 H   0  0  0  0  0  0  0  0  0  0  0  0
    7.7893   13.3725   21.4574 H   0  0  0  0  0  0  0  0  0  0  0  0
    6.5461   15.6019   20.9479 H   0  0  0  0  0  0  0  0  0  0  0  0
    5.2331   14.9110   21.8201 H   0  0  0  0  0  0  0  0  0  0  0  0
  1  2  1  0  0  0  0
  1  3  1  0  0  0  0
  2  4  1  0  0  0  0
  3  5  1  0  0  0  0
  4  6  1  0  0  0  0
  5  6  1  0  0  0  0
  5  7  1  6  0  0  0
  6  8  1  1  0  0  0
  7 15  1  0  0  0  0
  8 12  1  0  0  0  0
  8 13  1  0  0  0  0
  8 14  1  0  0  0  0
  9 15  1  0  0  0  0
 10 15  2  0  0  0  0
 11 15  2  0  0  0  0
  1 16  1  0  0  0  0
  1 17  1  0  0  0  0
  2 18  1  0  0  0  0
  2 19  1  0  0  0  0
  3 20  1  0  0  0  0
  3 21  1  0  0  0  0
  4 22  1  0  0  0  0
  4 23  1  0  0  0  0
  5 24  1  0  0  0  0
  6 25  1  0  0  0  0
  7 26  1  0  0  0  0
  7 27  1  0  0  0  0
  9 28  1  0  0  0  0
  9 29  1  0  0  0  0
M  END
> <Mol Weight>
245,26

> <Formula>
C8H14F3NO2S

> <ID>
EN300-27733638

> <name>
Sulfonamides

> <LogP>
1,30

> <ROCS_ShapeQuery>
x0310_0A_x0719_0A_x1080_0A_x0739_0A_x0929_0A_x0526_0A_x0911_0A

> <ROCS_TanimotoCombo>
0.320 

> <ROCS_ShapeTanimoto>
0.167 

> <ROCS_ColorTanimoto>
0.154 

> <ROCS_RefTversky>
0.161 

> <ROCS_RefColorTversky>
0.158 

> <ROCS_RefTverskyCombo>
0.319 

> <ROCS_FitTversky>
1.274 

> <ROCS_FitColorTversky>
0.860 

> <ROCS_FitTverskyCombo>
2.134 

> <ROCS_ColorScore>
-4.571

> <ROCS_Overlap>
1287.913

> <ROCS_Rank>
193                 

$$$$
untitled-dbase-2695_4
  -OEChem-02092407103D

 20 20  0     0  0  0  0  0  0999 V2000
    9.5687   10.4949   24.3364 C   0  0  0  0  0  0  0  0  0  0  0  0
   10.1424   11.1493   23.2463 C   0  0  0  0  0  0  0  0  0  0  0  0
    7.5107   11.7102   23.9828 C   0  0  0  0  0  0  0  0  0  0  0  0
    8.0845   12.3647   22.8928 C   0  0  0  0  0  0  0  0  0  0  0  0
    8.2528   10.7754   24.7046 C   0  0  0  0  0  0  0  0  0  0  0  0
    9.4003   12.0842   22.5246 C   0  0  0  0  0  0  0  0  0  0  0  0
    7.2515   13.3581   22.1489 C   0  0  0  0  0  0  0  0  0  0  0  0
    5.7349   15.5173   22.4467 N   0  0  0  0  0  0  0  0  0  0  0  0
    6.7933   14.3929   24.5039 O   0  0  0  0  0  0  0  0  0  0  0  0
    8.2666   15.6516   22.8820 O   0  0  0  0  0  0  0  0  0  0  0  0
    7.1161   14.8041   23.1478 S   0  0  0  0  0  0  0  0  0  0  0  0
    7.5457    9.9676   26.0495 Cl  0  0  0  0  0  0  0  0  0  0  0  0
   10.2239   12.9483   21.0509 Br  0  0  0  0  0  0  0  0  0  0  0  0
   10.1590    9.7694   24.8902 H   0  0  0  0  0  0  0  0  0  0  0  0
   11.1691   10.9176   22.9742 H   0  0  0  0  0  0  0  0  0  0  0  0
    6.4844   11.9314   24.2673 H   0  0  0  0  0  0  0  0  0  0  0  0
    6.2410   12.9853   21.9532 H   0  0  0  0  0  0  0  0  0  0  0  0
    7.7060   13.6462   21.1954 H   0  0  0  0  0  0  0  0  0  0  0  0
    4.8649   15.5125   22.9933 H   0  0  0  0  0  0  0  0  0  0  0  0
    5.8684   16.3695   21.8885 H   0  0  0  0  0  0  0  0  0  0  0  0
  1  2  2  0  0  0  0
  1  5  1  0  0  0  0
  2  6  1  0  0  0  0
  3  4  1  0  0  0  0
  3  5  2  0  0  0  0
  4  6  2  0  0  0  0
  4  7  1  0  0  0  0
  5 12  1  0  0  0  0
  6 13  1  0  0  0  0
  7 11  1  0  0  0  0
  8 11  1  0  0  0  0
  9 11  2  0  0  0  0
 10 11  2  0  0  0  0
  1 14  1  0  0  0  0
  2 15  1  0  0  0  0
  3 16  1  0  0  0  0
  7 17  1  0  0  0  0
  7 18  1  0  0  0  0
  8 19  1  0  0  0  0
  8 20  1  0  0  0  0
M  END
> <Mol Weight>
284,55

> <Formula>
C7H7BrClNO2S

> <ID>
EN300-258582

> <name>
Sulfonamides

> <LogP>
1,71

> <ROCS_ShapeQuery>
x0310_0A_x0719_0A_x1080_0A_x0739_0A_x0929_0A_x0526_0A_x0911_0A

> <ROCS_TanimotoCombo>
0.320 

> <ROCS_ShapeTanimoto>
0.161 

> <ROCS_ColorTanimoto>
0.159 

> <ROCS_RefTversky>
0.155 

> <ROCS_RefColorTversky>
0.167 

> <ROCS_RefTverskyCombo>
0.322 

> <ROCS_FitTversky>
1.357 

> <ROCS_FitColorTversky>
0.773 

> <ROCS_FitTverskyCombo>
2.129 

> <ROCS_ColorScore>
-4.842

> <ROCS_Overlap>
1238.671

> <ROCS_Rank>
194                 

$$$$
untitled-dbase-739_1
  -OEChem-02092407103D

 21 22  0     0  0  0  0  0  0999 V2000
   11.0215   13.3612   21.9699 C   0  0  0  0  0  0  0  0  0  0  0  0
   10.9201   12.0191   22.3473 C   0  0  0  0  0  0  0  0  0  0  0  0
    9.9985   14.2653   22.2489 C   0  0  0  0  0  0  0  0  0  0  0  0
    7.7093   11.7559   23.9803 C   0  0  0  0  0  0  0  0  0  0  0  0
    8.1510   10.4568   24.0814 C   0  0  0  0  0  0  0  0  0  0  0  0
    8.7148   12.5040   23.3063 C   0  0  0  0  0  0  0  0  0  0  0  0
    9.7559   11.6204   23.0135 C   0  0  0  0  0  0  0  0  0  0  0  0
    8.8396   13.8522   22.9161 C   0  0  0  0  0  0  0  0  0  0  0  0
    9.3864   10.3850   23.4957 N   0  0  0  0  0  0  0  0  0  0  0  0
    6.6434   14.8948   21.8231 N   0  0  0  0  0  0  0  0  0  0  0  0
    6.8117   14.5796   24.3762 O   0  0  0  0  0  0  0  0  0  0  0  0
    8.2064   16.3554   23.2586 O   0  0  0  0  0  0  0  0  0  0  0  0
    7.5901   15.0383   23.2368 S   0  0  0  0  0  0  0  0  0  0  0  0
   11.9130   13.7036   21.4507 H   0  0  0  0  0  0  0  0  0  0  0  0
   11.7171   11.3161   22.1297 H   0  0  0  0  0  0  0  0  0  0  0  0
   10.1125   15.3018   21.9400 H   0  0  0  0  0  0  0  0  0  0  0  0
    6.7631   12.1240   24.3526 H   0  0  0  0  0  0  0  0  0  0  0  0
    7.6967    9.5784   24.5176 H   0  0  0  0  0  0  0  0  0  0  0  0
    9.9467    9.5467   23.4267 H   0  0  0  0  0  0  0  0  0  0  0  0
    5.7203   14.4514   21.9056 H   0  0  0  0  0  0  0  0  0  0  0  0
    6.6753   15.6637   21.1427 H   0  0  0  0  0  0  0  0  0  0  0  0
  1  2  1  0  0  0  0
  1  3  2  0  0  0  0
  2  7  2  0  0  0  0
  3  8  1  0  0  0  0
  4  5  2  0  0  0  0
  4  6  1  0  0  0  0
  5  9  1  0  0  0  0
  6  7  1  0  0  0  0
  6  8  2  0  0  0  0
  7  9  1  0  0  0  0
  8 13  1  0  0  0  0
 10 13  1  0  0  0  0
 11 13  2  0  0  0  0
 12 13  2  0  0  0  0
  1 14  1  0  0  0  0
  2 15  1  0  0  0  0
  3 16  1  0  0  0  0
  4 17  1  0  0  0  0
  5 18  1  0  0  0  0
  9 19  1  0  0  0  0
 10 20  1  0  0  0  0
 10 21  1  0  0  0  0
M  END
> <Mol Weight>
196,22

> <Formula>
C8H8N2O2S

> <ID>
EN300-1989567

> <name>
Sulfonamides

> <LogP>
0,68

> <ROCS_ShapeQuery>
x0310_0A_x0719_0A_x1080_0A_x0739_0A_x0929_0A_x0526_0A_x0911_0A

> <ROCS_TanimotoCombo>
0.320 

> <ROCS_ShapeTanimoto>
0.171 

> <ROCS_ColorTanimoto>
0.149 

> <ROCS_RefTversky>
0.164 

> <ROCS_RefColorTversky>
0.162 

> <ROCS_RefTverskyCombo>
0.326 

> <ROCS_FitTversky>
1.361 

> <ROCS_FitColorTversky>
0.650 

> <ROCS_FitTverskyCombo>
2.011 

> <ROCS_ColorScore>
-4.702

> <ROCS_Overlap>
1313.244

> <ROCS_Rank>
195                 

$$$$
untitled-dbase-554_27
  -OEChem-02092407103D

 21 21  0     0  0  0  0  0  0999 V2000
    9.7018   10.5865   23.5537 C   0  0  0  0  0  0  0  0  0  0  0  0
    9.7442   11.9619   23.4902 C   0  0  0  0  0  0  0  0  0  0  0  0
    7.5059   10.6832   24.1847 C   0  0  0  0  0  0  0  0  0  0  0  0
    7.5484   12.0587   24.1220 C   0  0  0  0  0  0  0  0  0  0  0  0
    6.3230   12.8786   24.4461 C   0  0  0  0  0  0  0  0  0  0  0  0
    6.2688   14.1961   23.6824 C   0  0  0  0  0  0  0  0  0  0  0  0
    8.5819    9.9225   23.9020 N   0  0  0  0  0  0  0  0  0  0  0  0
    8.6683   12.7226   23.7733 N   0  0  0  0  0  0  0  0  0  0  0  0
    6.1444   15.6044   21.4346 N   0  0  0  0  0  0  0  0  0  0  0  0
    7.4436   13.3851   21.4939 O   0  0  0  0  0  0  0  0  0  0  0  0
    4.9197   13.3492   21.6111 O   0  0  0  0  0  0  0  0  0  0  0  0
    6.1906   13.9746   21.9326 S   0  0  0  0  0  0  0  0  0  0  0  0
   10.5668    9.9759   23.3263 H   0  0  0  0  0  0  0  0  0  0  0  0
   10.6445   12.4947   23.2102 H   0  0  0  0  0  0  0  0  0  0  0  0
    6.6091   10.1426   24.4638 H   0  0  0  0  0  0  0  0  0  0  0  0
    6.3226   13.0941   25.5227 H   0  0  0  0  0  0  0  0  0  0  0  0
    5.4135   12.2957   24.2524 H   0  0  0  0  0  0  0  0  0  0  0  0
    5.3631   14.7473   23.9552 H   0  0  0  0  0  0  0  0  0  0  0  0
    7.1345   14.8332   23.8875 H   0  0  0  0  0  0  0  0  0  0  0  0
    6.9790   15.9878   20.9742 H   0  0  0  0  0  0  0  0  0  0  0  0
    5.2600   15.9633   21.0542 H   0  0  0  0  0  0  0  0  0  0  0  0
  1  2  2  0  0  0  0
  1  7  1  0  0  0  0
  2  8  1  0  0  0  0
  3  4  1  0  0  0  0
  3  7  2  0  0  0  0
  4  5  1  0  0  0  0
  4  8  2  0  0  0  0
  5  6  1  0  0  0  0
  6 12  1  0  0  0  0
  9 12  1  0  0  0  0
 10 12  2  0  0  0  0
 11 12  2  0  0  0  0
  1 13  1  0  0  0  0
  2 14  1  0  0  0  0
  3 15  1  0  0  0  0
  5 16  1  0  0  0  0
  5 17  1  0  0  0  0
  6 18  1  0  0  0  0
  6 19  1  0  0  0  0
  9 20  1  0  0  0  0
  9 21  1  0  0  0  0
M  END
> <Mol Weight>
187,22

> <Formula>
C6H9N3O2S

> <ID>
EN300-1120885

> <name>
Sulfonamides

> <LogP>
-1,78

> <ROCS_ShapeQuery>
x0310_0A_x0719_0A_x1080_0A_x0739_0A_x0929_0A_x0526_0A_x0911_0A

> <ROCS_TanimotoCombo>
0.320 

> <ROCS_ShapeTanimoto>
0.150 

> <ROCS_ColorTanimoto>
0.170 

> <ROCS_RefTversky>
0.145 

> <ROCS_RefColorTversky>
0.181 

> <ROCS_RefTverskyCombo>
0.326 

> <ROCS_FitTversky>
1.305 

> <ROCS_FitColorTversky>
0.730 

> <ROCS_FitTverskyCombo>
2.035 

> <ROCS_ColorScore>
-5.268

> <ROCS_Overlap>
1162.261

> <ROCS_Rank>
196                 

$$$$
untitled-dbase-2816_33
  -OEChem-02092407103D

 40 41  0     0  0  0  0  0  0999 V2000
    5.9306   12.4233   21.4205 B   0  0  0  0  0  0  0  0  0  0  0  0
    3.4615   13.0780   21.1509 C   0  0  0  0  0  0  0  0  0  0  0  0
    2.2861   13.1699   20.4056 C   0  0  0  0  0  0  0  0  0  0  0  0
    4.5792   12.0653   19.2635 C   0  0  0  0  0  0  0  0  0  0  0  0
    4.6081   12.5258   20.5799 C   0  0  0  0  0  0  0  0  0  0  0  0
    3.4038   12.1571   18.5182 C   0  0  0  0  0  0  0  0  0  0  0  0
    2.2572   12.7094   19.0893 C   0  0  0  0  0  0  0  0  0  0  0  0
    7.4380   11.6878   22.9799 C   0  0  0  0  0  0  0  0  0  0  0  0
    8.0486   12.8766   22.1648 C   0  0  0  0  0  0  0  0  0  0  0  0
    3.4051   11.6552   17.1111 C   0  0  0  0  0  0  0  0  0  0  0  0
    7.9889   10.2932   22.6062 C   0  0  0  0  0  0  0  0  0  0  0  0
    7.5352   11.8395   24.5044 C   0  0  0  0  0  0  0  0  0  0  0  0
    9.4467   12.6084   21.5903 C   0  0  0  0  0  0  0  0  0  0  0  0
    8.0965   14.2245   22.9189 C   0  0  0  0  0  0  0  0  0  0  0  0
    0.0294   11.3456   18.5585 N   0  0  0  0  0  0  0  0  0  0  0  0
   -0.0262   13.9148   18.7628 O   0  0  0  0  0  0  0  0  0  0  0  0
    1.0905   12.8607   16.7654 O   0  0  0  0  0  0  0  0  0  0  0  0
    6.0213   11.7018   22.6108 O   0  0  0  0  0  0  0  0  0  0  0  0
    7.1211   13.0453   21.0445 O   0  0  0  0  0  0  0  0  0  0  0  0
    0.7655   12.8404   18.1835 S   0  0  0  0  0  0  0  0  0  0  0  0
    3.4553   13.4452   22.1755 H   0  0  0  0  0  0  0  0  0  0  0  0
    1.3992   13.6022   20.8613 H   0  0  0  0  0  0  0  0  0  0  0  0
    5.4652   11.6314   18.8020 H   0  0  0  0  0  0  0  0  0  0  0  0
    3.1223   10.5966   17.0856 H   0  0  0  0  0  0  0  0  0  0  0  0
    2.7011   12.2206   16.4884 H   0  0  0  0  0  0  0  0  0  0  0  0
    4.3958   11.7640   16.6529 H   0  0  0  0  0  0  0  0  0  0  0  0
    7.5045    9.5474   23.2239 H   0  0  0  0  0  0  0  0  0  0  0  0
    9.0577   10.2802   22.7789 H   0  0  0  0  0  0  0  0  0  0  0  0
    7.7797   10.1017   21.5612 H   0  0  0  0  0  0  0  0  0  0  0  0
    7.0887   10.9727   24.9828 H   0  0  0  0  0  0  0  0  0  0  0  0
    7.0063   12.7367   24.8125 H   0  0  0  0  0  0  0  0  0  0  0  0
    8.5793   11.9162   24.7938 H   0  0  0  0  0  0  0  0  0  0  0  0
    9.7868   13.4835   21.0443 H   0  0  0  0  0  0  0  0  0  0  0  0
    9.4037   11.7558   20.9189 H   0  0  0  0  0  0  0  0  0  0  0  0
   10.1363   12.3966   22.4023 H   0  0  0  0  0  0  0  0  0  0  0  0
    8.5330   14.9740   22.2707 H   0  0  0  0  0  0  0  0  0  0  0  0
    8.7012   14.1070   23.8094 H   0  0  0  0  0  0  0  0  0  0  0  0
    7.0882   14.5108   23.1904 H   0  0  0  0  0  0  0  0  0  0  0  0
   -0.7866   11.3542   19.1826 H   0  0  0  0  0  0  0  0  0  0  0  0
   -0.0215   10.6350   17.8184 H   0  0  0  0  0  0  0  0  0  0  0  0
  1  5  1  0  0  0  0
  1 18  1  0  0  0  0
  1 19  1  0  0  0  0
  2  3  2  0  0  0  0
  2  5  1  0  0  0  0
  3  7  1  0  0  0  0
  4  5  2  0  0  0  0
  4  6  1  0  0  0  0
  6  7  2  0  0  0  0
  6 10  1  0  0  0  0
  7 20  1  0  0  0  0
  8  9  1  0  0  0  0
  8 11  1  0  0  0  0
  8 12  1  0  0  0  0
  8 18  1  0  0  0  0
  9 13  1  0  0  0  0
  9 14  1  0  0  0  0
  9 19  1  0  0  0  0
 15 20  1  0  0  0  0
 16 20  2  0  0  0  0
 17 20  2  0  0  0  0
  2 21  1  0  0  0  0
  3 22  1  0  0  0  0
  4 23  1  0  0  0  0
 10 24  1  0  0  0  0
 10 25  1  0  0  0  0
 10 26  1  0  0  0  0
 11 27  1  0  0  0  0
 11 28  1  0  0  0  0
 11 29  1  0  0  0  0
 12 30  1  0  0  0  0
 12 31  1  0  0  0  0
 12 32  1  0  0  0  0
 13 33  1  0  0  0  0
 13 34  1  0  0  0  0
 13 35  1  0  0  0  0
 14 36  1  0  0  0  0
 14 37  1  0  0  0  0
 14 38  1  0  0  0  0
 15 39  1  0  0  0  0
 15 40  1  0  0  0  0
M  END
> <Mol Weight>
297,18

> <Formula>
C13H20BNO4S

> <ID>
EN300-2010038

> <name>
Sulfonamides

> <LogP>
3,00

> <ROCS_ShapeQuery>
x0310_0A_x0719_0A_x1080_0A_x0739_0A_x0929_0A_x0526_0A_x0911_0A

> <ROCS_TanimotoCombo>
0.320 

> <ROCS_ShapeTanimoto>
0.224 

> <ROCS_ColorTanimoto>
0.096 

> <ROCS_RefTversky>
0.211 

> <ROCS_RefColorTversky>
0.112 

> <ROCS_RefTverskyCombo>
0.323 

> <ROCS_FitTversky>
1.372 

> <ROCS_FitColorTversky>
0.399 

> <ROCS_FitTverskyCombo>
1.770 

> <ROCS_ColorScore>
-3.257

> <ROCS_Overlap>
1695.990

> <ROCS_Rank>
197                 

$$$$
untitled-dbase-415_23
  -OEChem-02092407103D

 24 24  0     1  0  0  0  0  0999 V2000
    8.2097   10.1771   23.5591 C   0  0  0  0  0  0  0  0  0  0  0  0
    7.5992   11.5500   23.6890 C   0  0  0  0  0  0  0  0  0  0  0  0
    9.5602   10.3719   24.2149 C   0  0  0  0  0  0  0  0  0  0  0  0
    8.8062   12.4412   23.4531 C   0  0  1  0  0  0  0  0  0  0  0  0
    8.6835   13.8086   24.0966 C   0  0  0  0  0  0  0  0  0  0  0  0
    7.4565   14.5546   23.5953 C   0  0  0  0  0  0  0  0  0  0  0  0
    6.0407   15.6177   21.6163 N   0  0  0  0  0  0  0  0  0  0  0  0
    8.6111   15.6716   21.5346 O   0  0  0  0  0  0  0  0  0  0  0  0
    7.4050   13.4739   21.2168 O   0  0  0  0  0  0  0  0  0  0  0  0
    9.9343   11.7417   24.0047 O   0  0  0  0  0  0  0  0  0  0  0  0
    7.5075   14.7794   21.8458 S   0  0  0  0  0  0  0  0  0  0  0  0
    7.6181    9.3857   24.0265 H   0  0  0  0  0  0  0  0  0  0  0  0
    8.3406    9.9269   22.4996 H   0  0  0  0  0  0  0  0  0  0  0  0
    6.7890   11.7343   22.9783 H   0  0  0  0  0  0  0  0  0  0  0  0
    7.2039   11.6819   24.7036 H   0  0  0  0  0  0  0  0  0  0  0  0
    9.5032   10.2051   25.2958 H   0  0  0  0  0  0  0  0  0  0  0  0
   10.3274    9.7122   23.8000 H   0  0  0  0  0  0  0  0  0  0  0  0
    8.9898   12.5541   22.3779 H   0  0  0  0  0  0  0  0  0  0  0  0
    9.5867   14.3954   23.8860 H   0  0  0  0  0  0  0  0  0  0  0  0
    8.6305   13.6974   25.1872 H   0  0  0  0  0  0  0  0  0  0  0  0
    6.5380   14.0036   23.8182 H   0  0  0  0  0  0  0  0  0  0  0  0
    7.3872   15.5509   24.0419 H   0  0  0  0  0  0  0  0  0  0  0  0
    6.0927   16.6141   21.3711 H   0  0  0  0  0  0  0  0  0  0  0  0
    5.2712   15.1173   21.1548 H   0  0  0  0  0  0  0  0  0  0  0  0
  1  2  1  0  0  0  0
  1  3  1  0  0  0  0
  2  4  1  0  0  0  0
  3 10  1  0  0  0  0
  4  5  1  0  0  0  0
  4 10  1  0  0  0  0
  5  6  1  0  0  0  0
  6 11  1  0  0  0  0
  7 11  1  0  0  0  0
  8 11  2  0  0  0  0
  9 11  2  0  0  0  0
  1 12  1  0  0  0  0
  1 13  1  0  0  0  0
  2 14  1  0  0  0  0
  2 15  1  0  0  0  0
  3 16  1  0  0  0  0
  3 17  1  0  0  0  0
  4 18  1  0  0  0  0
  5 19  1  0  0  0  0
  5 20  1  0  0  0  0
  6 21  1  0  0  0  0
  6 22  1  0  0  0  0
  7 23  1  0  0  0  0
  7 24  1  0  0  0  0
M  END
> <Mol Weight>
179,23

> <Formula>
C6H13NO3S

> <ID>
EN300-277364

> <name>
Sulfonamides

> <LogP>
-0,90

> <ROCS_ShapeQuery>
x0310_0A_x0719_0A_x1080_0A_x0739_0A_x0929_0A_x0526_0A_x0911_0A

> <ROCS_TanimotoCombo>
0.320 

> <ROCS_ShapeTanimoto>
0.148 

> <ROCS_ColorTanimoto>
0.172 

> <ROCS_RefTversky>
0.142 

> <ROCS_RefColorTversky>
0.178 

> <ROCS_RefTverskyCombo>
0.320 

> <ROCS_FitTversky>
1.363 

> <ROCS_FitColorTversky>
0.826 

> <ROCS_FitTverskyCombo>
2.190 

> <ROCS_ColorScore>
-5.177

> <ROCS_Overlap>
1136.142

> <ROCS_Rank>
198                 

$$$$
untitled-dbase-2285_7
  -OEChem-02092407103D

 28 29  0     0  0  0  0  0  0999 V2000
    3.3631   10.5758   19.3198 C   0  0  0  0  0  0  0  0  0  0  0  0
    4.1537   11.4619   20.0513 C   0  0  0  0  0  0  0  0  0  0  0  0
    2.4884   11.0610   18.3475 C   0  0  0  0  0  0  0  0  0  0  0  0
    3.1950   13.3186   18.8385 C   0  0  0  0  0  0  0  0  0  0  0  0
    5.3424   13.5711   21.8831 C   0  0  0  0  0  0  0  0  0  0  0  0
    4.0697   12.8333   19.8107 C   0  0  0  0  0  0  0  0  0  0  0  0
    2.4044   12.4324   18.1069 C   0  0  0  0  0  0  0  0  0  0  0  0
    4.8844   13.7453   20.5634 C   0  0  0  0  0  0  0  0  0  0  0  0
    6.0727   14.7044   22.1455 C   0  0  0  0  0  0  0  0  0  0  0  0
    0.7700   11.9433   16.4499 C   0  0  0  0  0  0  0  0  0  0  0  0
    5.2896   14.8985   20.0249 N   0  0  0  0  0  0  0  0  0  0  0  0
    6.0099   15.4592   21.0113 N   0  0  0  0  0  0  0  0  0  0  0  0
    5.7423   16.0978   24.3936 N   0  0  0  0  0  0  0  0  0  0  0  0
    7.3358   14.0723   24.3314 O   0  0  0  0  0  0  0  0  0  0  0  0
    7.9804   16.1856   23.1207 O   0  0  0  0  0  0  0  0  0  0  0  0
    1.5495   12.9052   17.1591 O   0  0  0  0  0  0  0  0  0  0  0  0
    6.9655   15.2468   23.5631 S   0  0  0  0  0  0  0  0  0  0  0  0
    3.4282    9.5078   19.5070 H   0  0  0  0  0  0  0  0  0  0  0  0
    4.8308   11.0675   20.8056 H   0  0  0  0  0  0  0  0  0  0  0  0
    1.8744   10.3661   17.7808 H   0  0  0  0  0  0  0  0  0  0  0  0
    3.1229   14.3863   18.6425 H   0  0  0  0  0  0  0  0  0  0  0  0
    5.1705   12.7416   22.5542 H   0  0  0  0  0  0  0  0  0  0  0  0
    0.1317   12.4538   15.7247 H   0  0  0  0  0  0  0  0  0  0  0  0
    0.1572   11.3775   17.1561 H   0  0  0  0  0  0  0  0  0  0  0  0
    1.4411   11.2601   15.9240 H   0  0  0  0  0  0  0  0  0  0  0  0
    6.4323   16.3633   20.8408 H   0  0  0  0  0  0  0  0  0  0  0  0
    5.4303   16.9941   24.0005 H   0  0  0  0  0  0  0  0  0  0  0  0
    4.9897   15.5514   24.8299 H   0  0  0  0  0  0  0  0  0  0  0  0
  1  2  1  0  0  0  0
  1  3  2  0  0  0  0
  2  6  2  0  0  0  0
  3  7  1  0  0  0  0
  4  6  1  0  0  0  0
  4  7  2  0  0  0  0
  5  8  1  0  0  0  0
  5  9  2  0  0  0  0
  6  8  1  0  0  0  0
  7 16  1  0  0  0  0
  8 11  2  0  0  0  0
  9 12  1  0  0  0  0
  9 17  1  0  0  0  0
 10 16  1  0  0  0  0
 11 12  1  0  0  0  0
 13 17  1  0  0  0  0
 14 17  2  0  0  0  0
 15 17  2  0  0  0  0
  1 18  1  0  0  0  0
  2 19  1  0  0  0  0
  3 20  1  0  0  0  0
  4 21  1  0  0  0  0
  5 22  1  0  0  0  0
 10 23  1  0  0  0  0
 10 24  1  0  0  0  0
 10 25  1  0  0  0  0
 12 26  1  0  0  0  0
 13 27  1  0  0  0  0
 13 28  1  0  0  0  0
M  END
> <Mol Weight>
253,28

> <Formula>
C10H11N3O3S

> <ID>
EN300-7424825

> <name>
Sulfonamides

> <LogP>
0,85

> <ROCS_ShapeQuery>
x0310_0A_x0719_0A_x1080_0A_x0739_0A_x0929_0A_x0526_0A_x0911_0A

> <ROCS_TanimotoCombo>
0.319 

> <ROCS_ShapeTanimoto>
0.182 

> <ROCS_ColorTanimoto>
0.137 

> <ROCS_RefTversky>
0.176 

> <ROCS_RefColorTversky>
0.158 

> <ROCS_RefTverskyCombo>
0.334 

> <ROCS_FitTversky>
1.247 

> <ROCS_FitColorTversky>
0.505 

> <ROCS_FitTverskyCombo>
1.752 

> <ROCS_ColorScore>
-4.607

> <ROCS_Overlap>
1411.754

> <ROCS_Rank>
199                 

$$$$
untitled-dbase-2074_90
  -OEChem-02092407103D

 29 29  0     1  0  0  0  0  0999 V2000
   10.1728   11.3351   23.3453 C   0  0  0  0  0  0  0  0  0  0  0  0
    9.6235   10.4744   24.2957 C   0  0  0  0  0  0  0  0  0  0  0  0
    9.3488   12.2112   22.6389 C   0  0  0  0  0  0  0  0  0  0  0  0
    7.4262   11.3659   23.8330 C   0  0  0  0  0  0  0  0  0  0  0  0
    8.2502   10.4898   24.5395 C   0  0  0  0  0  0  0  0  0  0  0  0
    7.9755   12.2266   22.8827 C   0  0  0  0  0  0  0  0  0  0  0  0
    7.6780    9.5928   25.5308 C   0  0  0  0  0  0  0  0  0  0  0  0
    5.6465   12.7007   21.9443 C   0  0  0  0  0  0  0  0  0  0  0  0
    5.6419    8.9226   26.5786 C   0  0  0  0  0  0  0  0  0  0  0  0
    7.0942   13.1634   22.1272 C   0  0  1  0  0  0  0  0  0  0  0  0
    5.7143   15.4211   22.3504 N   0  0  0  0  0  0  0  0  0  0  0  0
    8.3313    8.7844   26.2037 O   0  0  0  0  0  0  0  0  0  0  0  0
    6.9794   14.4784   24.3821 O   0  0  0  0  0  0  0  0  0  0  0  0
    8.2840   15.4663   22.4567 O   0  0  0  0  0  0  0  0  0  0  0  0
    6.3228    9.7523   25.6311 O   0  0  0  0  0  0  0  0  0  0  0  0
    7.1443   14.7290   22.9642 S   0  0  0  0  0  0  0  0  0  0  0  0
   11.2420   11.3223   23.1546 H   0  0  0  0  0  0  0  0  0  0  0  0
   10.2749    9.7961   24.8408 H   0  0  0  0  0  0  0  0  0  0  0  0
    9.7855   12.8788   21.9007 H   0  0  0  0  0  0  0  0  0  0  0  0
    6.3549   11.3785   24.0211 H   0  0  0  0  0  0  0  0  0  0  0  0
    5.1843   12.4852   22.9136 H   0  0  0  0  0  0  0  0  0  0  0  0
    5.0352   13.4540   21.4364 H   0  0  0  0  0  0  0  0  0  0  0  0
    5.5994   11.7902   21.3367 H   0  0  0  0  0  0  0  0  0  0  0  0
    4.5729    9.1481   26.5595 H   0  0  0  0  0  0  0  0  0  0  0  0
    6.0454    9.1028   27.5782 H   0  0  0  0  0  0  0  0  0  0  0  0
    5.7959    7.8751   26.3090 H   0  0  0  0  0  0  0  0  0  0  0  0
    7.5039   13.3640   21.1231 H   0  0  0  0  0  0  0  0  0  0  0  0
    4.9160   15.5201   22.9896 H   0  0  0  0  0  0  0  0  0  0  0  0
    5.8046   16.1927   21.6782 H   0  0  0  0  0  0  0  0  0  0  0  0
  1  2  2  0  0  0  0
  1  3  1  0  0  0  0
  2  5  1  0  0  0  0
  3  6  2  0  0  0  0
  4  5  2  0  0  0  0
  4  6  1  0  0  0  0
  5  7  1  0  0  0  0
  6 10  1  0  0  0  0
  7 12  2  0  0  0  0
  7 15  1  0  0  0  0
  8 10  1  0  0  0  0
  9 15  1  0  0  0  0
 10 16  1  0  0  0  0
 11 16  1  0  0  0  0
 13 16  2  0  0  0  0
 14 16  2  0  0  0  0
  1 17  1  0  0  0  0
  2 18  1  0  0  0  0
  3 19  1  0  0  0  0
  4 20  1  0  0  0  0
  8 21  1  0  0  0  0
  8 22  1  0  0  0  0
  8 23  1  0  0  0  0
  9 24  1  0  0  0  0
  9 25  1  0  0  0  0
  9 26  1  0  0  0  0
 10 27  1  0  0  0  0
 11 28  1  0  0  0  0
 11 29  1  0  0  0  0
M  END
> <Mol Weight>
243,28

> <Formula>
C10H13NO4S

> <ID>
EN300-39918555

> <name>
Sulfonamides

> <LogP>
0,91

> <ROCS_ShapeQuery>
x0310_0A_x0719_0A_x1080_0A_x0739_0A_x0929_0A_x0526_0A_x0911_0A

> <ROCS_TanimotoCombo>
0.319 

> <ROCS_ShapeTanimoto>
0.161 

> <ROCS_ColorTanimoto>
0.159 

> <ROCS_RefTversky>
0.157 

> <ROCS_RefColorTversky>
0.166 

> <ROCS_RefTverskyCombo>
0.323 

> <ROCS_FitTversky>
1.183 

> <ROCS_FitColorTversky>
0.770 

> <ROCS_FitTverskyCombo>
1.954 

> <ROCS_ColorScore>
-4.828

> <ROCS_Overlap>
1256.282

> <ROCS_Rank>
200                 

$$$$
untitled-dbase-1339_295
  -OEChem-02092407103D

 27 27  0     0  0  0  0  0  0999 V2000
   10.0431   10.9810   23.0747 C   0  0  0  0  0  0  0  0  0  0  0  0
    9.6195   10.4610   24.2977 C   0  0  0  0  0  0  0  0  0  0  0  0
    9.2233   11.8626   22.3701 C   0  0  0  0  0  0  0  0  0  0  0  0
    7.5562   11.7041   24.1115 C   0  0  0  0  0  0  0  0  0  0  0  0
    8.3761   10.8225   24.8161 C   0  0  0  0  0  0  0  0  0  0  0  0
    7.9798   12.2241   22.8885 C   0  0  0  0  0  0  0  0  0  0  0  0
    5.7659    9.5321   25.5564 C   0  0  0  0  0  0  0  0  0  0  0  0
    7.9245   10.2673   26.1246 C   0  0  0  0  0  0  0  0  0  0  0  0
    7.1029   13.1662   22.1347 C   0  0  0  0  0  0  0  0  0  0  0  0
    5.7137   15.4196   22.3434 N   0  0  0  0  0  0  0  0  0  0  0  0
    6.9698   14.4870   24.3852 O   0  0  0  0  0  0  0  0  0  0  0  0
    8.2826   15.4743   22.4650 O   0  0  0  0  0  0  0  0  0  0  0  0
    6.5281   10.4911   26.2761 O   0  0  0  0  0  0  0  0  0  0  0  0
    7.1421   14.7234   22.9619 S   0  0  0  0  0  0  0  0  0  0  0  0
   11.0115   10.6995   22.6711 H   0  0  0  0  0  0  0  0  0  0  0  0
   10.2654    9.7752   24.8399 H   0  0  0  0  0  0  0  0  0  0  0  0
    9.5611   12.2622   21.4176 H   0  0  0  0  0  0  0  0  0  0  0  0
    6.5871   11.9870   24.5157 H   0  0  0  0  0  0  0  0  0  0  0  0
    4.7009    9.7337   25.6949 H   0  0  0  0  0  0  0  0  0  0  0  0
    6.0076    8.5288   25.9163 H   0  0  0  0  0  0  0  0  0  0  0  0
    6.0133    9.6056   24.4948 H   0  0  0  0  0  0  0  0  0  0  0  0
    8.1158    9.1873   26.1892 H   0  0  0  0  0  0  0  0  0  0  0  0
    8.4515   10.7453   26.9616 H   0  0  0  0  0  0  0  0  0  0  0  0
    6.0610   12.8282   22.1013 H   0  0  0  0  0  0  0  0  0  0  0  0
    7.4475   13.3222   21.1061 H   0  0  0  0  0  0  0  0  0  0  0  0
    4.9159   15.5215   22.9827 H   0  0  0  0  0  0  0  0  0  0  0  0
    5.8100   16.1937   21.6747 H   0  0  0  0  0  0  0  0  0  0  0  0
  1  2  2  0  0  0  0
  1  3  1  0  0  0  0
  2  5  1  0  0  0  0
  3  6  2  0  0  0  0
  4  5  2  0  0  0  0
  4  6  1  0  0  0  0
  5  8  1  0  0  0  0
  6  9  1  0  0  0  0
  7 13  1  0  0  0  0
  8 13  1  0  0  0  0
  9 14  1  0  0  0  0
 10 14  1  0  0  0  0
 11 14  2  0  0  0  0
 12 14  2  0  0  0  0
  1 15  1  0  0  0  0
  2 16  1  0  0  0  0
  3 17  1  0  0  0  0
  4 18  1  0  0  0  0
  7 19  1  0  0  0  0
  7 20  1  0  0  0  0
  7 21  1  0  0  0  0
  8 22  1  0  0  0  0
  8 23  1  0  0  0  0
  9 24  1  0  0  0  0
  9 25  1  0  0  0  0
 10 26  1  0  0  0  0
 10 27  1  0  0  0  0
M  END
> <Mol Weight>
215,27

> <Formula>
C9H13NO3S

> <ID>
EN300-198672

> <name>
Sulfonamides

> <LogP>
0,22

> <ROCS_ShapeQuery>
x0310_0A_x0719_0A_x1080_0A_x0739_0A_x0929_0A_x0526_0A_x0911_0A

> <ROCS_TanimotoCombo>
0.319 

> <ROCS_ShapeTanimoto>
0.161 

> <ROCS_ColorTanimoto>
0.158 

> <ROCS_RefTversky>
0.155 

> <ROCS_RefColorTversky>
0.166 

> <ROCS_RefTverskyCombo>
0.321 

> <ROCS_FitTversky>
1.284 

> <ROCS_FitColorTversky>
0.770 

> <ROCS_FitTverskyCombo>
2.054 

> <ROCS_ColorScore>
-4.824

> <ROCS_Overlap>
1242.553

> <ROCS_Rank>
201                 

$$$$
untitled-dbase-2592_490
  -OEChem-02092407103D

 35 35  0     0  0  0  0  0  0999 V2000
    2.9269   12.4190   19.8674 C   0  0  0  0  0  0  0  0  0  0  0  0
    1.8491   12.6006   19.1002 C   0  0  0  0  0  0  0  0  0  0  0  0
    1.9346   12.3651   17.6437 C   0  0  0  0  0  0  0  0  0  0  0  0
    4.3356   11.7803   17.9898 C   0  0  0  0  0  0  0  0  0  0  0  0
    7.4255   14.6969   25.6226 C   0  0  0  0  0  0  0  0  0  0  0  0
    7.4524   13.6239   24.5451 C   0  0  0  0  0  0  0  0  0  0  0  0
    6.2850   13.7167   23.5602 C   0  0  0  0  0  0  0  0  0  0  0  0
    6.3553   12.6796   22.4365 C   0  0  0  0  0  0  0  0  0  0  0  0
    5.1809   12.8372   21.4647 C   0  0  0  0  0  0  0  0  0  0  0  0
    5.2520   11.8568   20.2980 C   0  0  0  0  0  0  0  0  0  0  0  0
    3.1910   11.9726   17.2049 N   0  0  0  0  0  0  0  0  0  0  0  0
    4.1639   12.0190   19.3731 N   0  0  0  0  0  0  0  0  0  0  0  0
    0.8071   13.2214   21.5319 N   0  0  0  0  0  0  0  0  0  0  0  0
    0.9665   12.5113   16.9039 O   0  0  0  0  0  0  0  0  0  0  0  0
    5.4026   11.4269   17.4831 O   0  0  0  0  0  0  0  0  0  0  0  0
    0.0600   14.4383   19.4068 O   0  0  0  0  0  0  0  0  0  0  0  0
   -0.5873   12.0317   19.7414 O   0  0  0  0  0  0  0  0  0  0  0  0
    0.3966   13.0980   19.8672 S   0  0  0  0  0  0  0  0  0  0  0  0
    2.8958   12.5789   20.9409 H   0  0  0  0  0  0  0  0  0  0  0  0
    7.4115   15.6980   25.1803 H   0  0  0  0  0  0  0  0  0  0  0  0
    6.5513   14.5925   26.2719 H   0  0  0  0  0  0  0  0  0  0  0  0
    8.3169   14.6176   26.2533 H   0  0  0  0  0  0  0  0  0  0  0  0
    7.4660   12.6341   25.0159 H   0  0  0  0  0  0  0  0  0  0  0  0
    8.3889   13.7197   23.9825 H   0  0  0  0  0  0  0  0  0  0  0  0
    5.3373   13.6115   24.1023 H   0  0  0  0  0  0  0  0  0  0  0  0
    6.2876   14.7220   23.1210 H   0  0  0  0  0  0  0  0  0  0  0  0
    6.3435   11.6702   22.8616 H   0  0  0  0  0  0  0  0  0  0  0  0
    7.2997   12.7930   21.8909 H   0  0  0  0  0  0  0  0  0  0  0  0
    4.2361   12.7031   22.0057 H   0  0  0  0  0  0  0  0  0  0  0  0
    5.1810   13.8576   21.0626 H   0  0  0  0  0  0  0  0  0  0  0  0
    5.2383   10.8213   20.6525 H   0  0  0  0  0  0  0  0  0  0  0  0
    6.1762   12.0128   19.7328 H   0  0  0  0  0  0  0  0  0  0  0  0
    3.2925   11.8034   16.2080 H   0  0  0  0  0  0  0  0  0  0  0  0
    0.3860   12.5345   22.1702 H   0  0  0  0  0  0  0  0  0  0  0  0
    0.8288   14.1686   21.9312 H   0  0  0  0  0  0  0  0  0  0  0  0
  1  2  2  0  0  0  0
  1 12  1  0  0  0  0
  2  3  1  0  0  0  0
  2 18  1  0  0  0  0
  3 11  1  0  0  0  0
  3 14  2  0  0  0  0
  4 11  1  0  0  0  0
  4 12  1  0  0  0  0
  4 15  2  0  0  0  0
  5  6  1  0  0  0  0
  6  7  1  0  0  0  0
  7  8  1  0  0  0  0
  8  9  1  0  0  0  0
  9 10  1  0  0  0  0
 10 12  1  0  0  0  0
 13 18  1  0  0  0  0
 16 18  2  0  0  0  0
 17 18  2  0  0  0  0
  1 19  1  0  0  0  0
  5 20  1  0  0  0  0
  5 21  1  0  0  0  0
  5 22  1  0  0  0  0
  6 23  1  0  0  0  0
  6 24  1  0  0  0  0
  7 25  1  0  0  0  0
  7 26  1  0  0  0  0
  8 27  1  0  0  0  0
  8 28  1  0  0  0  0
  9 29  1  0  0  0  0
  9 30  1  0  0  0  0
 10 31  1  0  0  0  0
 10 32  1  0  0  0  0
 11 33  1  0  0  0  0
 13 34  1  0  0  0  0
 13 35  1  0  0  0  0
M  END
> <Mol Weight>
275,32

> <Formula>
C10H17N3O4S

> <ID>
EN300-366415

> <name>
Sulfonamides

> <LogP>
0,24

> <ROCS_ShapeQuery>
x0310_0A_x0719_0A_x1080_0A_x0739_0A_x0929_0A_x0526_0A_x0911_0A

> <ROCS_TanimotoCombo>
0.319 

> <ROCS_ShapeTanimoto>
0.205 

> <ROCS_ColorTanimoto>
0.114 

> <ROCS_RefTversky>
0.194 

> <ROCS_RefColorTversky>
0.138 

> <ROCS_RefTverskyCombo>
0.332 

> <ROCS_FitTversky>
1.375 

> <ROCS_FitColorTversky>
0.400 

> <ROCS_FitTverskyCombo>
1.775 

> <ROCS_ColorScore>
-4.030

> <ROCS_Overlap>
1554.211

> <ROCS_Rank>
202                 

$$$$
untitled-dbase-2751_19
  -OEChem-02092407103D

 27 28  0     0  0  0  0  0  0999 V2000
    3.5822   11.1886   17.1193 C   0  0  0  0  0  0  0  0  0  0  0  0
    2.2520   11.4622   17.4374 C   0  0  0  0  0  0  0  0  0  0  0  0
    4.6010   11.5717   17.9917 C   0  0  0  0  0  0  0  0  0  0  0  0
    2.9592   12.5021   19.5003 C   0  0  0  0  0  0  0  0  0  0  0  0
    7.1481   12.5550   21.0394 C   0  0  0  0  0  0  0  0  0  0  0  0
    5.2669   13.6831   20.8854 C   0  0  0  0  0  0  0  0  0  0  0  0
    1.9405   12.1190   18.6279 C   0  0  0  0  0  0  0  0  0  0  0  0
    4.2895   12.2284   19.1822 C   0  0  0  0  0  0  0  0  0  0  0  0
    6.4681   13.6763   21.5515 C   0  0  0  0  0  0  0  0  0  0  0  0
    0.5178   12.4109   18.9671 C   0  0  0  0  0  0  0  0  0  0  0  0
    6.4379   11.8972   20.1191 N   0  0  0  0  0  0  0  0  0  0  0  0
    5.2991   12.6073   20.0478 N   0  0  0  0  0  0  0  0  0  0  0  0
    5.6856   15.8652   22.8559 N   0  0  0  0  0  0  0  0  0  0  0  0
    7.1527   14.0982   24.0267 O   0  0  0  0  0  0  0  0  0  0  0  0
    8.1612   15.5384   22.2222 O   0  0  0  0  0  0  0  0  0  0  0  0
   -0.3699   11.9791   18.0229 F   0  0  0  0  0  0  0  0  0  0  0  0
    0.1046   11.8341   20.1342 F   0  0  0  0  0  0  0  0  0  0  0  0
    0.2761   13.7463   19.1131 F   0  0  0  0  0  0  0  0  0  0  0  0
    7.0081   14.7753   22.7276 S   0  0  0  0  0  0  0  0  0  0  0  0
    3.8247   10.6770   16.1925 H   0  0  0  0  0  0  0  0  0  0  0  0
    1.4650   11.1607   16.7513 H   0  0  0  0  0  0  0  0  0  0  0  0
    5.6337   11.3521   17.7313 H   0  0  0  0  0  0  0  0  0  0  0  0
    2.7112   13.0153   20.4273 H   0  0  0  0  0  0  0  0  0  0  0  0
    8.1314   12.1876   21.2968 H   0  0  0  0  0  0  0  0  0  0  0  0
    4.4155   14.3489   20.9392 H   0  0  0  0  0  0  0  0  0  0  0  0
    5.5178   16.5242   22.0858 H   0  0  0  0  0  0  0  0  0  0  0  0
    4.8281   15.5422   23.3202 H   0  0  0  0  0  0  0  0  0  0  0  0
  1  2  1  0  0  0  0
  1  3  2  0  0  0  0
  2  7  2  0  0  0  0
  3  8  1  0  0  0  0
  4  7  1  0  0  0  0
  4  8  2  0  0  0  0
  5  9  1  0  0  0  0
  5 11  2  0  0  0  0
  6  9  2  0  0  0  0
  6 12  1  0  0  0  0
  7 10  1  0  0  0  0
  8 12  1  0  0  0  0
  9 19  1  0  0  0  0
 10 16  1  0  0  0  0
 10 17  1  0  0  0  0
 10 18  1  0  0  0  0
 11 12  1  0  0  0  0
 13 19  1  0  0  0  0
 14 19  2  0  0  0  0
 15 19  2  0  0  0  0
  1 20  1  0  0  0  0
  2 21  1  0  0  0  0
  3 22  1  0  0  0  0
  4 23  1  0  0  0  0
  5 24  1  0  0  0  0
  6 25  1  0  0  0  0
 13 26  1  0  0  0  0
 13 27  1  0  0  0  0
M  END
> <Mol Weight>
291,25

> <Formula>
C10H8F3N3O2S

> <ID>
EN300-91700

> <name>
Sulfonamides

> <LogP>
1,54

> <ROCS_ShapeQuery>
x0310_0A_x0719_0A_x1080_0A_x0739_0A_x0929_0A_x0526_0A_x0911_0A

> <ROCS_TanimotoCombo>
0.319 

> <ROCS_ShapeTanimoto>
0.209 

> <ROCS_ColorTanimoto>
0.110 

> <ROCS_RefTversky>
0.200 

> <ROCS_RefColorTversky>
0.123 

> <ROCS_RefTverskyCombo>
0.323 

> <ROCS_FitTversky>
1.299 

> <ROCS_FitColorTversky>
0.497 

> <ROCS_FitTverskyCombo>
1.797 

> <ROCS_ColorScore>
-3.588

> <ROCS_Overlap>
1600.751

> <ROCS_Rank>
203                 

$$$$
untitled-dbase-1572_7
  -OEChem-02092407103D

 23 23  0     0  0  0  0  0  0999 V2000
    8.5499   12.3694   23.6424 C   0  0  0  0  0  0  0  0  0  0  0  0
    7.9877   11.3190   24.3924 C   0  0  0  0  0  0  0  0  0  0  0  0
    9.4405   11.7510   22.7993 C   0  0  0  0  0  0  0  0  0  0  0  0
   10.3442   12.2935   21.7670 C   0  0  0  0  0  0  0  0  0  0  0  0
   10.1068    9.3517   22.4602 C   0  0  0  0  0  0  0  0  0  0  0  0
    6.9675   11.4081   25.4521 C   0  0  0  0  0  0  0  0  0  0  0  0
    8.4798   10.1239   24.0552 N   0  0  0  0  0  0  0  0  0  0  0  0
    9.3605   10.4196   23.0841 N   0  0  0  0  0  0  0  0  0  0  0  0
    9.3423   14.5678   24.9246 N   0  0  0  0  0  0  0  0  0  0  0  0
    8.5324   14.6982   22.4807 O   0  0  0  0  0  0  0  0  0  0  0  0
    6.8623   14.2378   24.3101 O   0  0  0  0  0  0  0  0  0  0  0  0
    8.2078   14.0314   23.7514 S   0  0  0  0  0  0  0  0  0  0  0  0
    7.1709   10.1066   26.6558 Cl  0  0  0  0  0  0  0  0  0  0  0  0
   11.3291   12.5463   22.1933 H   0  0  0  0  0  0  0  0  0  0  0  0
   10.5099   11.5778   20.9434 H   0  0  0  0  0  0  0  0  0  0  0  0
    9.9379   13.2068   21.2989 H   0  0  0  0  0  0  0  0  0  0  0  0
   11.0306    9.2097   23.0272 H   0  0  0  0  0  0  0  0  0  0  0  0
    9.5086    8.4362   22.4686 H   0  0  0  0  0  0  0  0  0  0  0  0
   10.3304    9.6239   21.4249 H   0  0  0  0  0  0  0  0  0  0  0  0
    5.9402   11.3277   25.0540 H   0  0  0  0  0  0  0  0  0  0  0  0
    7.0109   12.3678   25.9976 H   0  0  0  0  0  0  0  0  0  0  0  0
    9.1909   14.3068   25.9066 H   0  0  0  0  0  0  0  0  0  0  0  0
   10.3327   14.6237   24.6578 H   0  0  0  0  0  0  0  0  0  0  0  0
  1  2  1  0  0  0  0
  1  3  2  0  0  0  0
  1 12  1  0  0  0  0
  2  6  1  0  0  0  0
  2  7  2  0  0  0  0
  3  4  1  0  0  0  0
  3  8  1  0  0  0  0
  5  8  1  0  0  0  0
  6 13  1  0  0  0  0
  7  8  1  0  0  0  0
  9 12  1  0  0  0  0
 10 12  2  0  0  0  0
 11 12  2  0  0  0  0
  4 14  1  0  0  0  0
  4 15  1  0  0  0  0
  4 16  1  0  0  0  0
  5 17  1  0  0  0  0
  5 18  1  0  0  0  0
  5 19  1  0  0  0  0
  6 20  1  0  0  0  0
  6 21  1  0  0  0  0
  9 22  1  0  0  0  0
  9 23  1  0  0  0  0
M  END
> <Mol Weight>
223,68

> <Formula>
C6H10ClN3O2S

> <ID>
EN300-1629199

> <name>
Sulfonamides

> <LogP>
-0,12

> <ROCS_ShapeQuery>
x0310_0A_x0719_0A_x1080_0A_x0739_0A_x0929_0A_x0526_0A_x0911_0A

> <ROCS_TanimotoCombo>
0.319 

> <ROCS_ShapeTanimoto>
0.176 

> <ROCS_ColorTanimoto>
0.143 

> <ROCS_RefTversky>
0.167 

> <ROCS_RefColorTversky>
0.152 

> <ROCS_RefTverskyCombo>
0.319 

> <ROCS_FitTversky>
1.432 

> <ROCS_FitColorTversky>
0.705 

> <ROCS_FitTverskyCombo>
2.137 

> <ROCS_ColorScore>
-4.418

> <ROCS_Overlap>
1335.942

> <ROCS_Rank>
204                 

$$$$
untitled-dbase-497_2
  -OEChem-02092407103D

 22 22  0     1  0  0  0  0  0999 V2000
    8.4086   10.1211   23.5337 C   0  0  0  0  0  0  0  0  0  0  0  0
    9.7549   10.4299   23.6927 C   0  0  0  0  0  0  0  0  0  0  0  0
    7.4541   11.1276   23.6301 C   0  0  0  0  0  0  0  0  0  0  0  0
   10.0922   11.7499   23.9447 C   0  0  0  0  0  0  0  0  0  0  0  0
    7.8943   12.4164   23.8851 C   0  0  0  0  0  0  0  0  0  0  0  0
    6.9141   14.2914   25.3179 C   0  0  0  0  0  0  0  0  0  0  0  0
    6.8974   13.5214   23.9952 C   0  0  1  0  0  0  0  0  0  0  0  0
    9.1934   12.7547   24.0453 N   0  0  0  0  0  0  0  0  0  0  0  0
    5.6687   15.4147   22.5964 N   0  0  0  0  0  0  0  0  0  0  0  0
    8.1997   15.5701   23.0288 O   0  0  0  0  0  0  0  0  0  0  0  0
    7.3183   13.8197   21.4337 O   0  0  0  0  0  0  0  0  0  0  0  0
    7.1766   14.6236   22.6312 S   0  0  0  0  0  0  0  0  0  0  0  0
    8.1039    9.0980   23.3349 H   0  0  0  0  0  0  0  0  0  0  0  0
   10.5162    9.6615   23.6216 H   0  0  0  0  0  0  0  0  0  0  0  0
    6.4006   10.8999   23.5081 H   0  0  0  0  0  0  0  0  0  0  0  0
   11.1286   12.0428   24.0764 H   0  0  0  0  0  0  0  0  0  0  0  0
    7.9122   14.6955   25.5175 H   0  0  0  0  0  0  0  0  0  0  0  0
    6.2039   15.1249   25.3175 H   0  0  0  0  0  0  0  0  0  0  0  0
    6.6391   13.6394   26.1544 H   0  0  0  0  0  0  0  0  0  0  0  0
    5.8730   13.1408   23.8493 H   0  0  0  0  0  0  0  0  0  0  0  0
    4.8541   14.8810   22.2690 H   0  0  0  0  0  0  0  0  0  0  0  0
    5.4545   16.0732   23.3553 H   0  0  0  0  0  0  0  0  0  0  0  0
  1  2  1  0  0  0  0
  1  3  2  0  0  0  0
  2  4  2  0  0  0  0
  3  5  1  0  0  0  0
  4  8  1  0  0  0  0
  5  7  1  0  0  0  0
  5  8  2  0  0  0  0
  6  7  1  0  0  0  0
  7 12  1  0  0  0  0
  9 12  1  0  0  0  0
 10 12  2  0  0  0  0
 11 12  2  0  0  0  0
  1 13  1  0  0  0  0
  2 14  1  0  0  0  0
  3 15  1  0  0  0  0
  4 16  1  0  0  0  0
  6 17  1  0  0  0  0
  6 18  1  0  0  0  0
  6 19  1  0  0  0  0
  7 20  1  0  0  0  0
  9 21  1  0  0  0  0
  9 22  1  0  0  0  0
M  END
> <Mol Weight>
186,23

> <Formula>
C7H10N2O2S

> <ID>
EN300-172932

> <name>
Sulfonamides

> <LogP>
0,08

> <ROCS_ShapeQuery>
x0310_0A_x0719_0A_x1080_0A_x0739_0A_x0929_0A_x0526_0A_x0911_0A

> <ROCS_TanimotoCombo>
0.318 

> <ROCS_ShapeTanimoto>
0.166 

> <ROCS_ColorTanimoto>
0.153 

> <ROCS_RefTversky>
0.158 

> <ROCS_RefColorTversky>
0.161 

> <ROCS_RefTverskyCombo>
0.319 

> <ROCS_FitTversky>
1.415 

> <ROCS_FitColorTversky>
0.746 

> <ROCS_FitTverskyCombo>
2.161 

> <ROCS_ColorScore>
-4.674

> <ROCS_Overlap>
1265.110

> <ROCS_Rank>
205                 

$$$$
untitled-dbase-1268_288
  -OEChem-02092407103D

 28 28  0     0  0  0  0  0  0999 V2000
    9.6406   10.4617   24.2919 C   0  0  0  0  0  0  0  0  0  0  0  0
   10.0548   10.9997   23.0734 C   0  0  0  0  0  0  0  0  0  0  0  0
    8.3934   10.8011   24.8163 C   0  0  0  0  0  0  0  0  0  0  0  0
    9.2218   11.8772   22.3794 C   0  0  0  0  0  0  0  0  0  0  0  0
    7.5604   11.6786   24.1223 C   0  0  0  0  0  0  0  0  0  0  0  0
    7.9745   12.2167   22.9038 C   0  0  0  0  0  0  0  0  0  0  0  0
    5.7763   16.7750   21.7496 C   0  0  0  0  0  0  0  0  0  0  0  0
    6.2289   12.0269   24.7024 C   0  0  0  0  0  0  0  0  0  0  0  0
    7.0979   13.1613   22.1409 C   0  0  0  0  0  0  0  0  0  0  0  0
    5.2735   10.9594   24.5549 N   0  0  0  0  0  0  0  0  0  0  0  0
    5.7010   15.4388   22.3673 N   0  0  0  0  0  0  0  0  0  0  0  0
    6.9683   14.4695   24.4041 O   0  0  0  0  0  0  0  0  0  0  0  0
    8.2650   15.4687   22.4867 O   0  0  0  0  0  0  0  0  0  0  0  0
    7.1236   14.7259   22.9857 S   0  0  0  0  0  0  0  0  0  0  0  0
   10.2898    9.7792   24.8322 H   0  0  0  0  0  0  0  0  0  0  0  0
   11.0262   10.7352   22.6659 H   0  0  0  0  0  0  0  0  0  0  0  0
    8.0807   10.3777   25.7672 H   0  0  0  0  0  0  0  0  0  0  0  0
    9.5532   12.2909   21.4305 H   0  0  0  0  0  0  0  0  0  0  0  0
    6.7312   16.8785   21.2135 H   0  0  0  0  0  0  0  0  0  0  0  0
    4.9433   16.8992   21.0420 H   0  0  0  0  0  0  0  0  0  0  0  0
    5.7102   17.5449   22.5325 H   0  0  0  0  0  0  0  0  0  0  0  0
    6.3126   12.2511   25.7742 H   0  0  0  0  0  0  0  0  0  0  0  0
    5.8033   12.9179   24.2225 H   0  0  0  0  0  0  0  0  0  0  0  0
    6.0617   12.8144   22.0975 H   0  0  0  0  0  0  0  0  0  0  0  0
    7.4568   13.3195   21.1199 H   0  0  0  0  0  0  0  0  0  0  0  0
    5.5939   10.1569   25.0563 H   0  0  0  0  0  0  0  0  0  0  0  0
    4.3912   11.2530   24.9203 H   0  0  0  0  0  0  0  0  0  0  0  0
    4.8312   15.2685   22.8886 H   0  0  0  0  0  0  0  0  0  0  0  0
  1  2  1  0  0  0  0
  1  3  2  0  0  0  0
  2  4  2  0  0  0  0
  3  5  1  0  0  0  0
  4  6  1  0  0  0  0
  5  6  2  0  0  0  0
  5  8  1  0  0  0  0
  6  9  1  0  0  0  0
  7 11  1  0  0  0  0
  8 10  1  0  0  0  0
  9 14  1  0  0  0  0
 11 14  1  0  0  0  0
 12 14  2  0  0  0  0
 13 14  2  0  0  0  0
  1 15  1  0  0  0  0
  2 16  1  0  0  0  0
  3 17  1  0  0  0  0
  4 18  1  0  0  0  0
  7 19  1  0  0  0  0
  7 20  1  0  0  0  0
  7 21  1  0  0  0  0
  8 22  1  0  0  0  0
  8 23  1  0  0  0  0
  9 24  1  0  0  0  0
  9 25  1  0  0  0  0
 10 26  1  0  0  0  0
 10 27  1  0  0  0  0
 11 28  1  0  0  0  0
M  END
> <Mol Weight>
214,28

> <Formula>
C9H14N2O2S

> <ID>
EN300-24003

> <name>
Sulfonamides

> <LogP>
-0,31

> <ROCS_ShapeQuery>
x0310_0A_x0719_0A_x1080_0A_x0739_0A_x0929_0A_x0526_0A_x0911_0A

> <ROCS_TanimotoCombo>
0.318 

> <ROCS_ShapeTanimoto>
0.165 

> <ROCS_ColorTanimoto>
0.153 

> <ROCS_RefTversky>
0.159 

> <ROCS_RefColorTversky>
0.166 

> <ROCS_RefTverskyCombo>
0.325 

> <ROCS_FitTversky>
1.312 

> <ROCS_FitColorTversky>
0.669 

> <ROCS_FitTverskyCombo>
1.980 

> <ROCS_ColorScore>
-4.826

> <ROCS_Overlap>
1270.557

> <ROCS_Rank>
206                 

$$$$
untitled-dbase-2212_288
  -OEChem-02092407103D

 28 28  0     0  0  0  0  0  0999 V2000
    9.6406   10.4617   24.2919 C   0  0  0  0  0  0  0  0  0  0  0  0
   10.0548   10.9997   23.0734 C   0  0  0  0  0  0  0  0  0  0  0  0
    8.3934   10.8011   24.8163 C   0  0  0  0  0  0  0  0  0  0  0  0
    9.2218   11.8772   22.3794 C   0  0  0  0  0  0  0  0  0  0  0  0
    7.5604   11.6786   24.1223 C   0  0  0  0  0  0  0  0  0  0  0  0
    7.9745   12.2167   22.9038 C   0  0  0  0  0  0  0  0  0  0  0  0
    5.7763   16.7750   21.7496 C   0  0  0  0  0  0  0  0  0  0  0  0
    6.2289   12.0269   24.7024 C   0  0  0  0  0  0  0  0  0  0  0  0
    7.0979   13.1613   22.1409 C   0  0  0  0  0  0  0  0  0  0  0  0
    5.2735   10.9594   24.5549 N   0  0  0  0  0  0  0  0  0  0  0  0
    5.7010   15.4388   22.3673 N   0  0  0  0  0  0  0  0  0  0  0  0
    6.9683   14.4695   24.4041 O   0  0  0  0  0  0  0  0  0  0  0  0
    8.2650   15.4687   22.4867 O   0  0  0  0  0  0  0  0  0  0  0  0
    7.1236   14.7259   22.9857 S   0  0  0  0  0  0  0  0  0  0  0  0
   10.2898    9.7792   24.8322 H   0  0  0  0  0  0  0  0  0  0  0  0
   11.0262   10.7352   22.6659 H   0  0  0  0  0  0  0  0  0  0  0  0
    8.0807   10.3777   25.7672 H   0  0  0  0  0  0  0  0  0  0  0  0
    9.5532   12.2909   21.4305 H   0  0  0  0  0  0  0  0  0  0  0  0
    6.7312   16.8785   21.2135 H   0  0  0  0  0  0  0  0  0  0  0  0
    4.9433   16.8992   21.0420 H   0  0  0  0  0  0  0  0  0  0  0  0
    5.7102   17.5449   22.5325 H   0  0  0  0  0  0  0  0  0  0  0  0
    6.3126   12.2511   25.7742 H   0  0  0  0  0  0  0  0  0  0  0  0
    5.8033   12.9179   24.2225 H   0  0  0  0  0  0  0  0  0  0  0  0
    6.0617   12.8144   22.0975 H   0  0  0  0  0  0  0  0  0  0  0  0
    7.4568   13.3195   21.1199 H   0  0  0  0  0  0  0  0  0  0  0  0
    5.5939   10.1569   25.0563 H   0  0  0  0  0  0  0  0  0  0  0  0
    4.3912   11.2530   24.9203 H   0  0  0  0  0  0  0  0  0  0  0  0
    4.8312   15.2685   22.8886 H   0  0  0  0  0  0  0  0  0  0  0  0
  1  2  1  0  0  0  0
  1  3  2  0  0  0  0
  2  4  2  0  0  0  0
  3  5  1  0  0  0  0
  4  6  1  0  0  0  0
  5  6  2  0  0  0  0
  5  8  1  0  0  0  0
  6  9  1  0  0  0  0
  7 11  1  0  0  0  0
  8 10  1  0  0  0  0
  9 14  1  0  0  0  0
 11 14  1  0  0  0  0
 12 14  2  0  0  0  0
 13 14  2  0  0  0  0
  1 15  1  0  0  0  0
  2 16  1  0  0  0  0
  3 17  1  0  0  0  0
  4 18  1  0  0  0  0
  7 19  1  0  0  0  0
  7 20  1  0  0  0  0
  7 21  1  0  0  0  0
  8 22  1  0  0  0  0
  8 23  1  0  0  0  0
  9 24  1  0  0  0  0
  9 25  1  0  0  0  0
 10 26  1  0  0  0  0
 10 27  1  0  0  0  0
 11 28  1  0  0  0  0
M  END
> <Mol Weight>
250,74

> <Formula>
C9H15ClN2O2S

> <ID>
EN300-50324

> <name>
Sulfonamides

> <LogP>
-0,31

> <ROCS_ShapeQuery>
x0310_0A_x0719_0A_x1080_0A_x0739_0A_x0929_0A_x0526_0A_x0911_0A

> <ROCS_TanimotoCombo>
0.318 

> <ROCS_ShapeTanimoto>
0.165 

> <ROCS_ColorTanimoto>
0.153 

> <ROCS_RefTversky>
0.159 

> <ROCS_RefColorTversky>
0.166 

> <ROCS_RefTverskyCombo>
0.325 

> <ROCS_FitTversky>
1.312 

> <ROCS_FitColorTversky>
0.669 

> <ROCS_FitTverskyCombo>
1.980 

> <ROCS_ColorScore>
-4.826

> <ROCS_Overlap>
1270.557

> <ROCS_Rank>
207                 

$$$$
untitled-dbase-2574_33
  -OEChem-02092407103D

 33 33  0     0  0  0  0  0  0999 V2000
    9.4211   12.0727   24.4482 C   0  0  0  0  0  0  0  0  0  0  0  0
    9.6016   10.6997   24.4928 C   0  0  0  0  0  0  0  0  0  0  0  0
    7.8469   10.3324   23.0560 C   0  0  0  0  0  0  0  0  0  0  0  0
    7.5840   11.6883   22.9442 C   0  0  0  0  0  0  0  0  0  0  0  0
    8.3909   12.5684   23.6568 C   0  0  0  0  0  0  0  0  0  0  0  0
    5.6525   11.3751   21.3688 C   0  0  0  0  0  0  0  0  0  0  0  0
    2.8254   11.3100   21.7961 C   0  0  0  0  0  0  0  0  0  0  0  0
    2.6698   12.7690   19.7573 C   0  0  0  0  0  0  0  0  0  0  0  0
    3.6225   10.4528   19.5680 C   0  0  0  0  0  0  0  0  0  0  0  0
    3.4759   11.6816   20.4643 C   0  0  0  0  0  0  0  0  0  0  0  0
    8.8383    9.8136   23.8146 N   0  0  0  0  0  0  0  0  0  0  0  0
    9.3828   14.8467   24.6210 N   0  0  0  0  0  0  0  0  0  0  0  0
    6.5232   12.1361   22.1245 N   0  0  0  0  0  0  0  0  0  0  0  0
    5.6258   10.1555   21.2570 O   0  0  0  0  0  0  0  0  0  0  0  0
    8.4290   14.7435   22.2283 O   0  0  0  0  0  0  0  0  0  0  0  0
    6.8546   14.6030   24.1903 O   0  0  0  0  0  0  0  0  0  0  0  0
    4.7761   12.2113   20.7258 O   0  0  0  0  0  0  0  0  0  0  0  0
    8.1417   14.2991   23.5836 S   0  0  0  0  0  0  0  0  0  0  0  0
   10.0689   12.7305   25.0174 H   0  0  0  0  0  0  0  0  0  0  0  0
   10.3911   10.2628   25.0953 H   0  0  0  0  0  0  0  0  0  0  0  0
    7.2518    9.5955   22.5247 H   0  0  0  0  0  0  0  0  0  0  0  0
    3.4011   10.5297   22.3067 H   0  0  0  0  0  0  0  0  0  0  0  0
    2.7463   12.1757   22.4618 H   0  0  0  0  0  0  0  0  0  0  0  0
    1.8208   10.9007   21.6398 H   0  0  0  0  0  0  0  0  0  0  0  0
    3.1329   13.0386   18.8013 H   0  0  0  0  0  0  0  0  0  0  0  0
    2.6422   13.6862   20.3565 H   0  0  0  0  0  0  0  0  0  0  0  0
    1.6405   12.4488   19.5658 H   0  0  0  0  0  0  0  0  0  0  0  0
    4.0891   10.7190   18.6127 H   0  0  0  0  0  0  0  0  0  0  0  0
    4.2294    9.6761   20.0444 H   0  0  0  0  0  0  0  0  0  0  0  0
    2.6416   10.0283   19.3253 H   0  0  0  0  0  0  0  0  0  0  0  0
    9.2760   14.6798   25.6291 H   0  0  0  0  0  0  0  0  0  0  0  0
   10.3527   14.7781   24.2894 H   0  0  0  0  0  0  0  0  0  0  0  0
    6.3837   13.1429   22.0863 H   0  0  0  0  0  0  0  0  0  0  0  0
  1  2  2  0  0  0  0
  1  5  1  0  0  0  0
  2 11  1  0  0  0  0
  3  4  1  0  0  0  0
  3 11  2  0  0  0  0
  4  5  2  0  0  0  0
  4 13  1  0  0  0  0
  5 18  1  0  0  0  0
  6 13  1  0  0  0  0
  6 14  2  0  0  0  0
  6 17  1  0  0  0  0
  7 10  1  0  0  0  0
  8 10  1  0  0  0  0
  9 10  1  0  0  0  0
 10 17  1  0  0  0  0
 12 18  1  0  0  0  0
 15 18  2  0  0  0  0
 16 18  2  0  0  0  0
  1 19  1  0  0  0  0
  2 20  1  0  0  0  0
  3 21  1  0  0  0  0
  7 22  1  0  0  0  0
  7 23  1  0  0  0  0
  7 24  1  0  0  0  0
  8 25  1  0  0  0  0
  8 26  1  0  0  0  0
  8 27  1  0  0  0  0
  9 28  1  0  0  0  0
  9 29  1  0  0  0  0
  9 30  1  0  0  0  0
 12 31  1  0  0  0  0
 12 32  1  0  0  0  0
 13 33  1  0  0  0  0
M  END
> <Mol Weight>
273,31

> <Formula>
C10H15N3O4S

> <ID>
EN300-6494089

> <name>
Sulfonamides

> <LogP>
0,27

> <ROCS_ShapeQuery>
x0310_0A_x0719_0A_x1080_0A_x0739_0A_x0929_0A_x0526_0A_x0911_0A

> <ROCS_TanimotoCombo>
0.318 

> <ROCS_ShapeTanimoto>
0.194 

> <ROCS_ColorTanimoto>
0.124 

> <ROCS_RefTversky>
0.186 

> <ROCS_RefColorTversky>
0.145 

> <ROCS_RefTverskyCombo>
0.331 

> <ROCS_FitTversky>
1.290 

> <ROCS_FitColorTversky>
0.464 

> <ROCS_FitTverskyCombo>
1.754 

> <ROCS_ColorScore>
-4.228

> <ROCS_Overlap>
1491.469

> <ROCS_Rank>
208                 

$$$$
untitled-dbase-1623_46
  -OEChem-02092407103D

 25 26  0     0  0  0  0  0  0999 V2000
    8.6409    9.5308   23.2154 C   0  0  0  0  0  0  0  0  0  0  0  0
    9.9085    9.8993   23.6778 C   0  0  0  0  0  0  0  0  0  0  0  0
    7.5681   10.4330   23.2445 C   0  0  0  0  0  0  0  0  0  0  0  0
   10.1531   11.1793   24.1858 C   0  0  0  0  0  0  0  0  0  0  0  0
    7.7989   11.7202   23.7516 C   0  0  0  0  0  0  0  0  0  0  0  0
    9.0664   12.0486   24.2000 C   0  0  0  0  0  0  0  0  0  0  0  0
    7.0573   12.8983   23.9649 C   0  0  0  0  0  0  0  0  0  0  0  0
    5.6339   13.1380   23.6727 C   0  0  0  0  0  0  0  0  0  0  0  0
    5.2525   12.9557   22.1932 C   0  0  0  0  0  0  0  0  0  0  0  0
    7.7960   13.8752   24.4995 N   0  0  0  0  0  0  0  0  0  0  0  0
    5.6966   15.5356   21.7482 N   0  0  0  0  0  0  0  0  0  0  0  0
    7.5816   13.8230   21.3866 O   0  0  0  0  0  0  0  0  0  0  0  0
    5.6325   13.8813   19.7794 O   0  0  0  0  0  0  0  0  0  0  0  0
    9.0673   13.3342   24.6473 O   0  0  0  0  0  0  0  0  0  0  0  0
    6.1669   14.0209   21.1227 S   0  0  0  0  0  0  0  0  0  0  0  0
    8.4846    8.5275   22.8266 H   0  0  0  0  0  0  0  0  0  0  0  0
   10.7201    9.1766   23.6417 H   0  0  0  0  0  0  0  0  0  0  0  0
    6.5897   10.1334   22.8827 H   0  0  0  0  0  0  0  0  0  0  0  0
   11.1310   11.4737   24.5471 H   0  0  0  0  0  0  0  0  0  0  0  0
    5.3510   14.1731   23.9574 H   0  0  0  0  0  0  0  0  0  0  0  0
    4.9682   12.4927   24.2844 H   0  0  0  0  0  0  0  0  0  0  0  0
    5.4645   11.9366   21.8541 H   0  0  0  0  0  0  0  0  0  0  0  0
    4.1915   13.1618   22.0224 H   0  0  0  0  0  0  0  0  0  0  0  0
    4.7324   15.8457   21.5759 H   0  0  0  0  0  0  0  0  0  0  0  0
    6.0600   15.8059   22.6704 H   0  0  0  0  0  0  0  0  0  0  0  0
  1  2  1  0  0  0  0
  1  3  2  0  0  0  0
  2  4  2  0  0  0  0
  3  5  1  0  0  0  0
  4  6  1  0  0  0  0
  5  6  2  0  0  0  0
  5  7  1  0  0  0  0
  6 14  1  0  0  0  0
  7  8  1  0  0  0  0
  7 10  2  0  0  0  0
  8  9  1  0  0  0  0
  9 15  1  0  0  0  0
 10 14  1  0  0  0  0
 11 15  1  0  0  0  0
 12 15  2  0  0  0  0
 13 15  2  0  0  0  0
  1 16  1  0  0  0  0
  2 17  1  0  0  0  0
  3 18  1  0  0  0  0
  4 19  1  0  0  0  0
  8 20  1  0  0  0  0
  8 21  1  0  0  0  0
  9 22  1  0  0  0  0
  9 23  1  0  0  0  0
 11 24  1  0  0  0  0
 11 25  1  0  0  0  0
M  END
> <Mol Weight>
226,25

> <Formula>
C9H10N2O3S

> <ID>
EN300-1619017

> <name>
Sulfonamides

> <LogP>
0,04

> <ROCS_ShapeQuery>
x0310_0A_x0719_0A_x1080_0A_x0739_0A_x0929_0A_x0526_0A_x0911_0A

> <ROCS_TanimotoCombo>
0.318 

> <ROCS_ShapeTanimoto>
0.159 

> <ROCS_ColorTanimoto>
0.159 

> <ROCS_RefTversky>
0.155 

> <ROCS_RefColorTversky>
0.171 

> <ROCS_RefTverskyCombo>
0.326 

> <ROCS_FitTversky>
1.191 

> <ROCS_FitColorTversky>
0.688 

> <ROCS_FitTverskyCombo>
1.880 

> <ROCS_ColorScore>
-4.981

> <ROCS_Overlap>
1242.264

> <ROCS_Rank>
209                 

$$$$
untitled-dbase-2175_205
  -OEChem-02092407103D

 27 27  0     0  0  0  0  0  0999 V2000
    9.7540   11.5271   22.7611 C   0  0  0  0  0  0  0  0  0  0  0  0
    9.8616   10.5805   23.7799 C   0  0  0  0  0  0  0  0  0  0  0  0
    7.4318   11.8751   23.3296 C   0  0  0  0  0  0  0  0  0  0  0  0
    8.5391   12.1744   22.5360 C   0  0  0  0  0  0  0  0  0  0  0  0
    8.7543   10.2811   24.5735 C   0  0  0  0  0  0  0  0  0  0  0  0
    7.5393   10.9284   24.3484 C   0  0  0  0  0  0  0  0  0  0  0  0
   10.1713    8.7476   25.7120 C   0  0  0  0  0  0  0  0  0  0  0  0
    8.4247   13.1862   21.4463 C   0  0  0  0  0  0  0  0  0  0  0  0
    8.7490   14.6131   21.8971 C   0  0  0  0  0  0  0  0  0  0  0  0
    6.1896   15.0375   22.4635 N   0  0  0  0  0  0  0  0  0  0  0  0
    7.7892   14.1872   24.2897 O   0  0  0  0  0  0  0  0  0  0  0  0
    8.0008   16.5659   23.4638 O   0  0  0  0  0  0  0  0  0  0  0  0
    8.8889    9.3526   25.5624 O   0  0  0  0  0  0  0  0  0  0  0  0
    7.7138   15.1636   23.2170 S   0  0  0  0  0  0  0  0  0  0  0  0
    6.1541   10.5779   25.3153 Cl  0  0  0  0  0  0  0  0  0  0  0  0
   10.6219   11.7538   22.1474 H   0  0  0  0  0  0  0  0  0  0  0  0
   10.8113   10.0802   23.9495 H   0  0  0  0  0  0  0  0  0  0  0  0
    6.4874   12.3836   23.1484 H   0  0  0  0  0  0  0  0  0  0  0  0
   10.1419    8.0280   26.5338 H   0  0  0  0  0  0  0  0  0  0  0  0
   10.9177    9.5194   25.9160 H   0  0  0  0  0  0  0  0  0  0  0  0
   10.4299    8.2291   24.7858 H   0  0  0  0  0  0  0  0  0  0  0  0
    7.3954   13.1811   21.0477 H   0  0  0  0  0  0  0  0  0  0  0  0
    9.0690   12.9233   20.5894 H   0  0  0  0  0  0  0  0  0  0  0  0
    9.7743   14.6714   22.2763 H   0  0  0  0  0  0  0  0  0  0  0  0
    8.6419   15.3351   21.0818 H   0  0  0  0  0  0  0  0  0  0  0  0
    5.5606   14.2888   22.7789 H   0  0  0  0  0  0  0  0  0  0  0  0
    5.7048   15.9089   22.2163 H   0  0  0  0  0  0  0  0  0  0  0  0
  1  2  2  0  0  0  0
  1  4  1  0  0  0  0
  2  5  1  0  0  0  0
  3  4  2  0  0  0  0
  3  6  1  0  0  0  0
  4  8  1  0  0  0  0
  5  6  2  0  0  0  0
  5 13  1  0  0  0  0
  6 15  1  0  0  0  0
  7 13  1  0  0  0  0
  8  9  1  0  0  0  0
  9 14  1  0  0  0  0
 10 14  1  0  0  0  0
 11 14  2  0  0  0  0
 12 14  2  0  0  0  0
  1 16  1  0  0  0  0
  2 17  1  0  0  0  0
  3 18  1  0  0  0  0
  7 19  1  0  0  0  0
  7 20  1  0  0  0  0
  7 21  1  0  0  0  0
  8 22  1  0  0  0  0
  8 23  1  0  0  0  0
  9 24  1  0  0  0  0
  9 25  1  0  0  0  0
 10 26  1  0  0  0  0
 10 27  1  0  0  0  0
M  END
> <Mol Weight>
249,71

> <Formula>
C9H12ClNO3S

> <ID>
EN300-2002208

> <name>
Sulfonamides

> <LogP>
1,08

> <ROCS_ShapeQuery>
x0310_0A_x0719_0A_x1080_0A_x0739_0A_x0929_0A_x0526_0A_x0911_0A

> <ROCS_TanimotoCombo>
0.318 

> <ROCS_ShapeTanimoto>
0.167 

> <ROCS_ColorTanimoto>
0.151 

> <ROCS_RefTversky>
0.161 

> <ROCS_RefColorTversky>
0.159 

> <ROCS_RefTverskyCombo>
0.321 

> <ROCS_FitTversky>
1.290 

> <ROCS_FitColorTversky>
0.738 

> <ROCS_FitTverskyCombo>
2.027 

> <ROCS_ColorScore>
-4.622

> <ROCS_Overlap>
1290.920

> <ROCS_Rank>
210                 

$$$$
untitled-dbase-1485_27
  -OEChem-02092407103D

 23 23  0     0  0  0  0  0  0999 V2000
   10.1610   11.6121   23.7184 C   0  0  0  0  0  0  0  0  0  0  0  0
    9.3357   12.4887   23.0142 C   0  0  0  0  0  0  0  0  0  0  0  0
    9.6240   10.4630   24.2988 C   0  0  0  0  0  0  0  0  0  0  0  0
    7.4362   11.0672   23.4709 C   0  0  0  0  0  0  0  0  0  0  0  0
    7.9733   12.2163   22.8905 C   0  0  0  0  0  0  0  0  0  0  0  0
    8.2616   10.1906   24.1751 C   0  0  0  0  0  0  0  0  0  0  0  0
    7.0917   13.1534   22.1361 C   0  0  0  0  0  0  0  0  0  0  0  0
    7.6873    8.9622   24.7963 C   0  0  0  0  0  0  0  0  0  0  0  0
    5.7127   15.4139   22.3351 N   0  0  0  0  0  0  0  0  0  0  0  0
    6.9875   14.4990   24.3734 O   0  0  0  0  0  0  0  0  0  0  0  0
    8.2829   15.4606   22.4286 O   0  0  0  0  0  0  0  0  0  0  0  0
    6.3989    9.1692   25.1757 F   0  0  0  0  0  0  0  0  0  0  0  0
    8.3708    8.6255   25.9216 F   0  0  0  0  0  0  0  0  0  0  0  0
    7.1452   14.7193   22.9458 S   0  0  0  0  0  0  0  0  0  0  0  0
   11.2219   11.8242   23.8146 H   0  0  0  0  0  0  0  0  0  0  0  0
    9.7631   13.3814   22.5649 H   0  0  0  0  0  0  0  0  0  0  0  0
   10.2744    9.7860   24.8464 H   0  0  0  0  0  0  0  0  0  0  0  0
    6.3743   10.8538   23.3739 H   0  0  0  0  0  0  0  0  0  0  0  0
    6.0482   12.8190   22.1175 H   0  0  0  0  0  0  0  0  0  0  0  0
    7.4256   13.2972   21.1021 H   0  0  0  0  0  0  0  0  0  0  0  0
    7.7056    8.1038   24.1222 H   0  0  0  0  0  0  0  0  0  0  0  0
    5.7000   15.6916   21.3460 H   0  0  0  0  0  0  0  0  0  0  0  0
    4.8178   15.0367   22.6708 H   0  0  0  0  0  0  0  0  0  0  0  0
  1  2  2  0  0  0  0
  1  3  1  0  0  0  0
  2  5  1  0  0  0  0
  3  6  2  0  0  0  0
  4  5  2  0  0  0  0
  4  6  1  0  0  0  0
  5  7  1  0  0  0  0
  6  8  1  0  0  0  0
  7 14  1  0  0  0  0
  8 12  1  0  0  0  0
  8 13  1  0  0  0  0
  9 14  1  0  0  0  0
 10 14  2  0  0  0  0
 11 14  2  0  0  0  0
  1 15  1  0  0  0  0
  2 16  1  0  0  0  0
  3 17  1  0  0  0  0
  4 18  1  0  0  0  0
  7 19  1  0  0  0  0
  7 20  1  0  0  0  0
  8 21  1  0  0  0  0
  9 22  1  0  0  0  0
  9 23  1  0  0  0  0
M  END
> <Mol Weight>
221,22

> <Formula>
C8H9F2NO2S

> <ID>
EN300-281513

> <name>
Sulfonamides

> <LogP>
0,73

> <ROCS_ShapeQuery>
x0310_0A_x0719_0A_x1080_0A_x0739_0A_x0929_0A_x0526_0A_x0911_0A

> <ROCS_TanimotoCombo>
0.318 

> <ROCS_ShapeTanimoto>
0.154 

> <ROCS_ColorTanimoto>
0.164 

> <ROCS_RefTversky>
0.150 

> <ROCS_RefColorTversky>
0.167 

> <ROCS_RefTverskyCombo>
0.317 

> <ROCS_FitTversky>
1.227 

> <ROCS_FitColorTversky>
0.907 

> <ROCS_FitTverskyCombo>
2.135 

> <ROCS_ColorScore>
-4.824

> <ROCS_Overlap>
1200.706

> <ROCS_Rank>
211                 

$$$$
untitled-dbase-2828_54
  -OEChem-02092407103D

 38 39  0     0  0  0  0  0  0999 V2000
    3.9962   12.2751   20.5922 C   0  0  0  0  0  0  0  0  0  0  0  0
    2.7603   12.6737   20.0698 C   0  0  0  0  0  0  0  0  0  0  0  0
    3.1996   11.4909   18.0007 C   0  0  0  0  0  0  0  0  0  0  0  0
    4.4235   11.1020   18.5257 C   0  0  0  0  0  0  0  0  0  0  0  0
    4.8253   11.4851   19.8093 C   0  0  0  0  0  0  0  0  0  0  0  0
    2.3642   12.2850   18.7836 C   0  0  0  0  0  0  0  0  0  0  0  0
    6.8919   11.0536   21.2222 C   0  0  0  0  0  0  0  0  0  0  0  0
    5.4483   10.2449   17.8561 C   0  0  0  0  0  0  0  0  0  0  0  0
    6.5703   10.2172   18.8956 C   0  0  0  0  0  0  0  0  0  0  0  0
    8.7485   12.8824   20.9003 C   0  0  0  0  0  0  0  0  0  0  0  0
    7.3264   14.4839   22.2125 C   0  0  0  0  0  0  0  0  0  0  0  0
    8.5525   12.6400   23.3978 C   0  0  0  0  0  0  0  0  0  0  0  0
    7.8330   13.0467   22.1126 C   0  0  0  0  0  0  0  0  0  0  0  0
    6.1028   10.9540   20.0811 N   0  0  0  0  0  0  0  0  0  0  0  0
   -0.1854   11.5159   18.6801 N   0  0  0  0  0  0  0  0  0  0  0  0
    7.6970   10.1847   21.5582 O   0  0  0  0  0  0  0  0  0  0  0  0
    0.4220   14.0150   18.8557 O   0  0  0  0  0  0  0  0  0  0  0  0
    0.8767   12.7840   16.7051 O   0  0  0  0  0  0  0  0  0  0  0  0
    6.6920   12.1980   21.9405 O   0  0  0  0  0  0  0  0  0  0  0  0
    0.8162   12.7985   18.1598 S   0  0  0  0  0  0  0  0  0  0  0  0
    4.2689   12.5953   21.5922 H   0  0  0  0  0  0  0  0  0  0  0  0
    2.1065   13.2939   20.6797 H   0  0  0  0  0  0  0  0  0  0  0  0
    2.9058   11.1804   17.0027 H   0  0  0  0  0  0  0  0  0  0  0  0
    5.0558    9.2410   17.6691 H   0  0  0  0  0  0  0  0  0  0  0  0
    5.7858   10.6996   16.9200 H   0  0  0  0  0  0  0  0  0  0  0  0
    6.8249    9.1915   19.1921 H   0  0  0  0  0  0  0  0  0  0  0  0
    7.4853   10.6925   18.5192 H   0  0  0  0  0  0  0  0  0  0  0  0
    9.1143   11.8521   20.8251 H   0  0  0  0  0  0  0  0  0  0  0  0
    8.2336   13.1375   19.9684 H   0  0  0  0  0  0  0  0  0  0  0  0
    9.6357   13.5195   20.9911 H   0  0  0  0  0  0  0  0  0  0  0  0
    6.6691   14.6064   23.0809 H   0  0  0  0  0  0  0  0  0  0  0  0
    6.7285   14.7491   21.3330 H   0  0  0  0  0  0  0  0  0  0  0  0
    8.1517   15.1981   22.2988 H   0  0  0  0  0  0  0  0  0  0  0  0
    7.8960   12.7578   24.2675 H   0  0  0  0  0  0  0  0  0  0  0  0
    8.8908   11.5995   23.3586 H   0  0  0  0  0  0  0  0  0  0  0  0
    9.4221   13.2825   23.5775 H   0  0  0  0  0  0  0  0  0  0  0  0
   -0.8509   11.7022   19.4402 H   0  0  0  0  0  0  0  0  0  0  0  0
   -0.5378   10.8614   17.9710 H   0  0  0  0  0  0  0  0  0  0  0  0
  1  2  2  0  0  0  0
  1  5  1  0  0  0  0
  2  6  1  0  0  0  0
  3  4  1  0  0  0  0
  3  6  2  0  0  0  0
  4  5  2  0  0  0  0
  4  8  1  0  0  0  0
  5 14  1  0  0  0  0
  6 20  1  0  0  0  0
  7 14  1  0  0  0  0
  7 16  2  0  0  0  0
  7 19  1  0  0  0  0
  8  9  1  0  0  0  0
  9 14  1  0  0  0  0
 10 13  1  0  0  0  0
 11 13  1  0  0  0  0
 12 13  1  0  0  0  0
 13 19  1  0  0  0  0
 15 20  1  0  0  0  0
 17 20  2  0  0  0  0
 18 20  2  0  0  0  0
  1 21  1  0  0  0  0
  2 22  1  0  0  0  0
  3 23  1  0  0  0  0
  8 24  1  0  0  0  0
  8 25  1  0  0  0  0
  9 26  1  0  0  0  0
  9 27  1  0  0  0  0
 10 28  1  0  0  0  0
 10 29  1  0  0  0  0
 10 30  1  0  0  0  0
 11 31  1  0  0  0  0
 11 32  1  0  0  0  0
 11 33  1  0  0  0  0
 12 34  1  0  0  0  0
 12 35  1  0  0  0  0
 12 36  1  0  0  0  0
 15 37  1  0  0  0  0
 15 38  1  0  0  0  0
M  END
> <Mol Weight>
298,36

> <Formula>
C13H18N2O4S

> <ID>
EN300-3359819

> <name>
Sulfonamides

> <LogP>
1,39

> <ROCS_ShapeQuery>
x0310_0A_x0719_0A_x1080_0A_x0739_0A_x0929_0A_x0526_0A_x0911_0A

> <ROCS_TanimotoCombo>
0.318 

> <ROCS_ShapeTanimoto>
0.199 

> <ROCS_ColorTanimoto>
0.119 

> <ROCS_RefTversky>
0.192 

> <ROCS_RefColorTversky>
0.136 

> <ROCS_RefTverskyCombo>
0.328 

> <ROCS_FitTversky>
1.228 

> <ROCS_FitColorTversky>
0.485 

> <ROCS_FitTverskyCombo>
1.713 

> <ROCS_ColorScore>
-3.966

> <ROCS_Overlap>
1539.319

> <ROCS_Rank>
212                 

$$$$
untitled-dbase-546_318
  -OEChem-02092407103D

 21 21  0     0  0  0  0  0  0999 V2000
    9.5248   10.4915   22.4183 C   0  0  0  0  0  0  0  0  0  0  0  0
    9.7500   11.8167   22.7469 C   0  0  0  0  0  0  0  0  0  0  0  0
    8.6417    9.7733   23.1991 C   0  0  0  0  0  0  0  0  0  0  0  0
    9.0768   12.3361   23.8344 C   0  0  0  0  0  0  0  0  0  0  0  0
    5.9798   15.1922   22.3708 C   0  0  0  0  0  0  0  0  0  0  0  0
    9.2839   13.7688   24.2327 C   0  0  0  0  0  0  0  0  0  0  0  0
    7.9967   10.3073   24.2579 N   0  0  0  0  0  0  0  0  0  0  0  0
    8.2178   11.6099   24.5806 N   0  0  0  0  0  0  0  0  0  0  0  0
    8.1426   14.6186   23.8484 N   0  0  0  0  0  0  0  0  0  0  0  0
    7.7077   13.3746   21.6218 O   0  0  0  0  0  0  0  0  0  0  0  0
    8.3912   15.8010   21.5836 O   0  0  0  0  0  0  0  0  0  0  0  0
    7.6809   14.7008   22.2068 S   0  0  0  0  0  0  0  0  0  0  0  0
   10.0264   10.0323   21.5742 H   0  0  0  0  0  0  0  0  0  0  0  0
   10.4363   12.4202   22.1625 H   0  0  0  0  0  0  0  0  0  0  0  0
    8.4231    8.7319   22.9935 H   0  0  0  0  0  0  0  0  0  0  0  0
    5.5502   15.2847   21.3721 H   0  0  0  0  0  0  0  0  0  0  0  0
    5.4541   14.4269   22.9438 H   0  0  0  0  0  0  0  0  0  0  0  0
    5.9469   16.1503   22.8916 H   0  0  0  0  0  0  0  0  0  0  0  0
    9.4168   13.8527   25.3169 H   0  0  0  0  0  0  0  0  0  0  0  0
   10.1822   14.1816   23.7619 H   0  0  0  0  0  0  0  0  0  0  0  0
    8.0634   15.4844   24.3975 H   0  0  0  0  0  0  0  0  0  0  0  0
  1  2  2  0  0  0  0
  1  3  1  0  0  0  0
  2  4  1  0  0  0  0
  3  7  2  0  0  0  0
  4  6  1  0  0  0  0
  4  8  2  0  0  0  0
  5 12  1  0  0  0  0
  6  9  1  0  0  0  0
  7  8  1  0  0  0  0
  9 12  1  0  0  0  0
 10 12  2  0  0  0  0
 11 12  2  0  0  0  0
  1 13  1  0  0  0  0
  2 14  1  0  0  0  0
  3 15  1  0  0  0  0
  5 16  1  0  0  0  0
  5 17  1  0  0  0  0
  5 18  1  0  0  0  0
  6 19  1  0  0  0  0
  6 20  1  0  0  0  0
  9 21  1  0  0  0  0
M  END
> <Mol Weight>
187,22

> <Formula>
C6H9N3O2S

> <ID>
EN300-321573

> <name>
Sulfonamides

> <LogP>
-1,70

> <ROCS_ShapeQuery>
x0310_0A_x0719_0A_x1080_0A_x0739_0A_x0929_0A_x0526_0A_x0911_0A

> <ROCS_TanimotoCombo>
0.318 

> <ROCS_ShapeTanimoto>
0.172 

> <ROCS_ColorTanimoto>
0.146 

> <ROCS_RefTversky>
0.163 

> <ROCS_RefColorTversky>
0.160 

> <ROCS_RefTverskyCombo>
0.323 

> <ROCS_FitTversky>
1.466 

> <ROCS_FitColorTversky>
0.620 

> <ROCS_FitTverskyCombo>
2.086 

> <ROCS_ColorScore>
-4.659

> <ROCS_Overlap>
1304.880

> <ROCS_Rank>
213                 

$$$$
untitled-dbase-2321_6
  -OEChem-02092407103D

 26 27  0     0  0  0  0  0  0999 V2000
    5.4108   10.8863   20.7263 C   0  0  0  0  0  0  0  0  0  0  0  0
    6.3887   10.6705   21.6910 C   0  0  0  0  0  0  0  0  0  0  0  0
    9.6615   10.5947   24.3294 C   0  0  0  0  0  0  0  0  0  0  0  0
    9.4283   11.8939   24.8439 C   0  0  0  0  0  0  0  0  0  0  0  0
    5.9362   13.2051   20.7874 C   0  0  0  0  0  0  0  0  0  0  0  0
    5.1741   12.1748   20.2606 C   0  0  0  0  0  0  0  0  0  0  0  0
    7.0965   11.7680   22.1536 C   0  0  0  0  0  0  0  0  0  0  0  0
    8.8075   10.4148   23.2638 C   0  0  0  0  0  0  0  0  0  0  0  0
    8.4386   12.4684   24.0770 C   0  0  0  0  0  0  0  0  0  0  0  0
    6.8948   13.0343   21.7252 N   0  0  0  0  0  0  0  0  0  0  0  0
    8.0687   11.5601   23.1198 N   0  0  0  0  0  0  0  0  0  0  0  0
    4.0981   14.1764   18.8674 N   0  0  0  0  0  0  0  0  0  0  0  0
    4.3661   11.8410   17.8093 O   0  0  0  0  0  0  0  0  0  0  0  0
    2.6492   12.1840   19.6209 O   0  0  0  0  0  0  0  0  0  0  0  0
    8.6443    9.3727   22.4577 O   0  0  0  0  0  0  0  0  0  0  0  0
    7.8729   13.6666   24.1584 O   0  0  0  0  0  0  0  0  0  0  0  0
    3.9587   12.4825   19.0535 S   0  0  0  0  0  0  0  0  0  0  0  0
    4.8396   10.0447   20.3444 H   0  0  0  0  0  0  0  0  0  0  0  0
    6.5771    9.6675   22.0608 H   0  0  0  0  0  0  0  0  0  0  0  0
   10.3747    9.8699   24.6967 H   0  0  0  0  0  0  0  0  0  0  0  0
    9.9277   12.3591   25.6824 H   0  0  0  0  0  0  0  0  0  0  0  0
    5.7975   14.2316   20.4624 H   0  0  0  0  0  0  0  0  0  0  0  0
    4.5161   14.5340   17.9997 H   0  0  0  0  0  0  0  0  0  0  0  0
    3.3441   14.7667   19.2390 H   0  0  0  0  0  0  0  0  0  0  0  0
    9.2450    8.6297   22.6875 H   0  0  0  0  0  0  0  0  0  0  0  0
    7.1865   13.7992   23.4678 H   0  0  0  0  0  0  0  0  0  0  0  0
  1  2  2  0  0  0  0
  1  6  1  0  0  0  0
  2  7  1  0  0  0  0
  3  4  1  0  0  0  0
  3  8  2  0  0  0  0
  4  9  2  0  0  0  0
  5  6  2  0  0  0  0
  5 10  1  0  0  0  0
  6 17  1  0  0  0  0
  7 10  2  0  0  0  0
  7 11  1  0  0  0  0
  8 11  1  0  0  0  0
  8 15  1  0  0  0  0
  9 11  1  0  0  0  0
  9 16  1  0  0  0  0
 12 17  1  0  0  0  0
 13 17  2  0  0  0  0
 14 17  2  0  0  0  0
  1 18  1  0  0  0  0
  2 19  1  0  0  0  0
  3 20  1  0  0  0  0
  4 21  1  0  0  0  0
  5 22  1  0  0  0  0
 12 23  1  0  0  0  0
 12 24  1  0  0  0  0
 15 25  1  0  0  0  0
 16 26  1  0  0  0  0
M  END
> <Mol Weight>
255,25

> <Formula>
C9H9N3O4S

> <ID>
EN300-1692174

> <name>
Sulfonamides

> <LogP>
0,49

> <ROCS_ShapeQuery>
x0310_0A_x0719_0A_x1080_0A_x0739_0A_x0929_0A_x0526_0A_x0911_0A

> <ROCS_TanimotoCombo>
0.318 

> <ROCS_ShapeTanimoto>
0.184 

> <ROCS_ColorTanimoto>
0.134 

> <ROCS_RefTversky>
0.177 

> <ROCS_RefColorTversky>
0.163 

> <ROCS_RefTverskyCombo>
0.340 

> <ROCS_FitTversky>
1.238 

> <ROCS_FitColorTversky>
0.433 

> <ROCS_FitTverskyCombo>
1.670 

> <ROCS_ColorScore>
-4.766

> <ROCS_Overlap>
1421.292

> <ROCS_Rank>
214                 

$$$$
untitled-dbase-2792_367
  -OEChem-02092407103D

 31 32  0     0  0  0  0  0  0999 V2000
    6.5375   11.2964   20.4774 C   0  0  0  0  0  0  0  0  0  0  0  0
    7.3135   12.1395   21.3242 C   0  0  0  0  0  0  0  0  0  0  0  0
    5.2913   11.8250   20.2224 C   0  0  0  0  0  0  0  0  0  0  0  0
    6.6308   13.2807   21.6840 C   0  0  0  0  0  0  0  0  0  0  0  0
    2.9783   12.0056   17.6357 C   0  0  0  0  0  0  0  0  0  0  0  0
    2.3270   12.4839   18.9063 C   0  0  0  0  0  0  0  0  0  0  0  0
    4.1805   11.2576   19.3841 C   0  0  0  0  0  0  0  0  0  0  0  0
    7.3048    9.0846   20.8959 C   0  0  0  0  0  0  0  0  0  0  0  0
    8.7886   11.7870   23.1561 C   0  0  0  0  0  0  0  0  0  0  0  0
    5.5979   15.5758   22.5620 N   0  0  0  0  0  0  0  0  0  0  0  0
    7.1941   14.2044   24.0510 O   0  0  0  0  0  0  0  0  0  0  0  0
    8.1120   15.3953   22.0294 O   0  0  0  0  0  0  0  0  0  0  0  0
    4.3189   11.7257   18.0365 O   0  0  0  0  0  0  0  0  0  0  0  0
    2.9247   11.6857   19.9300 O   0  0  0  0  0  0  0  0  0  0  0  0
    6.9443   10.1190   19.9702 O   0  0  0  0  0  0  0  0  0  0  0  0
    8.5659   11.8847   21.7426 O   0  0  0  0  0  0  0  0  0  0  0  0
    5.0609   13.3321   21.0021 S   0  0  0  0  0  0  0  0  0  0  0  0
    7.0382   14.6690   22.6839 S   0  0  0  0  0  0  0  0  0  0  0  0
    2.5269   11.0732   17.2791 H   0  0  0  0  0  0  0  0  0  0  0  0
    2.9585   12.7459   16.8321 H   0  0  0  0  0  0  0  0  0  0  0  0
    2.5767   13.5306   19.1108 H   0  0  0  0  0  0  0  0  0  0  0  0
    1.2404   12.3669   18.9084 H   0  0  0  0  0  0  0  0  0  0  0  0
    4.2161   10.1515   19.3960 H   0  0  0  0  0  0  0  0  0  0  0  0
    7.6126    8.1925   20.3449 H   0  0  0  0  0  0  0  0  0  0  0  0
    6.4499    8.8534   21.5363 H   0  0  0  0  0  0  0  0  0  0  0  0
    8.1360    9.4337   21.5130 H   0  0  0  0  0  0  0  0  0  0  0  0
    9.8443   11.5785   23.3458 H   0  0  0  0  0  0  0  0  0  0  0  0
    8.1684   10.9875   23.5691 H   0  0  0  0  0  0  0  0  0  0  0  0
    8.5168   12.7356   23.6251 H   0  0  0  0  0  0  0  0  0  0  0  0
    5.3929   16.0323   21.6648 H   0  0  0  0  0  0  0  0  0  0  0  0
    4.7649   15.2209   23.0471 H   0  0  0  0  0  0  0  0  0  0  0  0
  1  2  1  0  0  0  0
  1  3  2  0  0  0  0
  1 15  1  0  0  0  0
  2  4  2  0  0  0  0
  2 16  1  0  0  0  0
  3  7  1  0  0  0  0
  3 17  1  0  0  0  0
  4 17  1  0  0  0  0
  4 18  1  0  0  0  0
  5  6  1  0  0  0  0
  5 13  1  0  0  0  0
  6 14  1  0  0  0  0
  7 13  1  0  0  0  0
  7 14  1  0  0  0  0
  8 15  1  0  0  0  0
  9 16  1  0  0  0  0
 10 18  1  0  0  0  0
 11 18  2  0  0  0  0
 12 18  2  0  0  0  0
  5 19  1  0  0  0  0
  5 20  1  0  0  0  0
  6 21  1  0  0  0  0
  6 22  1  0  0  0  0
  7 23  1  0  0  0  0
  8 24  1  0  0  0  0
  8 25  1  0  0  0  0
  8 26  1  0  0  0  0
  9 27  1  0  0  0  0
  9 28  1  0  0  0  0
  9 29  1  0  0  0  0
 10 30  1  0  0  0  0
 10 31  1  0  0  0  0
M  END
> <Mol Weight>
295,32

> <Formula>
C9H13NO6S2

> <ID>
EN300-6472337

> <name>
Sulfonamides

> <LogP>
0,33

> <ROCS_ShapeQuery>
x0310_0A_x0719_0A_x1080_0A_x0739_0A_x0929_0A_x0526_0A_x0911_0A

> <ROCS_TanimotoCombo>
0.318 

> <ROCS_ShapeTanimoto>
0.180 

> <ROCS_ColorTanimoto>
0.138 

> <ROCS_RefTversky>
0.174 

> <ROCS_RefColorTversky>
0.163 

> <ROCS_RefTverskyCombo>
0.337 

> <ROCS_FitTversky>
1.216 

> <ROCS_FitColorTversky>
0.473 

> <ROCS_FitTverskyCombo>
1.689 

> <ROCS_ColorScore>
-4.764

> <ROCS_Overlap>
1395.862

> <ROCS_Rank>
215                 

$$$$
untitled-dbase-1736_4
  -OEChem-02092407103D

 34 36  0     0  0  0  0  0  0999 V2000
    8.9071   10.4352   25.4206 C   0  0  0  0  0  0  0  0  0  0  0  0
    7.1146   10.9217   23.7387 C   0  0  0  0  0  0  0  0  0  0  0  0
    9.1507    9.6116   23.0667 C   0  0  0  0  0  0  0  0  0  0  0  0
    8.5791   12.7707   24.5714 C   0  0  0  0  0  0  0  0  0  0  0  0
   10.6153   11.4605   23.8994 C   0  0  0  0  0  0  0  0  0  0  0  0
    8.1485    9.8813   24.2021 C   0  0  0  0  0  0  0  0  0  0  0  0
    9.6236   11.7427   25.0425 C   0  0  0  0  0  0  0  0  0  0  0  0
    7.8204   12.2325   23.3405 C   0  0  0  0  0  0  0  0  0  0  0  0
    9.8646   10.9172   22.6658 C   0  0  0  0  0  0  0  0  0  0  0  0
    8.8442   11.9874   22.2043 C   0  0  0  0  0  0  0  0  0  0  0  0
    8.1775   11.6339   20.8730 C   0  0  0  0  0  0  0  0  0  0  0  0
    9.0227   13.6599   19.3789 N   0  0  0  0  0  0  0  0  0  0  0  0
    6.6809   12.6667   18.9967 O   0  0  0  0  0  0  0  0  0  0  0  0
    7.1302   14.0185   21.0838 O   0  0  0  0  0  0  0  0  0  0  0  0
    7.5757   13.0755   20.0690 S   0  0  0  0  0  0  0  0  0  0  0  0
    8.2089   10.6157   26.2472 H   0  0  0  0  0  0  0  0  0  0  0  0
    9.6366    9.6971   25.7759 H   0  0  0  0  0  0  0  0  0  0  0  0
    6.5308   10.5254   22.9007 H   0  0  0  0  0  0  0  0  0  0  0  0
    6.3989   11.1182   24.5471 H   0  0  0  0  0  0  0  0  0  0  0  0
    9.8912    8.8710   23.3944 H   0  0  0  0  0  0  0  0  0  0  0  0
    8.6354    9.1712   22.2060 H   0  0  0  0  0  0  0  0  0  0  0  0
    7.8723   12.9845   25.3828 H   0  0  0  0  0  0  0  0  0  0  0  0
    9.0722   13.7186   24.3231 H   0  0  0  0  0  0  0  0  0  0  0  0
   11.1540   12.3791   23.6360 H   0  0  0  0  0  0  0  0  0  0  0  0
   11.3690   10.7346   24.2287 H   0  0  0  0  0  0  0  0  0  0  0  0
    7.6403    8.9503   24.4770 H   0  0  0  0  0  0  0  0  0  0  0  0
   10.1626   12.1344   25.9121 H   0  0  0  0  0  0  0  0  0  0  0  0
    7.0752   12.9711   23.0229 H   0  0  0  0  0  0  0  0  0  0  0  0
   10.5844   10.7132   21.8647 H   0  0  0  0  0  0  0  0  0  0  0  0
    9.3899   12.9255   22.0288 H   0  0  0  0  0  0  0  0  0  0  0  0
    7.3338   10.9694   21.0427 H   0  0  0  0  0  0  0  0  0  0  0  0
    8.8955   11.1571   20.2107 H   0  0  0  0  0  0  0  0  0  0  0  0
    9.7281   14.0547   20.0131 H   0  0  0  0  0  0  0  0  0  0  0  0
    9.4218   13.1341   18.5916 H   0  0  0  0  0  0  0  0  0  0  0  0
  1  6  1  0  0  0  0
  1  7  1  0  0  0  0
  2  6  1  0  0  0  0
  2  8  1  0  0  0  0
  3  6  1  0  0  0  0
  3  9  1  0  0  0  0
  4  7  1  0  0  0  0
  4  8  1  0  0  0  0
  5  7  1  0  0  0  0
  5  9  1  0  0  0  0
  8 10  1  0  0  0  0
  9 10  1  0  0  0  0
 10 11  1  0  0  0  0
 11 15  1  0  0  0  0
 12 15  1  0  0  0  0
 13 15  2  0  0  0  0
 14 15  2  0  0  0  0
  1 16  1  0  0  0  0
  1 17  1  0  0  0  0
  2 18  1  0  0  0  0
  2 19  1  0  0  0  0
  3 20  1  0  0  0  0
  3 21  1  0  0  0  0
  4 22  1  0  0  0  0
  4 23  1  0  0  0  0
  5 24  1  0  0  0  0
  5 25  1  0  0  0  0
  6 26  1  0  0  0  0
  7 27  1  0  0  0  0
  8 28  1  0  0  0  0
  9 29  1  0  0  0  0
 10 30  1  0  0  0  0
 11 31  1  0  0  0  0
 11 32  1  0  0  0  0
 12 33  1  0  0  0  0
 12 34  1  0  0  0  0
M  END
> <Mol Weight>
229,34

> <Formula>
C11H19NO2S

> <ID>
EN300-283841

> <name>
Sulfonamides

> <LogP>
0,95

> <ROCS_ShapeQuery>
x0310_0A_x0719_0A_x1080_0A_x0739_0A_x0929_0A_x0526_0A_x0911_0A

> <ROCS_TanimotoCombo>
0.317 

> <ROCS_ShapeTanimoto>
0.139 

> <ROCS_ColorTanimoto>
0.178 

> <ROCS_RefTversky>
0.138 

> <ROCS_RefColorTversky>
0.206 

> <ROCS_RefTverskyCombo>
0.344 

> <ROCS_FitTversky>
1.071 

> <ROCS_FitColorTversky>
0.573 

> <ROCS_FitTverskyCombo>
1.643 

> <ROCS_ColorScore>
-6.017

> <ROCS_Overlap>
1103.095

> <ROCS_Rank>
216                 

$$$$
untitled-dbase-2656_7190
  -OEChem-02092407103D

 42 41  0     0  0  0  0  0  0999 V2000
    7.1346   12.3961   21.8862 C   0  0  0  0  0  0  0  0  0  0  0  0
    3.4522   10.8469   20.9694 C   0  0  0  0  0  0  0  0  0  0  0  0
    4.5699   10.4836   18.7724 C   0  0  0  0  0  0  0  0  0  0  0  0
    7.2844   13.0880   24.6518 C   0  0  0  0  0  0  0  0  0  0  0  0
    8.7947   11.0937   24.8783 C   0  0  0  0  0  0  0  0  0  0  0  0
    9.4737   13.0167   23.4122 C   0  0  0  0  0  0  0  0  0  0  0  0
    2.9815   12.4076   19.0217 C   0  0  0  0  0  0  0  0  0  0  0  0
    5.2558   12.4310   20.2523 C   0  0  0  0  0  0  0  0  0  0  0  0
    1.5949   11.7758   18.9574 C   0  0  0  0  0  0  0  0  0  0  0  0
    4.0669   11.5673   19.7515 C   0  0  0  0  0  0  0  0  0  0  0  0
    8.3000   12.1940   23.9418 C   0  0  0  0  0  0  0  0  0  0  0  0
   -0.9410   11.8538   18.1736 N   0  0  0  0  0  0  0  0  0  0  0  0
    6.0439   11.8010   21.3079 N   0  0  0  0  0  0  0  0  0  0  0  0
    7.5891   13.5017   21.6112 O   0  0  0  0  0  0  0  0  0  0  0  0
    0.2692   14.0242   18.8381 O   0  0  0  0  0  0  0  0  0  0  0  0
    0.8989   12.8613   16.6848 O   0  0  0  0  0  0  0  0  0  0  0  0
    7.6519   11.5586   22.8341 O   0  0  0  0  0  0  0  0  0  0  0  0
    0.4676   12.8080   18.0702 S   0  0  0  0  0  0  0  0  0  0  0  0
    3.0754   11.5682   21.7039 H   0  0  0  0  0  0  0  0  0  0  0  0
    2.6104   10.2088   20.6815 H   0  0  0  0  0  0  0  0  0  0  0  0
    4.1939   10.2173   21.4738 H   0  0  0  0  0  0  0  0  0  0  0  0
    5.0199   10.9372   17.8815 H   0  0  0  0  0  0  0  0  0  0  0  0
    3.7482    9.8409   18.4371 H   0  0  0  0  0  0  0  0  0  0  0  0
    5.3313    9.8431   19.2301 H   0  0  0  0  0  0  0  0  0  0  0  0
    6.9269   13.8790   23.9830 H   0  0  0  0  0  0  0  0  0  0  0  0
    6.4209   12.5153   25.0058 H   0  0  0  0  0  0  0  0  0  0  0  0
    7.7409   13.5925   25.5111 H   0  0  0  0  0  0  0  0  0  0  0  0
    9.5236   10.4498   24.3730 H   0  0  0  0  0  0  0  0  0  0  0  0
    7.9686   10.4424   25.1859 H   0  0  0  0  0  0  0  0  0  0  0  0
    9.2626   11.5082   25.7770 H   0  0  0  0  0  0  0  0  0  0  0  0
   10.2023   12.3757   22.9029 H   0  0  0  0  0  0  0  0  0  0  0  0
    9.1412   13.7878   22.7098 H   0  0  0  0  0  0  0  0  0  0  0  0
   10.0111   13.5030   24.2344 H   0  0  0  0  0  0  0  0  0  0  0  0
    3.3189   12.6128   17.9962 H   0  0  0  0  0  0  0  0  0  0  0  0
    2.8969   13.3928   19.4996 H   0  0  0  0  0  0  0  0  0  0  0  0
    5.9263   12.6687   19.4188 H   0  0  0  0  0  0  0  0  0  0  0  0
    4.8817   13.3918   20.6277 H   0  0  0  0  0  0  0  0  0  0  0  0
    1.6065   10.8163   18.4344 H   0  0  0  0  0  0  0  0  0  0  0  0
    1.1619   11.6363   19.9512 H   0  0  0  0  0  0  0  0  0  0  0  0
   -0.9740   10.9877   17.6220 H   0  0  0  0  0  0  0  0  0  0  0  0
   -1.4028   11.7799   19.0884 H   0  0  0  0  0  0  0  0  0  0  0  0
    5.7726   10.8840   21.6267 H   0  0  0  0  0  0  0  0  0  0  0  0
  1 13  1  0  0  0  0
  1 14  2  0  0  0  0
  1 17  1  0  0  0  0
  2 10  1  0  0  0  0
  3 10  1  0  0  0  0
  4 11  1  0  0  0  0
  5 11  1  0  0  0  0
  6 11  1  0  0  0  0
  7  9  1  0  0  0  0
  7 10  1  0  0  0  0
  8 10  1  0  0  0  0
  8 13  1  0  0  0  0
  9 18  1  0  0  0  0
 11 17  1  0  0  0  0
 12 18  1  0  0  0  0
 15 18  2  0  0  0  0
 16 18  2  0  0  0  0
  2 19  1  0  0  0  0
  2 20  1  0  0  0  0
  2 21  1  0  0  0  0
  3 22  1  0  0  0  0
  3 23  1  0  0  0  0
  3 24  1  0  0  0  0
  4 25  1  0  0  0  0
  4 26  1  0  0  0  0
  4 27  1  0  0  0  0
  5 28  1  0  0  0  0
  5 29  1  0  0  0  0
  5 30  1  0  0  0  0
  6 31  1  0  0  0  0
  6 32  1  0  0  0  0
  6 33  1  0  0  0  0
  7 34  1  0  0  0  0
  7 35  1  0  0  0  0
  8 36  1  0  0  0  0
  8 37  1  0  0  0  0
  9 38  1  0  0  0  0
  9 39  1  0  0  0  0
 12 40  1  0  0  0  0
 12 41  1  0  0  0  0
 13 42  1  0  0  0  0
M  END
> <Mol Weight>
280,38

> <Formula>
C11H24N2O4S

> <ID>
EN300-45462146

> <name>
Sulfonamides

> <LogP>
0,63

> <ROCS_ShapeQuery>
x0310_0A_x0719_0A_x1080_0A_x0739_0A_x0929_0A_x0526_0A_x0911_0A

> <ROCS_TanimotoCombo>
0.317 

> <ROCS_ShapeTanimoto>
0.227 

> <ROCS_ColorTanimoto>
0.090 

> <ROCS_RefTversky>
0.210 

> <ROCS_RefColorTversky>
0.106 

> <ROCS_RefTverskyCombo>
0.316 

> <ROCS_FitTversky>
1.526 

> <ROCS_FitColorTversky>
0.378 

> <ROCS_FitTverskyCombo>
1.904 

> <ROCS_ColorScore>
-3.088

> <ROCS_Overlap>
1686.438

> <ROCS_Rank>
217                 

$$$$
untitled-dbase-613_2
  -OEChem-02092407103D

 23 23  0     0  0  0  0  0  0999 V2000
    8.4192   12.1680   23.4764 C   0  0  0  0  0  0  0  0  0  0  0  0
    7.6754   10.9852   23.6476 C   0  0  0  0  0  0  0  0  0  0  0  0
    9.7173   11.7970   23.7291 C   0  0  0  0  0  0  0  0  0  0  0  0
    6.2207   10.8010   23.5004 C   0  0  0  0  0  0  0  0  0  0  0  0
   10.9731   12.5714   23.7171 C   0  0  0  0  0  0  0  0  0  0  0  0
   10.7907    9.6147   24.3622 C   0  0  0  0  0  0  0  0  0  0  0  0
    8.4376    9.9408   23.9830 N   0  0  0  0  0  0  0  0  0  0  0  0
    9.6738   10.4662   24.0245 N   0  0  0  0  0  0  0  0  0  0  0  0
    9.2854   14.6485   23.0273 N   0  0  0  0  0  0  0  0  0  0  0  0
    7.3038   13.6910   21.6848 O   0  0  0  0  0  0  0  0  0  0  0  0
    6.9882   14.2465   24.1219 O   0  0  0  0  0  0  0  0  0  0  0  0
    7.8457   13.7116   23.0525 S   0  0  0  0  0  0  0  0  0  0  0  0
    5.9554   10.5258   22.4656 H   0  0  0  0  0  0  0  0  0  0  0  0
    5.8319   10.0099   24.1656 H   0  0  0  0  0  0  0  0  0  0  0  0
    5.6574   11.7157   23.7568 H   0  0  0  0  0  0  0  0  0  0  0  0
   11.1825   13.0054   24.7087 H   0  0  0  0  0  0  0  0  0  0  0  0
   11.8403   11.9503   23.4338 H   0  0  0  0  0  0  0  0  0  0  0  0
   10.9419   13.4002   22.9888 H   0  0  0  0  0  0  0  0  0  0  0  0
   10.9208    9.6434   25.4473 H   0  0  0  0  0  0  0  0  0  0  0  0
   10.5841    8.5939   24.0289 H   0  0  0  0  0  0  0  0  0  0  0  0
   11.6896    9.9809   23.8585 H   0  0  0  0  0  0  0  0  0  0  0  0
    9.6581   14.9484   22.1181 H   0  0  0  0  0  0  0  0  0  0  0  0
    9.4419   15.3256   23.7838 H   0  0  0  0  0  0  0  0  0  0  0  0
  1  2  1  0  0  0  0
  1  3  2  0  0  0  0
  1 12  1  0  0  0  0
  2  4  1  0  0  0  0
  2  7  2  0  0  0  0
  3  5  1  0  0  0  0
  3  8  1  0  0  0  0
  6  8  1  0  0  0  0
  7  8  1  0  0  0  0
  9 12  1  0  0  0  0
 10 12  2  0  0  0  0
 11 12  2  0  0  0  0
  4 13  1  0  0  0  0
  4 14  1  0  0  0  0
  4 15  1  0  0  0  0
  5 16  1  0  0  0  0
  5 17  1  0  0  0  0
  5 18  1  0  0  0  0
  6 19  1  0  0  0  0
  6 20  1  0  0  0  0
  6 21  1  0  0  0  0
  9 22  1  0  0  0  0
  9 23  1  0  0  0  0
M  END
> <Mol Weight>
189,23

> <Formula>
C6H11N3O2S

> <ID>
EN300-27009

> <name>
Sulfonamides

> <LogP>
-0,66

> <ROCS_ShapeQuery>
x0310_0A_x0719_0A_x1080_0A_x0739_0A_x0929_0A_x0526_0A_x0911_0A

> <ROCS_TanimotoCombo>
0.317 

> <ROCS_ShapeTanimoto>
0.147 

> <ROCS_ColorTanimoto>
0.170 

> <ROCS_RefTversky>
0.143 

> <ROCS_RefColorTversky>
0.177 

> <ROCS_RefTverskyCombo>
0.319 

> <ROCS_FitTversky>
1.266 

> <ROCS_FitColorTversky>
0.818 

> <ROCS_FitTverskyCombo>
2.085 

> <ROCS_ColorScore>
-5.128

> <ROCS_Overlap>
1140.903

> <ROCS_Rank>
218                 

$$$$
untitled-dbase-499_20
  -OEChem-02092407103D

 22 22  0     0  0  0  0  0  0999 V2000
    9.1750   11.8740   24.8562 C   0  0  0  0  0  0  0  0  0  0  0  0
    8.7013   11.6715   22.5069 C   0  0  0  0  0  0  0  0  0  0  0  0
    8.9217   10.5165   24.9693 C   0  0  0  0  0  0  0  0  0  0  0  0
    8.4695   10.3230   22.7251 C   0  0  0  0  0  0  0  0  0  0  0  0
    9.0605   12.4549   23.5981 C   0  0  0  0  0  0  0  0  0  0  0  0
    9.3211   13.9121   23.4199 C   0  0  0  0  0  0  0  0  0  0  0  0
    8.5123   14.5463   22.2848 C   0  0  0  0  0  0  0  0  0  0  0  0
    8.5706    9.7232   23.9324 N   0  0  0  0  0  0  0  0  0  0  0  0
    6.2446   15.6830   21.4995 N   0  0  0  0  0  0  0  0  0  0  0  0
    6.3049   13.1694   22.0427 O   0  0  0  0  0  0  0  0  0  0  0  0
    6.4970   14.8498   23.9201 O   0  0  0  0  0  0  0  0  0  0  0  0
    6.7698   14.4481   22.5511 S   0  0  0  0  0  0  0  0  0  0  0  0
    9.4523   12.4578   25.7274 H   0  0  0  0  0  0  0  0  0  0  0  0
    8.6042   12.0954   21.5133 H   0  0  0  0  0  0  0  0  0  0  0  0
    8.9961   10.0158   25.9291 H   0  0  0  0  0  0  0  0  0  0  0  0
    8.1867    9.6690   21.9068 H   0  0  0  0  0  0  0  0  0  0  0  0
   10.3920   14.0697   23.2032 H   0  0  0  0  0  0  0  0  0  0  0  0
    9.1294   14.4685   24.3539 H   0  0  0  0  0  0  0  0  0  0  0  0
    8.7426   15.6131   22.1996 H   0  0  0  0  0  0  0  0  0  0  0  0
    8.7175   14.0717   21.3204 H   0  0  0  0  0  0  0  0  0  0  0  0
    6.4414   16.6552   21.7673 H   0  0  0  0  0  0  0  0  0  0  0  0
    6.3104   15.5105   20.4888 H   0  0  0  0  0  0  0  0  0  0  0  0
  1  3  2  0  0  0  0
  1  5  1  0  0  0  0
  2  4  1  0  0  0  0
  2  5  2  0  0  0  0
  3  8  1  0  0  0  0
  4  8  2  0  0  0  0
  5  6  1  0  0  0  0
  6  7  1  0  0  0  0
  7 12  1  0  0  0  0
  9 12  1  0  0  0  0
 10 12  2  0  0  0  0
 11 12  2  0  0  0  0
  1 13  1  0  0  0  0
  2 14  1  0  0  0  0
  3 15  1  0  0  0  0
  4 16  1  0  0  0  0
  6 17  1  0  0  0  0
  6 18  1  0  0  0  0
  7 19  1  0  0  0  0
  7 20  1  0  0  0  0
  9 21  1  0  0  0  0
  9 22  1  0  0  0  0
M  END
> <Mol Weight>
186,23

> <Formula>
C7H10N2O2S

> <ID>
EN300-59813

> <name>
Sulfonamides

> <LogP>
-0,59

> <ROCS_ShapeQuery>
x0310_0A_x0719_0A_x1080_0A_x0739_0A_x0929_0A_x0526_0A_x0911_0A

> <ROCS_TanimotoCombo>
0.317 

> <ROCS_ShapeTanimoto>
0.151 

> <ROCS_ColorTanimoto>
0.166 

> <ROCS_RefTversky>
0.146 

> <ROCS_RefColorTversky>
0.173 

> <ROCS_RefTverskyCombo>
0.319 

> <ROCS_FitTversky>
1.317 

> <ROCS_FitColorTversky>
0.801 

> <ROCS_FitTverskyCombo>
2.118 

> <ROCS_ColorScore>
-5.017

> <ROCS_Overlap>
1167.293

> <ROCS_Rank>
219                 

$$$$
untitled-dbase-1303_7
  -OEChem-02092407103D

 25 25  0     1  0  0  0  0  0999 V2000
    7.7272   10.8467   24.3326 C   0  0  0  0  0  0  0  0  0  0  0  0
    8.3076   12.2040   24.7253 C   0  0  0  0  0  0  0  0  0  0  0  0
    8.7560    9.9915   23.5960 C   0  0  0  0  0  0  0  0  0  0  0  0
    9.9531   11.9475   22.8358 C   0  0  0  0  0  0  0  0  0  0  0  0
    8.9772   12.9066   23.5355 C   0  0  1  0  0  0  0  0  0  0  0  0
    7.9404   13.4692   22.5579 C   0  0  0  0  0  0  0  0  0  0  0  0
    9.3119   10.6924   22.4381 N   0  0  0  0  0  0  0  0  0  0  0  0
    6.1902   15.3477   21.8802 N   0  0  0  0  0  0  0  0  0  0  0  0
    6.5126   14.7196   24.3537 O   0  0  0  0  0  0  0  0  0  0  0  0
    8.3371   15.9840   23.1462 O   0  0  0  0  0  0  0  0  0  0  0  0
    7.2770   14.9876   23.1451 S   0  0  0  0  0  0  0  0  0  0  0  0
    7.3873   10.3211   25.2344 H   0  0  0  0  0  0  0  0  0  0  0  0
    6.8452   10.9930   23.6981 H   0  0  0  0  0  0  0  0  0  0  0  0
    7.5001   12.8381   25.1286 H   0  0  0  0  0  0  0  0  0  0  0  0
    9.0322   12.0709   25.5446 H   0  0  0  0  0  0  0  0  0  0  0  0
    9.5728    9.7330   24.2804 H   0  0  0  0  0  0  0  0  0  0  0  0
    8.3055    9.0431   23.2756 H   0  0  0  0  0  0  0  0  0  0  0  0
   10.4032   12.4263   21.9525 H   0  0  0  0  0  0  0  0  0  0  0  0
   10.7881   11.7119   23.5113 H   0  0  0  0  0  0  0  0  0  0  0  0
    9.5605   13.7602   23.9302 H   0  0  0  0  0  0  0  0  0  0  0  0
    7.1151   12.7696   22.4406 H   0  0  0  0  0  0  0  0  0  0  0  0
    8.3999   13.6597   21.5901 H   0  0  0  0  0  0  0  0  0  0  0  0
   10.0058   10.0941   21.9917 H   0  0  0  0  0  0  0  0  0  0  0  0
    5.1851   15.2664   22.0771 H   0  0  0  0  0  0  0  0  0  0  0  0
    6.4278   16.1273   21.2546 H   0  0  0  0  0  0  0  0  0  0  0  0
  1  2  1  0  0  0  0
  1  3  1  0  0  0  0
  2  5  1  0  0  0  0
  3  7  1  0  0  0  0
  4  5  1  0  0  0  0
  4  7  1  0  0  0  0
  5  6  1  0  0  0  0
  6 11  1  0  0  0  0
  8 11  1  0  0  0  0
  9 11  2  0  0  0  0
 10 11  2  0  0  0  0
  1 12  1  0  0  0  0
  1 13  1  0  0  0  0
  2 14  1  0  0  0  0
  2 15  1  0  0  0  0
  3 16  1  0  0  0  0
  3 17  1  0  0  0  0
  4 18  1  0  0  0  0
  4 19  1  0  0  0  0
  5 20  1  0  0  0  0
  6 21  1  0  0  0  0
  6 22  1  0  0  0  0
  7 23  1  0  0  0  0
  8 24  1  0  0  0  0
  8 25  1  0  0  0  0
M  END
> <Mol Weight>
214,71

> <Formula>
C6H15ClN2O2S

> <ID>
EN300-72612

> <name>
Sulfonamides

> <LogP>
-1,47

> <ROCS_ShapeQuery>
x0310_0A_x0719_0A_x1080_0A_x0739_0A_x0929_0A_x0526_0A_x0911_0A

> <ROCS_TanimotoCombo>
0.317 

> <ROCS_ShapeTanimoto>
0.166 

> <ROCS_ColorTanimoto>
0.151 

> <ROCS_RefTversky>
0.157 

> <ROCS_RefColorTversky>
0.163 

> <ROCS_RefTverskyCombo>
0.321 

> <ROCS_FitTversky>
1.515 

> <ROCS_FitColorTversky>
0.658 

> <ROCS_FitTverskyCombo>
2.173 

> <ROCS_ColorScore>
-4.751

> <ROCS_Overlap>
1256.844

> <ROCS_Rank>
220                 

$$$$
untitled-dbase-403_7
  -OEChem-02092407103D

 25 25  0     1  0  0  0  0  0999 V2000
    7.7272   10.8467   24.3326 C   0  0  0  0  0  0  0  0  0  0  0  0
    8.3076   12.2040   24.7253 C   0  0  0  0  0  0  0  0  0  0  0  0
    8.7560    9.9915   23.5960 C   0  0  0  0  0  0  0  0  0  0  0  0
    9.9531   11.9475   22.8358 C   0  0  0  0  0  0  0  0  0  0  0  0
    8.9772   12.9066   23.5355 C   0  0  1  0  0  0  0  0  0  0  0  0
    7.9404   13.4692   22.5579 C   0  0  0  0  0  0  0  0  0  0  0  0
    9.3119   10.6924   22.4381 N   0  0  0  0  0  0  0  0  0  0  0  0
    6.1902   15.3477   21.8802 N   0  0  0  0  0  0  0  0  0  0  0  0
    6.5126   14.7196   24.3537 O   0  0  0  0  0  0  0  0  0  0  0  0
    8.3371   15.9840   23.1462 O   0  0  0  0  0  0  0  0  0  0  0  0
    7.2770   14.9876   23.1451 S   0  0  0  0  0  0  0  0  0  0  0  0
    7.3873   10.3211   25.2344 H   0  0  0  0  0  0  0  0  0  0  0  0
    6.8452   10.9930   23.6981 H   0  0  0  0  0  0  0  0  0  0  0  0
    7.5001   12.8381   25.1286 H   0  0  0  0  0  0  0  0  0  0  0  0
    9.0322   12.0709   25.5446 H   0  0  0  0  0  0  0  0  0  0  0  0
    9.5728    9.7330   24.2804 H   0  0  0  0  0  0  0  0  0  0  0  0
    8.3055    9.0431   23.2756 H   0  0  0  0  0  0  0  0  0  0  0  0
   10.4032   12.4263   21.9525 H   0  0  0  0  0  0  0  0  0  0  0  0
   10.7881   11.7119   23.5113 H   0  0  0  0  0  0  0  0  0  0  0  0
    9.5605   13.7602   23.9302 H   0  0  0  0  0  0  0  0  0  0  0  0
    7.1151   12.7696   22.4406 H   0  0  0  0  0  0  0  0  0  0  0  0
    8.3999   13.6597   21.5901 H   0  0  0  0  0  0  0  0  0  0  0  0
   10.0058   10.0941   21.9917 H   0  0  0  0  0  0  0  0  0  0  0  0
    5.1851   15.2664   22.0771 H   0  0  0  0  0  0  0  0  0  0  0  0
    6.4278   16.1273   21.2546 H   0  0  0  0  0  0  0  0  0  0  0  0
  1  2  1  0  0  0  0
  1  3  1  0  0  0  0
  2  5  1  0  0  0  0
  3  7  1  0  0  0  0
  4  5  1  0  0  0  0
  4  7  1  0  0  0  0
  5  6  1  0  0  0  0
  6 11  1  0  0  0  0
  8 11  1  0  0  0  0
  9 11  2  0  0  0  0
 10 11  2  0  0  0  0
  1 12  1  0  0  0  0
  1 13  1  0  0  0  0
  2 14  1  0  0  0  0
  2 15  1  0  0  0  0
  3 16  1  0  0  0  0
  3 17  1  0  0  0  0
  4 18  1  0  0  0  0
  4 19  1  0  0  0  0
  5 20  1  0  0  0  0
  6 21  1  0  0  0  0
  6 22  1  0  0  0  0
  7 23  1  0  0  0  0
  8 24  1  0  0  0  0
  8 25  1  0  0  0  0
M  END
> <Mol Weight>
178,25

> <Formula>
C6H14N2O2S

> <ID>
EN300-145642

> <name>
Sulfonamides

> <LogP>
-1,47

> <ROCS_ShapeQuery>
x0310_0A_x0719_0A_x1080_0A_x0739_0A_x0929_0A_x0526_0A_x0911_0A

> <ROCS_TanimotoCombo>
0.317 

> <ROCS_ShapeTanimoto>
0.166 

> <ROCS_ColorTanimoto>
0.151 

> <ROCS_RefTversky>
0.157 

> <ROCS_RefColorTversky>
0.163 

> <ROCS_RefTverskyCombo>
0.321 

> <ROCS_FitTversky>
1.515 

> <ROCS_FitColorTversky>
0.658 

> <ROCS_FitTverskyCombo>
2.173 

> <ROCS_ColorScore>
-4.751

> <ROCS_Overlap>
1256.844

> <ROCS_Rank>
221                 

$$$$
untitled-dbase-1551_7
  -OEChem-02092407103D

 24 25  0     0  0  0  0  0  0999 V2000
   11.0825   13.6733   23.6726 C   0  0  0  0  0  0  0  0  0  0  0  0
    9.9580   14.2034   23.0578 C   0  0  0  0  0  0  0  0  0  0  0  0
   11.0775   12.3418   24.0846 C   0  0  0  0  0  0  0  0  0  0  0  0
    8.8801    9.5057   24.0877 C   0  0  0  0  0  0  0  0  0  0  0  0
    7.7696   10.0293   23.4809 C   0  0  0  0  0  0  0  0  0  0  0  0
    8.8380   13.3976   22.8606 C   0  0  0  0  0  0  0  0  0  0  0  0
    9.9636   11.5280   23.8922 C   0  0  0  0  0  0  0  0  0  0  0  0
    8.8227   12.0658   23.2686 C   0  0  0  0  0  0  0  0  0  0  0  0
    7.6409   13.9992   22.1929 C   0  0  0  0  0  0  0  0  0  0  0  0
    9.9830   10.2464   24.2984 N   0  0  0  0  0  0  0  0  0  0  0  0
    7.7301   11.3086   23.0672 N   0  0  0  0  0  0  0  0  0  0  0  0
    5.7438   15.8555   22.2744 N   0  0  0  0  0  0  0  0  0  0  0  0
    6.5874   14.7793   24.4532 O   0  0  0  0  0  0  0  0  0  0  0  0
    8.0909   16.3713   23.1921 O   0  0  0  0  0  0  0  0  0  0  0  0
    7.0764   15.3303   23.2001 S   0  0  0  0  0  0  0  0  0  0  0  0
   11.9618   14.2899   23.8326 H   0  0  0  0  0  0  0  0  0  0  0  0
    9.9602   15.2410   22.7355 H   0  0  0  0  0  0  0  0  0  0  0  0
   11.9670   11.9390   24.5652 H   0  0  0  0  0  0  0  0  0  0  0  0
    8.9226    8.4775   24.4242 H   0  0  0  0  0  0  0  0  0  0  0  0
    6.8771    9.4420   23.3060 H   0  0  0  0  0  0  0  0  0  0  0  0
    6.8234   13.2798   22.0900 H   0  0  0  0  0  0  0  0  0  0  0  0
    7.8806   14.3992   21.2033 H   0  0  0  0  0  0  0  0  0  0  0  0
    4.8031   15.6707   22.6437 H   0  0  0  0  0  0  0  0  0  0  0  0
    5.8272   16.7549   21.7847 H   0  0  0  0  0  0  0  0  0  0  0  0
  1  2  2  0  0  0  0
  1  3  1  0  0  0  0
  2  6  1  0  0  0  0
  3  7  2  0  0  0  0
  4  5  1  0  0  0  0
  4 10  2  0  0  0  0
  5 11  2  0  0  0  0
  6  8  2  0  0  0  0
  6  9  1  0  0  0  0
  7  8  1  0  0  0  0
  7 10  1  0  0  0  0
  8 11  1  0  0  0  0
  9 15  1  0  0  0  0
 12 15  1  0  0  0  0
 13 15  2  0  0  0  0
 14 15  2  0  0  0  0
  1 16  1  0  0  0  0
  2 17  1  0  0  0  0
  3 18  1  0  0  0  0
  4 19  1  0  0  0  0
  5 20  1  0  0  0  0
  9 21  1  0  0  0  0
  9 22  1  0  0  0  0
 12 23  1  0  0  0  0
 12 24  1  0  0  0  0
M  END
> <Mol Weight>
223,25

> <Formula>
C9H9N3O2S

> <ID>
EN300-263007

> <name>
Sulfonamides

> <LogP>
-0,33

> <ROCS_ShapeQuery>
x0310_0A_x0719_0A_x1080_0A_x0739_0A_x0929_0A_x0526_0A_x0911_0A

> <ROCS_TanimotoCombo>
0.316 

> <ROCS_ShapeTanimoto>
0.171 

> <ROCS_ColorTanimoto>
0.145 

> <ROCS_RefTversky>
0.165 

> <ROCS_RefColorTversky>
0.162 

> <ROCS_RefTverskyCombo>
0.328 

> <ROCS_FitTversky>
1.258 

> <ROCS_FitColorTversky>
0.579 

> <ROCS_FitTverskyCombo>
1.837 

> <ROCS_ColorScore>
-4.729

> <ROCS_Overlap>
1323.995

> <ROCS_Rank>
222                 

$$$$
untitled-dbase-1840_8
  -OEChem-02092407103D

 25 26  0     0  0  0  0  0  0999 V2000
    9.5184    9.8970   23.3902 C   0  0  0  0  0  0  0  0  0  0  0  0
   10.0551   11.0795   22.8810 C   0  0  0  0  0  0  0  0  0  0  0  0
    8.2816    9.9133   24.0349 C   0  0  0  0  0  0  0  0  0  0  0  0
    9.3550   12.2783   23.0166 C   0  0  0  0  0  0  0  0  0  0  0  0
    7.5815   11.1121   24.1705 C   0  0  0  0  0  0  0  0  0  0  0  0
    5.8793   15.0175   22.9709 C   0  0  0  0  0  0  0  0  0  0  0  0
    6.9473   15.4110   25.0107 C   0  0  0  0  0  0  0  0  0  0  0  0
    8.1182   12.2946   23.6613 C   0  0  0  0  0  0  0  0  0  0  0  0
    6.0444   15.8460   24.0621 C   0  0  0  0  0  0  0  0  0  0  0  0
    7.3923   13.5383   23.8015 C   0  0  0  0  0  0  0  0  0  0  0  0
    6.5394   13.8522   22.8078 N   0  0  0  0  0  0  0  0  0  0  0  0
    7.6411   14.2580   24.9122 N   0  0  0  0  0  0  0  0  0  0  0  0
    4.2380   17.3441   22.7983 N   0  0  0  0  0  0  0  0  0  0  0  0
    4.2724   17.2292   25.3734 O   0  0  0  0  0  0  0  0  0  0  0  0
    6.1198   18.4474   24.1689 O   0  0  0  0  0  0  0  0  0  0  0  0
    5.1739   17.3371   24.2304 S   0  0  0  0  0  0  0  0  0  0  0  0
   10.0629    8.9634   23.2830 H   0  0  0  0  0  0  0  0  0  0  0  0
   11.0173   11.0667   22.3775 H   0  0  0  0  0  0  0  0  0  0  0  0
    7.8624    8.9927   24.4304 H   0  0  0  0  0  0  0  0  0  0  0  0
    9.7867   13.1917   22.6140 H   0  0  0  0  0  0  0  0  0  0  0  0
    6.6181   11.1093   24.6749 H   0  0  0  0  0  0  0  0  0  0  0  0
    5.1926   15.2685   22.1687 H   0  0  0  0  0  0  0  0  0  0  0  0
    7.1498   15.9895   25.9063 H   0  0  0  0  0  0  0  0  0  0  0  0
    3.2273   17.1789   22.8802 H   0  0  0  0  0  0  0  0  0  0  0  0
    4.4912   18.0097   22.0580 H   0  0  0  0  0  0  0  0  0  0  0  0
  1  2  1  0  0  0  0
  1  3  2  0  0  0  0
  2  4  2  0  0  0  0
  3  5  1  0  0  0  0
  4  8  1  0  0  0  0
  5  8  2  0  0  0  0
  6  9  1  0  0  0  0
  6 11  2  0  0  0  0
  7  9  2  0  0  0  0
  7 12  1  0  0  0  0
  8 10  1  0  0  0  0
  9 16  1  0  0  0  0
 10 11  1  0  0  0  0
 10 12  2  0  0  0  0
 13 16  1  0  0  0  0
 14 16  2  0  0  0  0
 15 16  2  0  0  0  0
  1 17  1  0  0  0  0
  2 18  1  0  0  0  0
  3 19  1  0  0  0  0
  4 20  1  0  0  0  0
  5 21  1  0  0  0  0
  6 22  1  0  0  0  0
  7 23  1  0  0  0  0
 13 24  1  0  0  0  0
 13 25  1  0  0  0  0
M  END
> <Mol Weight>
235,26

> <Formula>
C10H9N3O2S

> <ID>
EN300-171744

> <name>
Sulfonamides

> <LogP>
1,07

> <ROCS_ShapeQuery>
x0310_0A_x0719_0A_x1080_0A_x0739_0A_x0929_0A_x0526_0A_x0911_0A

> <ROCS_TanimotoCombo>
0.316 

> <ROCS_ShapeTanimoto>
0.194 

> <ROCS_ColorTanimoto>
0.122 

> <ROCS_RefTversky>
0.185 

> <ROCS_RefColorTversky>
0.140 

> <ROCS_RefTverskyCombo>
0.324 

> <ROCS_FitTversky>
1.356 

> <ROCS_FitColorTversky>
0.497 

> <ROCS_FitTverskyCombo>
1.853 

> <ROCS_ColorScore>
-4.061

> <ROCS_Overlap>
1479.538

> <ROCS_Rank>
223                 

$$$$
untitled-dbase-1783_2
  -OEChem-02092407103D

 20 21  0     0  0  0  0  0  0999 V2000
    9.6476   12.6358   23.7054 C   0  0  0  0  0  0  0  0  0  0  0  0
   10.2133   11.4743   24.2281 C   0  0  0  0  0  0  0  0  0  0  0  0
    6.2398   12.7863   22.3998 C   0  0  0  0  0  0  0  0  0  0  0  0
    8.3268   12.5670   23.2336 C   0  0  0  0  0  0  0  0  0  0  0  0
    7.4069   13.4762   22.6475 C   0  0  0  0  0  0  0  0  0  0  0  0
    7.6779   11.3389   23.3234 C   0  0  0  0  0  0  0  0  0  0  0  0
    9.4506   10.3146   24.2571 C   0  0  0  0  0  0  0  0  0  0  0  0
    8.1766   10.1901   23.8179 N   0  0  0  0  0  0  0  0  0  0  0  0
    6.4152   11.4913   22.8139 N   0  0  0  0  0  0  0  0  0  0  0  0
    6.1838   15.6094   21.6188 N   0  0  0  0  0  0  0  0  0  0  0  0
    7.8624   15.8715   23.5576 O   0  0  0  0  0  0  0  0  0  0  0  0
    8.7115   15.2581   21.2663 O   0  0  0  0  0  0  0  0  0  0  0  0
    7.6808   15.1248   22.3053 S   0  0  0  0  0  0  0  0  0  0  0  0
   10.1140    8.8604   24.8949 Cl  0  0  0  0  0  0  0  0  0  0  0  0
   10.2171   13.5589   23.6683 H   0  0  0  0  0  0  0  0  0  0  0  0
   11.2325   11.4921   24.6017 H   0  0  0  0  0  0  0  0  0  0  0  0
    5.2998   13.0990   21.9665 H   0  0  0  0  0  0  0  0  0  0  0  0
    5.7203   10.7602   22.7529 H   0  0  0  0  0  0  0  0  0  0  0  0
    5.9509   15.2811   20.6736 H   0  0  0  0  0  0  0  0  0  0  0  0
    5.3696   15.7024   22.2383 H   0  0  0  0  0  0  0  0  0  0  0  0
  1  2  2  0  0  0  0
  1  4  1  0  0  0  0
  2  7  1  0  0  0  0
  3  5  2  0  0  0  0
  3  9  1  0  0  0  0
  4  5  1  0  0  0  0
  4  6  2  0  0  0  0
  5 13  1  0  0  0  0
  6  8  1  0  0  0  0
  6  9  1  0  0  0  0
  7  8  2  0  0  0  0
  7 14  1  0  0  0  0
 10 13  1  0  0  0  0
 11 13  2  0  0  0  0
 12 13  2  0  0  0  0
  1 15  1  0  0  0  0
  2 16  1  0  0  0  0
  3 17  1  0  0  0  0
  9 18  1  0  0  0  0
 10 19  1  0  0  0  0
 10 20  1  0  0  0  0
M  END
> <Mol Weight>
231,65

> <Formula>
C7H6ClN3O2S

> <ID>
EN300-27733780

> <name>
Sulfonamides

> <LogP>
0,65

> <ROCS_ShapeQuery>
x0310_0A_x0719_0A_x1080_0A_x0739_0A_x0929_0A_x0526_0A_x0911_0A

> <ROCS_TanimotoCombo>
0.316 

> <ROCS_ShapeTanimoto>
0.148 

> <ROCS_ColorTanimoto>
0.168 

> <ROCS_RefTversky>
0.145 

> <ROCS_RefColorTversky>
0.184 

> <ROCS_RefTverskyCombo>
0.330 

> <ROCS_FitTversky>
1.161 

> <ROCS_FitColorTversky>
0.654 

> <ROCS_FitTverskyCombo>
1.816 

> <ROCS_ColorScore>
-5.358

> <ROCS_Overlap>
1165.233

> <ROCS_Rank>
224                 

$$$$
untitled-dbase-417_15
  -OEChem-02092407103D

 24 24  0     1  0  0  0  0  0999 V2000
    8.6460   10.3168   22.9146 C   0  0  0  0  0  0  0  0  0  0  0  0
    8.5733   10.3756   24.4348 C   0  0  0  0  0  0  0  0  0  0  0  0
    9.4688   11.4828   22.3777 C   0  0  0  0  0  0  0  0  0  0  0  0
    8.1091   11.7472   24.9020 C   0  0  0  0  0  0  0  0  0  0  0  0
    9.0104   12.8273   22.9492 C   0  0  1  0  0  0  0  0  0  0  0  0
    7.7027   13.3274   22.3392 C   0  0  0  0  0  0  0  0  0  0  0  0
    6.1505   15.4227   21.8377 N   0  0  0  0  0  0  0  0  0  0  0  0
    6.4538   14.5932   24.2536 O   0  0  0  0  0  0  0  0  0  0  0  0
    8.3784   15.7391   23.0839 O   0  0  0  0  0  0  0  0  0  0  0  0
    8.9385   12.7826   24.3781 O   0  0  0  0  0  0  0  0  0  0  0  0
    7.2173   14.8642   23.0459 S   0  0  0  0  0  0  0  0  0  0  0  0
    9.1087    9.3717   22.6071 H   0  0  0  0  0  0  0  0  0  0  0  0
    7.6381   10.3380   22.4874 H   0  0  0  0  0  0  0  0  0  0  0  0
    7.8580    9.6179   24.7804 H   0  0  0  0  0  0  0  0  0  0  0  0
    9.5480   10.1329   24.8728 H   0  0  0  0  0  0  0  0  0  0  0  0
   10.5377   11.3175   22.5933 H   0  0  0  0  0  0  0  0  0  0  0  0
    9.3692   11.4975   21.2779 H   0  0  0  0  0  0  0  0  0  0  0  0
    7.0853   11.9323   24.5538 H   0  0  0  0  0  0  0  0  0  0  0  0
    8.0957   11.8115   25.9990 H   0  0  0  0  0  0  0  0  0  0  0  0
    9.8080   13.6019   22.6919 H   0  0  0  0  0  0  0  0  0  0  0  0
    6.8995   12.6134   22.5213 H   0  0  0  0  0  0  0  0  0  0  0  0
    7.8161   13.4798   21.2661 H   0  0  0  0  0  0  0  0  0  0  0  0
    6.5574   15.7242   20.9438 H   0  0  0  0  0  0  0  0  0  0  0  0
    5.2466   14.9439   21.7406 H   0  0  0  0  0  0  0  0  0  0  0  0
  1  2  1  0  0  0  0
  1  3  1  0  0  0  0
  2  4  1  0  0  0  0
  3  5  1  0  0  0  0
  4 10  1  0  0  0  0
  5  6  1  0  0  0  0
  5 10  1  0  0  0  0
  6 11  1  0  0  0  0
  7 11  1  0  0  0  0
  8 11  2  0  0  0  0
  9 11  2  0  0  0  0
  1 12  1  0  0  0  0
  1 13  1  0  0  0  0
  2 14  1  0  0  0  0
  2 15  1  0  0  0  0
  3 16  1  0  0  0  0
  3 17  1  0  0  0  0
  4 18  1  0  0  0  0
  4 19  1  0  0  0  0
  5 20  1  0  0  0  0
  6 21  1  0  0  0  0
  6 22  1  0  0  0  0
  7 23  1  0  0  0  0
  7 24  1  0  0  0  0
M  END
> <Mol Weight>
179,23

> <Formula>
C6H13NO3S

> <ID>
EN300-62548

> <name>
Sulfonamides

> <LogP>
-0,52

> <ROCS_ShapeQuery>
x0310_0A_x0719_0A_x1080_0A_x0739_0A_x0929_0A_x0526_0A_x0911_0A

> <ROCS_TanimotoCombo>
0.316 

> <ROCS_ShapeTanimoto>
0.160 

> <ROCS_ColorTanimoto>
0.156 

> <ROCS_RefTversky>
0.153 

> <ROCS_RefColorTversky>
0.164 

> <ROCS_RefTverskyCombo>
0.317 

> <ROCS_FitTversky>
1.466 

> <ROCS_FitColorTversky>
0.759 

> <ROCS_FitTverskyCombo>
2.224 

> <ROCS_ColorScore>
-4.754

> <ROCS_Overlap>
1221.589

> <ROCS_Rank>
225                 

$$$$
untitled-dbase-1239_6
  -OEChem-02092407103D

 29 29  0     1  0  0  0  0  0999 V2000
    9.6395   10.4838   24.3028 C   0  0  0  0  0  0  0  0  0  0  0  0
    8.3174   10.6552   24.7129 C   0  0  0  0  0  0  0  0  0  0  0  0
   10.1181   11.1700   23.1866 C   0  0  0  0  0  0  0  0  0  0  0  0
    7.4738   11.5128   24.0069 C   0  0  0  0  0  0  0  0  0  0  0  0
    9.2745   12.0276   22.4806 C   0  0  0  0  0  0  0  0  0  0  0  0
    7.9523   12.1991   22.8907 C   0  0  0  0  0  0  0  0  0  0  0  0
    5.7527   11.3848   20.0720 C   0  0  0  0  0  0  0  0  0  0  0  0
    7.1473   11.9546   19.8638 C   0  0  0  0  0  0  0  0  0  0  0  0
    7.3323   13.2695   20.6258 C   0  0  0  0  0  0  0  0  0  0  0  0
    7.0390   13.1280   22.1254 C   0  0  2  0  0  0  0  0  0  0  0  0
    5.7010   15.4093   22.3626 N   0  0  0  0  0  0  0  0  0  0  0  0
    7.0261   14.4794   24.3616 O   0  0  0  0  0  0  0  0  0  0  0  0
    8.2733   15.4176   22.3742 O   0  0  0  0  0  0  0  0  0  0  0  0
    7.1423   14.7051   22.9346 S   0  0  0  0  0  0  0  0  0  0  0  0
   10.2966    9.8170   24.8534 H   0  0  0  0  0  0  0  0  0  0  0  0
    7.9449   10.1218   25.5826 H   0  0  0  0  0  0  0  0  0  0  0  0
   11.1477   11.0376   22.8677 H   0  0  0  0  0  0  0  0  0  0  0  0
    6.4451   11.6401   24.3336 H   0  0  0  0  0  0  0  0  0  0  0  0
    9.6560   12.5581   21.6121 H   0  0  0  0  0  0  0  0  0  0  0  0
    5.5522   11.2162   21.1349 H   0  0  0  0  0  0  0  0  0  0  0  0
    5.6532   10.4270   19.5518 H   0  0  0  0  0  0  0  0  0  0  0  0
    4.9892   12.0649   19.6813 H   0  0  0  0  0  0  0  0  0  0  0  0
    7.3086   12.1084   18.7913 H   0  0  0  0  0  0  0  0  0  0  0  0
    7.8884   11.2214   20.2025 H   0  0  0  0  0  0  0  0  0  0  0  0
    8.3447   13.6564   20.4576 H   0  0  0  0  0  0  0  0  0  0  0  0
    6.6516   14.0204   20.2030 H   0  0  0  0  0  0  0  0  0  0  0  0
    5.9945   12.8156   22.2490 H   0  0  0  0  0  0  0  0  0  0  0  0
    4.9284   15.5303   23.0290 H   0  0  0  0  0  0  0  0  0  0  0  0
    5.7778   16.1692   21.6753 H   0  0  0  0  0  0  0  0  0  0  0  0
  1  2  1  0  0  0  0
  1  3  2  0  0  0  0
  2  4  2  0  0  0  0
  3  5  1  0  0  0  0
  4  6  1  0  0  0  0
  5  6  2  0  0  0  0
  6 10  1  0  0  0  0
  7  8  1  0  0  0  0
  8  9  1  0  0  0  0
  9 10  1  0  0  0  0
 10 14  1  0  0  0  0
 11 14  1  0  0  0  0
 12 14  2  0  0  0  0
 13 14  2  0  0  0  0
  1 15  1  0  0  0  0
  2 16  1  0  0  0  0
  3 17  1  0  0  0  0
  4 18  1  0  0  0  0
  5 19  1  0  0  0  0
  7 20  1  0  0  0  0
  7 21  1  0  0  0  0
  7 22  1  0  0  0  0
  8 23  1  0  0  0  0
  8 24  1  0  0  0  0
  9 25  1  0  0  0  0
  9 26  1  0  0  0  0
 10 27  1  0  0  0  0
 11 28  1  0  0  0  0
 11 29  1  0  0  0  0
M  END
> <Mol Weight>
213,30

> <Formula>
C10H15NO2S

> <ID>
EN300-679558

> <name>
Sulfonamides

> <LogP>
1,88

> <ROCS_ShapeQuery>
x0310_0A_x0719_0A_x1080_0A_x0739_0A_x0929_0A_x0526_0A_x0911_0A

> <ROCS_TanimotoCombo>
0.316 

> <ROCS_ShapeTanimoto>
0.157 

> <ROCS_ColorTanimoto>
0.159 

> <ROCS_RefTversky>
0.152 

> <ROCS_RefColorTversky>
0.167 

> <ROCS_RefTverskyCombo>
0.319 

> <ROCS_FitTversky>
1.269 

> <ROCS_FitColorTversky>
0.771 

> <ROCS_FitTverskyCombo>
2.040 

> <ROCS_ColorScore>
-4.833

> <ROCS_Overlap>
1219.759

> <ROCS_Rank>
226                 

$$$$
untitled-dbase-2263_11
  -OEChem-02092407103D

 25 26  0     0  0  0  0  0  0999 V2000
    5.8326   14.5029   21.1218 C   0  0  0  0  0  0  0  0  0  0  0  0
    6.7755   13.9014   21.9552 C   0  0  0  0  0  0  0  0  0  0  0  0
    5.0088   13.7151   20.3179 C   0  0  0  0  0  0  0  0  0  0  0  0
    6.0710   11.7240   21.1807 C   0  0  0  0  0  0  0  0  0  0  0  0
    6.8948   12.5120   21.9847 C   0  0  0  0  0  0  0  0  0  0  0  0
    5.1280   12.3256   20.3473 C   0  0  0  0  0  0  0  0  0  0  0  0
    9.2823   11.4507   24.5815 C   0  0  0  0  0  0  0  0  0  0  0  0
    9.4047   10.4470   23.7185 C   0  0  0  0  0  0  0  0  0  0  0  0
    8.3037   12.4071   24.0440 C   0  0  0  0  0  0  0  0  0  0  0  0
    8.4974   10.6943   22.5885 C   0  0  0  0  0  0  0  0  0  0  0  0
    7.8629   11.8941   22.8407 N   0  0  0  0  0  0  0  0  0  0  0  0
    4.6419    9.7735   19.7514 N   0  0  0  0  0  0  0  0  0  0  0  0
    8.0429   13.4456   24.6291 O   0  0  0  0  0  0  0  0  0  0  0  0
    8.3867    9.8925   21.6753 O   0  0  0  0  0  0  0  0  0  0  0  0
    2.7236   11.4949   19.7978 O   0  0  0  0  0  0  0  0  0  0  0  0
    4.4287   11.5987   17.9458 O   0  0  0  0  0  0  0  0  0  0  0  0
    4.0974   11.3400   19.3402 S   0  0  0  0  0  0  0  0  0  0  0  0
    5.7391   15.5847   21.0991 H   0  0  0  0  0  0  0  0  0  0  0  0
    7.4115   14.5256   22.5778 H   0  0  0  0  0  0  0  0  0  0  0  0
    4.2778   14.1939   19.6719 H   0  0  0  0  0  0  0  0  0  0  0  0
    6.1633   10.6404   21.2032 H   0  0  0  0  0  0  0  0  0  0  0  0
    9.8038   11.5734   25.5158 H   0  0  0  0  0  0  0  0  0  0  0  0
   10.0425    9.5840   23.8096 H   0  0  0  0  0  0  0  0  0  0  0  0
    4.0226    9.1812   20.3180 H   0  0  0  0  0  0  0  0  0  0  0  0
    5.1883    9.2544   19.0533 H   0  0  0  0  0  0  0  0  0  0  0  0
  1  2  1  0  0  0  0
  1  3  2  0  0  0  0
  2  5  2  0  0  0  0
  3  6  1  0  0  0  0
  4  5  1  0  0  0  0
  4  6  2  0  0  0  0
  5 11  1  0  0  0  0
  6 17  1  0  0  0  0
  7  8  2  0  0  0  0
  7  9  1  0  0  0  0
  8 10  1  0  0  0  0
  9 11  1  0  0  0  0
  9 13  2  0  0  0  0
 10 11  1  0  0  0  0
 10 14  2  0  0  0  0
 12 17  1  0  0  0  0
 15 17  2  0  0  0  0
 16 17  2  0  0  0  0
  1 18  1  0  0  0  0
  2 19  1  0  0  0  0
  3 20  1  0  0  0  0
  4 21  1  0  0  0  0
  7 22  1  0  0  0  0
  8 23  1  0  0  0  0
 12 24  1  0  0  0  0
 12 25  1  0  0  0  0
M  END
> <Mol Weight>
252,24

> <Formula>
C10H8N2O4S

> <ID>
EN300-71961

> <name>
Sulfonamides

> <LogP>
-0,15

> <ROCS_ShapeQuery>
x0310_0A_x0719_0A_x1080_0A_x0739_0A_x0929_0A_x0526_0A_x0911_0A

> <ROCS_TanimotoCombo>
0.316 

> <ROCS_ShapeTanimoto>
0.190 

> <ROCS_ColorTanimoto>
0.126 

> <ROCS_RefTversky>
0.182 

> <ROCS_RefColorTversky>
0.144 

> <ROCS_RefTverskyCombo>
0.326 

> <ROCS_FitTversky>
1.281 

> <ROCS_FitColorTversky>
0.512 

> <ROCS_FitTverskyCombo>
1.793 

> <ROCS_ColorScore>
-4.182

> <ROCS_Overlap>
1460.053

> <ROCS_Rank>
227                 

$$$$
untitled-dbase-481_6
  -OEChem-02092407103D

 23 23  0     1  0  0  0  0  0999 V2000
    9.6303   10.4735   24.2916 C   0  0  0  0  0  0  0  0  0  0  0  0
   10.1607   11.2913   23.2938 C   0  0  0  0  0  0  0  0  0  0  0  0
    8.2681   10.5277   24.5870 C   0  0  0  0  0  0  0  0  0  0  0  0
    9.3289   12.1634   22.5915 C   0  0  0  0  0  0  0  0  0  0  0  0
    7.4364   11.3998   23.8847 C   0  0  0  0  0  0  0  0  0  0  0  0
    7.9667   12.2177   22.8869 C   0  0  0  0  0  0  0  0  0  0  0  0
    5.6256   12.6892   21.9780 C   0  0  0  0  0  0  0  0  0  0  0  0
    7.0768   13.1501   22.1365 C   0  0  1  0  0  0  0  0  0  0  0  0
    5.7048   15.4125   22.3607 N   0  0  0  0  0  0  0  0  0  0  0  0
    6.9968   14.4838   24.3819 O   0  0  0  0  0  0  0  0  0  0  0  0
    8.2759   15.4531   22.4300 O   0  0  0  0  0  0  0  0  0  0  0  0
    7.1420   14.7225   22.9598 S   0  0  0  0  0  0  0  0  0  0  0  0
   10.2779    9.7936   24.8374 H   0  0  0  0  0  0  0  0  0  0  0  0
   11.2211   11.2484   23.0629 H   0  0  0  0  0  0  0  0  0  0  0  0
    7.8547    9.8904   25.3630 H   0  0  0  0  0  0  0  0  0  0  0  0
    9.7509   12.7970   21.8158 H   0  0  0  0  0  0  0  0  0  0  0  0
    6.3763   11.4354   24.1217 H   0  0  0  0  0  0  0  0  0  0  0  0
    5.1768   12.4826   22.9555 H   0  0  0  0  0  0  0  0  0  0  0  0
    5.0087   13.4398   21.4728 H   0  0  0  0  0  0  0  0  0  0  0  0
    5.5677   11.7740   21.3785 H   0  0  0  0  0  0  0  0  0  0  0  0
    7.4725   13.3417   21.1250 H   0  0  0  0  0  0  0  0  0  0  0  0
    4.9160   15.5185   23.0104 H   0  0  0  0  0  0  0  0  0  0  0  0
    5.7871   16.1784   21.6809 H   0  0  0  0  0  0  0  0  0  0  0  0
  1  2  1  0  0  0  0
  1  3  2  0  0  0  0
  2  4  2  0  0  0  0
  3  5  1  0  0  0  0
  4  6  1  0  0  0  0
  5  6  2  0  0  0  0
  6  8  1  0  0  0  0
  7  8  1  6  0  0  0
  8 12  1  0  0  0  0
  9 12  1  0  0  0  0
 10 12  2  0  0  0  0
 11 12  2  0  0  0  0
  1 13  1  0  0  0  0
  2 14  1  0  0  0  0
  3 15  1  0  0  0  0
  4 16  1  0  0  0  0
  5 17  1  0  0  0  0
  7 18  1  0  0  0  0
  7 19  1  0  0  0  0
  7 20  1  0  0  0  0
  8 21  1  0  0  0  0
  9 22  1  0  0  0  0
  9 23  1  0  0  0  0
M  END
> <Mol Weight>
185,24

> <Formula>
C8H11NO2S

> <ID>
EN300-27707068

> <name>
Sulfonamides

> <LogP>
0,91

> <ROCS_ShapeQuery>
x0310_0A_x0719_0A_x1080_0A_x0739_0A_x0929_0A_x0526_0A_x0911_0A

> <ROCS_TanimotoCombo>
0.316 

> <ROCS_ShapeTanimoto>
0.152 

> <ROCS_ColorTanimoto>
0.164 

> <ROCS_RefTversky>
0.147 

> <ROCS_RefColorTversky>
0.167 

> <ROCS_RefTverskyCombo>
0.313 

> <ROCS_FitTversky>
1.321 

> <ROCS_FitColorTversky>
0.907 

> <ROCS_FitTverskyCombo>
2.229 

> <ROCS_ColorScore>
-4.825

> <ROCS_Overlap>
1174.792

> <ROCS_Rank>
228                 

$$$$
untitled-dbase-472_6
  -OEChem-02092407103D

 23 23  0     1  0  0  0  0  0999 V2000
    9.6303   10.4735   24.2916 C   0  0  0  0  0  0  0  0  0  0  0  0
   10.1607   11.2913   23.2938 C   0  0  0  0  0  0  0  0  0  0  0  0
    8.2681   10.5277   24.5870 C   0  0  0  0  0  0  0  0  0  0  0  0
    9.3289   12.1634   22.5915 C   0  0  0  0  0  0  0  0  0  0  0  0
    7.4364   11.3998   23.8847 C   0  0  0  0  0  0  0  0  0  0  0  0
    7.9667   12.2177   22.8869 C   0  0  0  0  0  0  0  0  0  0  0  0
    5.6256   12.6892   21.9780 C   0  0  0  0  0  0  0  0  0  0  0  0
    7.0768   13.1501   22.1365 C   0  0  1  0  0  0  0  0  0  0  0  0
    5.7048   15.4125   22.3607 N   0  0  0  0  0  0  0  0  0  0  0  0
    6.9968   14.4838   24.3819 O   0  0  0  0  0  0  0  0  0  0  0  0
    8.2759   15.4531   22.4300 O   0  0  0  0  0  0  0  0  0  0  0  0
    7.1420   14.7225   22.9598 S   0  0  0  0  0  0  0  0  0  0  0  0
   10.2779    9.7936   24.8374 H   0  0  0  0  0  0  0  0  0  0  0  0
   11.2211   11.2484   23.0629 H   0  0  0  0  0  0  0  0  0  0  0  0
    7.8547    9.8904   25.3630 H   0  0  0  0  0  0  0  0  0  0  0  0
    9.7509   12.7970   21.8158 H   0  0  0  0  0  0  0  0  0  0  0  0
    6.3763   11.4354   24.1217 H   0  0  0  0  0  0  0  0  0  0  0  0
    5.1768   12.4826   22.9555 H   0  0  0  0  0  0  0  0  0  0  0  0
    5.0087   13.4398   21.4728 H   0  0  0  0  0  0  0  0  0  0  0  0
    5.5677   11.7740   21.3785 H   0  0  0  0  0  0  0  0  0  0  0  0
    7.4725   13.3417   21.1250 H   0  0  0  0  0  0  0  0  0  0  0  0
    4.9160   15.5185   23.0104 H   0  0  0  0  0  0  0  0  0  0  0  0
    5.7871   16.1784   21.6809 H   0  0  0  0  0  0  0  0  0  0  0  0
  1  2  1  0  0  0  0
  1  3  2  0  0  0  0
  2  4  2  0  0  0  0
  3  5  1  0  0  0  0
  4  6  1  0  0  0  0
  5  6  2  0  0  0  0
  6  8  1  0  0  0  0
  7  8  1  0  0  0  0
  8 12  1  0  0  0  0
  9 12  1  0  0  0  0
 10 12  2  0  0  0  0
 11 12  2  0  0  0  0
  1 13  1  0  0  0  0
  2 14  1  0  0  0  0
  3 15  1  0  0  0  0
  4 16  1  0  0  0  0
  5 17  1  0  0  0  0
  7 18  1  0  0  0  0
  7 19  1  0  0  0  0
  7 20  1  0  0  0  0
  8 21  1  0  0  0  0
  9 22  1  0  0  0  0
  9 23  1  0  0  0  0
M  END
> <Mol Weight>
185,24

> <Formula>
C8H11NO2S

> <ID>
EN300-81034

> <name>
Sulfonamides

> <LogP>
0,91

> <ROCS_ShapeQuery>
x0310_0A_x0719_0A_x1080_0A_x0739_0A_x0929_0A_x0526_0A_x0911_0A

> <ROCS_TanimotoCombo>
0.316 

> <ROCS_ShapeTanimoto>
0.152 

> <ROCS_ColorTanimoto>
0.164 

> <ROCS_RefTversky>
0.147 

> <ROCS_RefColorTversky>
0.167 

> <ROCS_RefTverskyCombo>
0.313 

> <ROCS_FitTversky>
1.321 

> <ROCS_FitColorTversky>
0.907 

> <ROCS_FitTverskyCombo>
2.229 

> <ROCS_ColorScore>
-4.825

> <ROCS_Overlap>
1174.792

> <ROCS_Rank>
229                 

$$$$
untitled-dbase-2296_65
  -OEChem-02092407103D

 23 23  0     0  0  0  0  0  0999 V2000
    7.4370   11.8588   23.4496 C   0  0  0  0  0  0  0  0  0  0  0  0
    7.5991   10.9428   24.4889 C   0  0  0  0  0  0  0  0  0  0  0  0
    9.7267   11.4939   22.7707 C   0  0  0  0  0  0  0  0  0  0  0  0
    8.5008   12.1344   22.5904 C   0  0  0  0  0  0  0  0  0  0  0  0
    8.8251   10.3024   24.6692 C   0  0  0  0  0  0  0  0  0  0  0  0
    9.8889   10.5779   23.8101 C   0  0  0  0  0  0  0  0  0  0  0  0
    8.3260   13.1142   21.4798 C   0  0  0  0  0  0  0  0  0  0  0  0
    8.6707   14.5537   21.8713 C   0  0  0  0  0  0  0  0  0  0  0  0
    6.1443   14.9924   22.5614 N   0  0  0  0  0  0  0  0  0  0  0  0
    7.8412   14.1963   24.3231 O   0  0  0  0  0  0  0  0  0  0  0  0
    8.0029   16.5504   23.4189 O   0  0  0  0  0  0  0  0  0  0  0  0
    7.7062   15.1413   23.2283 S   0  0  0  0  0  0  0  0  0  0  0  0
    8.9631    9.1784   25.9756 Cl  0  0  0  0  0  0  0  0  0  0  0  0
   11.4317    9.8169   23.9819 Cl  0  0  0  0  0  0  0  0  0  0  0  0
    6.4784   12.3539   23.3170 H   0  0  0  0  0  0  0  0  0  0  0  0
    6.7592   10.7404   25.1491 H   0  0  0  0  0  0  0  0  0  0  0  0
   10.5510   11.7144   22.0962 H   0  0  0  0  0  0  0  0  0  0  0  0
    7.2769   13.0969   21.1371 H   0  0  0  0  0  0  0  0  0  0  0  0
    8.9241   12.8271   20.5975 H   0  0  0  0  0  0  0  0  0  0  0  0
    9.7146   14.6237   22.1933 H   0  0  0  0  0  0  0  0  0  0  0  0
    8.5185   15.2518   21.0425 H   0  0  0  0  0  0  0  0  0  0  0  0
    5.5347   14.2528   22.9315 H   0  0  0  0  0  0  0  0  0  0  0  0
    5.6450   15.8560   22.3155 H   0  0  0  0  0  0  0  0  0  0  0  0
  1  2  2  0  0  0  0
  1  4  1  0  0  0  0
  2  5  1  0  0  0  0
  3  4  2  0  0  0  0
  3  6  1  0  0  0  0
  4  7  1  0  0  0  0
  5  6  2  0  0  0  0
  5 13  1  0  0  0  0
  6 14  1  0  0  0  0
  7  8  1  0  0  0  0
  8 12  1  0  0  0  0
  9 12  1  0  0  0  0
 10 12  2  0  0  0  0
 11 12  2  0  0  0  0
  1 15  1  0  0  0  0
  2 16  1  0  0  0  0
  3 17  1  0  0  0  0
  7 18  1  0  0  0  0
  7 19  1  0  0  0  0
  8 20  1  0  0  0  0
  8 21  1  0  0  0  0
  9 22  1  0  0  0  0
  9 23  1  0  0  0  0
M  END
> <Mol Weight>
254,13

> <Formula>
C8H9Cl2NO2S

> <ID>
EN300-283808

> <name>
Sulfonamides

> <LogP>
1,84

> <ROCS_ShapeQuery>
x0310_0A_x0719_0A_x1080_0A_x0739_0A_x0929_0A_x0526_0A_x0911_0A

> <ROCS_TanimotoCombo>
0.316 

> <ROCS_ShapeTanimoto>
0.162 

> <ROCS_ColorTanimoto>
0.154 

> <ROCS_RefTversky>
0.156 

> <ROCS_RefColorTversky>
0.158 

> <ROCS_RefTverskyCombo>
0.314 

> <ROCS_FitTversky>
1.314 

> <ROCS_FitColorTversky>
0.860 

> <ROCS_FitTverskyCombo>
2.175 

> <ROCS_ColorScore>
-4.573

> <ROCS_Overlap>
1248.869

> <ROCS_Rank>
230                 

$$$$
untitled-dbase-2635_1139
  -OEChem-02092407103D

 40 40  0     1  0  0  0  0  0999 V2000
    6.0983   13.4815   21.8418 C   0  0  0  0  0  0  0  0  0  0  0  0
    3.6805   12.2747   18.0312 C   0  0  0  0  0  0  0  0  0  0  0  0
    4.7805   12.9456   18.8449 C   0  0  0  0  0  0  0  0  0  0  0  0
    3.6715   11.1948   20.1610 C   0  0  0  0  0  0  0  0  0  0  0  0
    2.7220   11.7098   19.0764 C   0  0  1  0  0  0  0  0  0  0  0  0
    4.8856   12.1326   20.1393 C   0  0  2  0  0  0  0  0  0  0  0  0
    8.1022   14.8361   23.3581 C   0  0  0  0  0  0  0  0  0  0  0  0
    6.2949   15.2140   25.0611 C   0  0  0  0  0  0  0  0  0  0  0  0
    7.0027   12.8736   24.4871 C   0  0  0  0  0  0  0  0  0  0  0  0
    1.7495   12.7615   19.6059 C   0  0  0  0  0  0  0  0  0  0  0  0
    6.8051   14.2925   23.9554 C   0  0  0  0  0  0  0  0  0  0  0  0
   -0.5624   11.6882   18.8615 N   0  0  0  0  0  0  0  0  0  0  0  0
    4.9303   12.9891   21.2964 N   0  0  0  0  0  0  0  0  0  0  0  0
    7.2308   13.2619   21.4248 O   0  0  0  0  0  0  0  0  0  0  0  0
   -0.2732   14.2442   18.8726 O   0  0  0  0  0  0  0  0  0  0  0  0
    0.9281   12.8668   17.1276 O   0  0  0  0  0  0  0  0  0  0  0  0
    5.8088   14.2594   22.9273 O   0  0  0  0  0  0  0  0  0  0  0  0
    0.4216   13.0284   18.4809 S   0  0  0  0  0  0  0  0  0  0  0  0
    3.1764   13.0164   17.3878 H   0  0  0  0  0  0  0  0  0  0  0  0
    4.0814   11.4895   17.3705 H   0  0  0  0  0  0  0  0  0  0  0  0
    5.7359   12.8893   18.2972 H   0  0  0  0  0  0  0  0  0  0  0  0
    4.5782   14.0139   19.0187 H   0  0  0  0  0  0  0  0  0  0  0  0
    3.1936   11.1755   21.1479 H   0  0  0  0  0  0  0  0  0  0  0  0
    3.9756   10.1648   19.9407 H   0  0  0  0  0  0  0  0  0  0  0  0
    2.1712   10.8838   18.6568 H   0  0  0  0  0  0  0  0  0  0  0  0
    5.8286   11.5550   20.1553 H   0  0  0  0  0  0  0  0  0  0  0  0
    8.4717   14.1774   22.5641 H   0  0  0  0  0  0  0  0  0  0  0  0
    7.9652   15.8395   22.9419 H   0  0  0  0  0  0  0  0  0  0  0  0
    8.8930   14.8807   24.1157 H   0  0  0  0  0  0  0  0  0  0  0  0
    5.3643   14.8278   25.4925 H   0  0  0  0  0  0  0  0  0  0  0  0
    6.0615   16.2084   24.6637 H   0  0  0  0  0  0  0  0  0  0  0  0
    7.0296   15.3257   25.8651 H   0  0  0  0  0  0  0  0  0  0  0  0
    6.0725   12.4834   24.9155 H   0  0  0  0  0  0  0  0  0  0  0  0
    7.3335   12.1899   23.6985 H   0  0  0  0  0  0  0  0  0  0  0  0
    7.7445   12.8596   25.2938 H   0  0  0  0  0  0  0  0  0  0  0  0
    2.2564   13.7173   19.7463 H   0  0  0  0  0  0  0  0  0  0  0  0
    1.3158   12.4409   20.5540 H   0  0  0  0  0  0  0  0  0  0  0  0
   -1.4431   11.8684   19.3591 H   0  0  0  0  0  0  0  0  0  0  0  0
   -0.6247   10.9302   18.1707 H   0  0  0  0  0  0  0  0  0  0  0  0
    4.0510   13.2455   21.7365 H   0  0  0  0  0  0  0  0  0  0  0  0
  1 13  1  0  0  0  0
  1 14  2  0  0  0  0
  1 17  1  0  0  0  0
  2  3  1  0  0  0  0
  2  5  1  0  0  0  0
  3  6  1  0  0  0  0
  4  5  1  0  0  0  0
  4  6  1  0  0  0  0
  5 10  1  6  0  0  0
  6 13  1  6  0  0  0
  7 11  1  0  0  0  0
  8 11  1  0  0  0  0
  9 11  1  0  0  0  0
 10 18  1  0  0  0  0
 11 17  1  0  0  0  0
 12 18  1  0  0  0  0
 15 18  2  0  0  0  0
 16 18  2  0  0  0  0
  2 19  1  0  0  0  0
  2 20  1  0  0  0  0
  3 21  1  0  0  0  0
  3 22  1  0  0  0  0
  4 23  1  0  0  0  0
  4 24  1  0  0  0  0
  5 25  1  0  0  0  0
  6 26  1  0  0  0  0
  7 27  1  0  0  0  0
  7 28  1  0  0  0  0
  7 29  1  0  0  0  0
  8 30  1  0  0  0  0
  8 31  1  0  0  0  0
  8 32  1  0  0  0  0
  9 33  1  0  0  0  0
  9 34  1  0  0  0  0
  9 35  1  0  0  0  0
 10 36  1  0  0  0  0
 10 37  1  0  0  0  0
 12 38  1  0  0  0  0
 12 39  1  0  0  0  0
 13 40  1  0  0  0  0
M  END
> <Mol Weight>
278,37

> <Formula>
C11H22N2O4S

> <ID>
EN300-746189

> <name>
Sulfonamides

> <LogP>
0,29

> <ROCS_ShapeQuery>
x0310_0A_x0719_0A_x1080_0A_x0739_0A_x0929_0A_x0526_0A_x0911_0A

> <ROCS_TanimotoCombo>
0.316 

> <ROCS_ShapeTanimoto>
0.216 

> <ROCS_ColorTanimoto>
0.100 

> <ROCS_RefTversky>
0.202 

> <ROCS_RefColorTversky>
0.117 

> <ROCS_RefTverskyCombo>
0.319 

> <ROCS_FitTversky>
1.439 

> <ROCS_FitColorTversky>
0.416 

> <ROCS_FitTverskyCombo>
1.855 

> <ROCS_ColorScore>
-3.395

> <ROCS_Overlap>
1622.087

> <ROCS_Rank>
231                 

$$$$
untitled-dbase-2721_873
  -OEChem-02092407103D

 40 40  0     0  0  0  0  0  0999 V2000
    3.5187   11.9987   20.6741 C   0  0  0  0  0  0  0  0  0  0  0  0
    2.3424   12.4656   20.0877 C   0  0  0  0  0  0  0  0  0  0  0  0
    3.0154   11.5072   17.9745 C   0  0  0  0  0  0  0  0  0  0  0  0
    4.1918   11.0404   18.5609 C   0  0  0  0  0  0  0  0  0  0  0  0
    4.4435   11.2862   19.9107 C   0  0  0  0  0  0  0  0  0  0  0  0
    2.0907   12.2198   18.7380 C   0  0  0  0  0  0  0  0  0  0  0  0
    7.3555   14.1689   23.9170 C   0  0  0  0  0  0  0  0  0  0  0  0
    5.7380   11.1223   16.5719 C   0  0  0  0  0  0  0  0  0  0  0  0
    4.5801    8.9673   17.1804 C   0  0  0  0  0  0  0  0  0  0  0  0
    7.6106   14.6097   22.4914 C   0  0  0  0  0  0  0  0  0  0  0  0
    6.7151   11.7101   20.4726 C   0  0  0  0  0  0  0  0  0  0  0  0
    6.6781   12.6041   21.6971 C   0  0  0  0  0  0  0  0  0  0  0  0
    5.1706   10.2794   17.7288 C   0  0  0  0  0  0  0  0  0  0  0  0
   -0.4273   11.4795   18.2726 N   0  0  0  0  0  0  0  0  0  0  0  0
    0.1408   13.9430   18.7766 O   0  0  0  0  0  0  0  0  0  0  0  0
    0.8383   12.9432   16.5717 O   0  0  0  0  0  0  0  0  0  0  0  0
    5.5875   10.8375   20.4993 O   0  0  0  0  0  0  0  0  0  0  0  0
    7.8137   13.4605   21.6810 O   0  0  0  0  0  0  0  0  0  0  0  0
    0.6180   12.8043   18.0045 S   0  0  0  0  0  0  0  0  0  0  0  0
    3.7087   12.1936   21.7261 H   0  0  0  0  0  0  0  0  0  0  0  0
    1.6288   13.0196   20.6917 H   0  0  0  0  0  0  0  0  0  0  0  0
    2.8202   11.3150   16.9221 H   0  0  0  0  0  0  0  0  0  0  0  0
    6.4644   13.5378   23.9767 H   0  0  0  0  0  0  0  0  0  0  0  0
    8.2119   13.6092   24.3071 H   0  0  0  0  0  0  0  0  0  0  0  0
    7.2181   15.0368   24.5704 H   0  0  0  0  0  0  0  0  0  0  0  0
    4.9470   11.4633   15.8951 H   0  0  0  0  0  0  0  0  0  0  0  0
    6.4600   10.5512   15.9781 H   0  0  0  0  0  0  0  0  0  0  0  0
    6.2506   12.0096   16.9601 H   0  0  0  0  0  0  0  0  0  0  0  0
    3.7071    9.1737   16.5511 H   0  0  0  0  0  0  0  0  0  0  0  0
    4.2594    8.3040   17.9911 H   0  0  0  0  0  0  0  0  0  0  0  0
    5.3085    8.4200   16.5721 H   0  0  0  0  0  0  0  0  0  0  0  0
    8.5031   15.2404   22.4386 H   0  0  0  0  0  0  0  0  0  0  0  0
    6.7537   15.1680   22.1029 H   0  0  0  0  0  0  0  0  0  0  0  0
    7.6209   11.0962   20.4597 H   0  0  0  0  0  0  0  0  0  0  0  0
    6.6629   12.3096   19.5592 H   0  0  0  0  0  0  0  0  0  0  0  0
    6.7095   12.0136   22.6181 H   0  0  0  0  0  0  0  0  0  0  0  0
    5.7789   13.2271   21.6892 H   0  0  0  0  0  0  0  0  0  0  0  0
    6.0394    9.9871   18.3479 H   0  0  0  0  0  0  0  0  0  0  0  0
   -1.1739   11.5882   18.9699 H   0  0  0  0  0  0  0  0  0  0  0  0
   -0.6949   10.9054   17.4639 H   0  0  0  0  0  0  0  0  0  0  0  0
  1  2  2  0  0  0  0
  1  5  1  0  0  0  0
  2  6  1  0  0  0  0
  3  4  1  0  0  0  0
  3  6  2  0  0  0  0
  4  5  2  0  0  0  0
  4 13  1  0  0  0  0
  5 17  1  0  0  0  0
  6 19  1  0  0  0  0
  7 10  1  0  0  0  0
  8 13  1  0  0  0  0
  9 13  1  0  0  0  0
 10 18  1  0  0  0  0
 11 12  1  0  0  0  0
 11 17  1  0  0  0  0
 12 18  1  0  0  0  0
 14 19  1  0  0  0  0
 15 19  2  0  0  0  0
 16 19  2  0  0  0  0
  1 20  1  0  0  0  0
  2 21  1  0  0  0  0
  3 22  1  0  0  0  0
  7 23  1  0  0  0  0
  7 24  1  0  0  0  0
  7 25  1  0  0  0  0
  8 26  1  0  0  0  0
  8 27  1  0  0  0  0
  8 28  1  0  0  0  0
  9 29  1  0  0  0  0
  9 30  1  0  0  0  0
  9 31  1  0  0  0  0
 10 32  1  0  0  0  0
 10 33  1  0  0  0  0
 11 34  1  0  0  0  0
 11 35  1  0  0  0  0
 12 36  1  0  0  0  0
 12 37  1  0  0  0  0
 13 38  1  0  0  0  0
 14 39  1  0  0  0  0
 14 40  1  0  0  0  0
M  END
> <Mol Weight>
287,37

> <Formula>
C13H21NO4S

> <ID>
EN300-1086862

> <name>
Sulfonamides

> <LogP>
1,98

> <ROCS_ShapeQuery>
x0310_0A_x0719_0A_x1080_0A_x0739_0A_x0929_0A_x0526_0A_x0911_0A

> <ROCS_TanimotoCombo>
0.316 

> <ROCS_ShapeTanimoto>
0.197 

> <ROCS_ColorTanimoto>
0.119 

> <ROCS_RefTversky>
0.189 

> <ROCS_RefColorTversky>
0.136 

> <ROCS_RefTverskyCombo>
0.324 

> <ROCS_FitTversky>
1.297 

> <ROCS_FitColorTversky>
0.484 

> <ROCS_FitTverskyCombo>
1.781 

> <ROCS_ColorScore>
-3.954

> <ROCS_Overlap>
1512.452

> <ROCS_Rank>
232                 

$$$$
untitled-dbase-1272_464
  -OEChem-02092407103D

 28 28  0     0  0  0  0  0  0999 V2000
   10.0462   10.9704   23.0897 C   0  0  0  0  0  0  0  0  0  0  0  0
    9.6160   10.4573   24.3133 C   0  0  0  0  0  0  0  0  0  0  0  0
    9.2289   11.8459   22.3745 C   0  0  0  0  0  0  0  0  0  0  0  0
    7.5513   11.6948   24.1065 C   0  0  0  0  0  0  0  0  0  0  0  0
    8.3686   10.8194   24.8217 C   0  0  0  0  0  0  0  0  0  0  0  0
    7.9815   12.2080   22.8829 C   0  0  0  0  0  0  0  0  0  0  0  0
    5.0529   16.5010   23.0924 C   0  0  0  0  0  0  0  0  0  0  0  0
    7.9100   10.2714   26.1307 C   0  0  0  0  0  0  0  0  0  0  0  0
    7.1039   13.1474   22.1146 C   0  0  0  0  0  0  0  0  0  0  0  0
    8.7989   10.6171   27.2109 N   0  0  0  0  0  0  0  0  0  0  0  0
    5.7151   15.4314   22.3242 N   0  0  0  0  0  0  0  0  0  0  0  0
    6.9896   14.4793   24.3647 O   0  0  0  0  0  0  0  0  0  0  0  0
    8.2797   15.4546   22.4306 O   0  0  0  0  0  0  0  0  0  0  0  0
    7.1386   14.7205   22.9429 S   0  0  0  0  0  0  0  0  0  0  0  0
   11.0176   10.6884   22.6939 H   0  0  0  0  0  0  0  0  0  0  0  0
   10.2598    9.7761   24.8638 H   0  0  0  0  0  0  0  0  0  0  0  0
    9.5719   12.2402   21.4216 H   0  0  0  0  0  0  0  0  0  0  0  0
    6.5792   11.9783   24.5028 H   0  0  0  0  0  0  0  0  0  0  0  0
    5.1525   16.2959   24.1685 H   0  0  0  0  0  0  0  0  0  0  0  0
    5.5250   17.4666   22.8581 H   0  0  0  0  0  0  0  0  0  0  0  0
    3.9870   16.5393   22.8236 H   0  0  0  0  0  0  0  0  0  0  0  0
    6.9117   10.6503   26.3909 H   0  0  0  0  0  0  0  0  0  0  0  0
    7.8364    9.1755   26.1053 H   0  0  0  0  0  0  0  0  0  0  0  0
    6.0665   12.8032   22.0799 H   0  0  0  0  0  0  0  0  0  0  0  0
    7.4582   13.2939   21.0902 H   0  0  0  0  0  0  0  0  0  0  0  0
    9.1877    9.7826   27.5984 H   0  0  0  0  0  0  0  0  0  0  0  0
    9.5319   11.1985   26.8612 H   0  0  0  0  0  0  0  0  0  0  0  0
    5.6628   15.5561   21.3049 H   0  0  0  0  0  0  0  0  0  0  0  0
  1  2  1  0  0  0  0
  1  3  2  0  0  0  0
  2  5  2  0  0  0  0
  3  6  1  0  0  0  0
  4  5  1  0  0  0  0
  4  6  2  0  0  0  0
  5  8  1  0  0  0  0
  6  9  1  0  0  0  0
  7 11  1  0  0  0  0
  8 10  1  0  0  0  0
  9 14  1  0  0  0  0
 11 14  1  0  0  0  0
 12 14  2  0  0  0  0
 13 14  2  0  0  0  0
  1 15  1  0  0  0  0
  2 16  1  0  0  0  0
  3 17  1  0  0  0  0
  4 18  1  0  0  0  0
  7 19  1  0  0  0  0
  7 20  1  0  0  0  0
  7 21  1  0  0  0  0
  8 22  1  0  0  0  0
  8 23  1  0  0  0  0
  9 24  1  0  0  0  0
  9 25  1  0  0  0  0
 10 26  1  0  0  0  0
 10 27  1  0  0  0  0
 11 28  1  0  0  0  0
M  END
> <Mol Weight>
214,28

> <Formula>
C9H14N2O2S

> <ID>
EN300-59785

> <name>
Sulfonamides

> <LogP>
-0,40

> <ROCS_ShapeQuery>
x0310_0A_x0719_0A_x1080_0A_x0739_0A_x0929_0A_x0526_0A_x0911_0A

> <ROCS_TanimotoCombo>
0.316 

> <ROCS_ShapeTanimoto>
0.162 

> <ROCS_ColorTanimoto>
0.154 

> <ROCS_RefTversky>
0.156 

> <ROCS_RefColorTversky>
0.166 

> <ROCS_RefTverskyCombo>
0.322 

> <ROCS_FitTversky>
1.296 

> <ROCS_FitColorTversky>
0.669 

> <ROCS_FitTverskyCombo>
1.966 

> <ROCS_ColorScore>
-4.831

> <ROCS_Overlap>
1250.233

> <ROCS_Rank>
233                 

$$$$
untitled-dbase-2213_464
  -OEChem-02092407103D

 28 28  0     0  0  0  0  0  0999 V2000
   10.0462   10.9704   23.0897 C   0  0  0  0  0  0  0  0  0  0  0  0
    9.6160   10.4573   24.3133 C   0  0  0  0  0  0  0  0  0  0  0  0
    9.2289   11.8459   22.3745 C   0  0  0  0  0  0  0  0  0  0  0  0
    7.5513   11.6948   24.1065 C   0  0  0  0  0  0  0  0  0  0  0  0
    8.3686   10.8194   24.8217 C   0  0  0  0  0  0  0  0  0  0  0  0
    7.9815   12.2080   22.8829 C   0  0  0  0  0  0  0  0  0  0  0  0
    5.0529   16.5010   23.0924 C   0  0  0  0  0  0  0  0  0  0  0  0
    7.9100   10.2714   26.1307 C   0  0  0  0  0  0  0  0  0  0  0  0
    7.1039   13.1474   22.1146 C   0  0  0  0  0  0  0  0  0  0  0  0
    8.7989   10.6171   27.2109 N   0  0  0  0  0  0  0  0  0  0  0  0
    5.7151   15.4314   22.3242 N   0  0  0  0  0  0  0  0  0  0  0  0
    6.9896   14.4793   24.3647 O   0  0  0  0  0  0  0  0  0  0  0  0
    8.2797   15.4546   22.4306 O   0  0  0  0  0  0  0  0  0  0  0  0
    7.1386   14.7205   22.9429 S   0  0  0  0  0  0  0  0  0  0  0  0
   11.0176   10.6884   22.6939 H   0  0  0  0  0  0  0  0  0  0  0  0
   10.2598    9.7761   24.8638 H   0  0  0  0  0  0  0  0  0  0  0  0
    9.5719   12.2402   21.4216 H   0  0  0  0  0  0  0  0  0  0  0  0
    6.5792   11.9783   24.5028 H   0  0  0  0  0  0  0  0  0  0  0  0
    5.1525   16.2959   24.1685 H   0  0  0  0  0  0  0  0  0  0  0  0
    5.5250   17.4666   22.8581 H   0  0  0  0  0  0  0  0  0  0  0  0
    3.9870   16.5393   22.8236 H   0  0  0  0  0  0  0  0  0  0  0  0
    6.9117   10.6503   26.3909 H   0  0  0  0  0  0  0  0  0  0  0  0
    7.8364    9.1755   26.1053 H   0  0  0  0  0  0  0  0  0  0  0  0
    6.0665   12.8032   22.0799 H   0  0  0  0  0  0  0  0  0  0  0  0
    7.4582   13.2939   21.0902 H   0  0  0  0  0  0  0  0  0  0  0  0
    9.1877    9.7826   27.5984 H   0  0  0  0  0  0  0  0  0  0  0  0
    9.5319   11.1985   26.8612 H   0  0  0  0  0  0  0  0  0  0  0  0
    5.6628   15.5561   21.3049 H   0  0  0  0  0  0  0  0  0  0  0  0
  1  2  1  0  0  0  0
  1  3  2  0  0  0  0
  2  5  2  0  0  0  0
  3  6  1  0  0  0  0
  4  5  1  0  0  0  0
  4  6  2  0  0  0  0
  5  8  1  0  0  0  0
  6  9  1  0  0  0  0
  7 11  1  0  0  0  0
  8 10  1  0  0  0  0
  9 14  1  0  0  0  0
 11 14  1  0  0  0  0
 12 14  2  0  0  0  0
 13 14  2  0  0  0  0
  1 15  1  0  0  0  0
  2 16  1  0  0  0  0
  3 17  1  0  0  0  0
  4 18  1  0  0  0  0
  7 19  1  0  0  0  0
  7 20  1  0  0  0  0
  7 21  1  0  0  0  0
  8 22  1  0  0  0  0
  8 23  1  0  0  0  0
  9 24  1  0  0  0  0
  9 25  1  0  0  0  0
 10 26  1  0  0  0  0
 10 27  1  0  0  0  0
 11 28  1  0  0  0  0
M  END
> <Mol Weight>
250,74

> <Formula>
C9H15ClN2O2S

> <ID>
EN300-60293

> <name>
Sulfonamides

> <LogP>
-0,40

> <ROCS_ShapeQuery>
x0310_0A_x0719_0A_x1080_0A_x0739_0A_x0929_0A_x0526_0A_x0911_0A

> <ROCS_TanimotoCombo>
0.316 

> <ROCS_ShapeTanimoto>
0.162 

> <ROCS_ColorTanimoto>
0.154 

> <ROCS_RefTversky>
0.156 

> <ROCS_RefColorTversky>
0.166 

> <ROCS_RefTverskyCombo>
0.322 

> <ROCS_FitTversky>
1.296 

> <ROCS_FitColorTversky>
0.669 

> <ROCS_FitTverskyCombo>
1.966 

> <ROCS_ColorScore>
-4.831

> <ROCS_Overlap>
1250.233

> <ROCS_Rank>
234                 

$$$$
untitled-dbase-2786_412
  -OEChem-02092407103D

 23 23  0     0  0  0  0  0  0999 V2000
    8.2661   11.3235   24.5385 C   0  0  0  0  0  0  0  0  0  0  0  0
    9.5510   10.7618   23.0100 C   0  0  0  0  0  0  0  0  0  0  0  0
    8.7243   12.0356   23.2542 C   0  0  0  0  0  0  0  0  0  0  0  0
    9.4381   14.0358   22.2476 C   0  0  0  0  0  0  0  0  0  0  0  0
    8.0119   14.4162   21.9008 C   0  0  0  0  0  0  0  0  0  0  0  0
    8.6424   10.0333   23.9216 N   0  0  0  0  0  0  0  0  0  0  0  0
    5.7089   15.5895   22.5098 N   0  0  0  0  0  0  0  0  0  0  0  0
    7.1022   14.4539   24.3499 O   0  0  0  0  0  0  0  0  0  0  0  0
    7.9275   16.6087   23.3198 O   0  0  0  0  0  0  0  0  0  0  0  0
    9.4683   13.2523   23.4264 O   0  0  0  0  0  0  0  0  0  0  0  0
    7.2452   15.3321   23.2021 S   0  0  0  0  0  0  0  0  0  0  0  0
    8.8521   11.5746   25.4305 H   0  0  0  0  0  0  0  0  0  0  0  0
    7.2026   11.4177   24.7749 H   0  0  0  0  0  0  0  0  0  0  0  0
    9.5515   10.3914   21.9812 H   0  0  0  0  0  0  0  0  0  0  0  0
   10.5859   10.8173   23.3677 H   0  0  0  0  0  0  0  0  0  0  0  0
    7.9144   12.1713   22.5261 H   0  0  0  0  0  0  0  0  0  0  0  0
    9.8832   13.4454   21.4407 H   0  0  0  0  0  0  0  0  0  0  0  0
   10.0619   14.9201   22.4098 H   0  0  0  0  0  0  0  0  0  0  0  0
    7.3869   13.5344   21.7323 H   0  0  0  0  0  0  0  0  0  0  0  0
    7.9855   15.0561   21.0143 H   0  0  0  0  0  0  0  0  0  0  0  0
    7.8796    9.5397   23.4611 H   0  0  0  0  0  0  0  0  0  0  0  0
    4.9130   15.0749   22.9064 H   0  0  0  0  0  0  0  0  0  0  0  0
    5.4752   16.5424   22.2047 H   0  0  0  0  0  0  0  0  0  0  0  0
  1  3  1  0  0  0  0
  1  6  1  0  0  0  0
  2  3  1  0  0  0  0
  2  6  1  0  0  0  0
  3 10  1  0  0  0  0
  4  5  1  0  0  0  0
  4 10  1  0  0  0  0
  5 11  1  0  0  0  0
  7 11  1  0  0  0  0
  8 11  2  0  0  0  0
  9 11  2  0  0  0  0
  1 12  1  0  0  0  0
  1 13  1  0  0  0  0
  2 14  1  0  0  0  0
  2 15  1  0  0  0  0
  3 16  1  0  0  0  0
  4 17  1  0  0  0  0
  4 18  1  0  0  0  0
  5 19  1  0  0  0  0
  5 20  1  0  0  0  0
  6 21  1  0  0  0  0
  7 22  1  0  0  0  0
  7 23  1  0  0  0  0
M  END
> <Mol Weight>
294,25

> <Formula>
C7H13F3N2O5S

> <ID>
EN300-6495032

> <name>
Sulfonamides

> <LogP>
-1,91

> <ROCS_ShapeQuery>
x0310_0A_x0719_0A_x1080_0A_x0739_0A_x0929_0A_x0526_0A_x0911_0A

> <ROCS_TanimotoCombo>
0.316 

> <ROCS_ShapeTanimoto>
0.156 

> <ROCS_ColorTanimoto>
0.160 

> <ROCS_RefTversky>
0.149 

> <ROCS_RefColorTversky>
0.177 

> <ROCS_RefTverskyCombo>
0.325 

> <ROCS_FitTversky>
1.431 

> <ROCS_FitColorTversky>
0.629 

> <ROCS_FitTverskyCombo>
2.060 

> <ROCS_ColorScore>
-5.140

> <ROCS_Overlap>
1188.785

> <ROCS_Rank>
235                 

$$$$
untitled-dbase-2700_723
  -OEChem-02092407103D

 42 42  0     0  0  0  0  0  0999 V2000
    3.3521   11.5987   20.8599 C   0  0  0  0  0  0  0  0  0  0  0  0
    2.2732   12.2052   20.2167 C   0  0  0  0  0  0  0  0  0  0  0  0
    3.0693   11.3701   18.0940 C   0  0  0  0  0  0  0  0  0  0  0  0
    4.1482   10.7637   18.7372 C   0  0  0  0  0  0  0  0  0  0  0  0
    4.2897   10.8780   20.1201 C   0  0  0  0  0  0  0  0  0  0  0  0
    2.1317   12.0909   18.8338 C   0  0  0  0  0  0  0  0  0  0  0  0
    8.3729   13.4485   22.1371 C   0  0  0  0  0  0  0  0  0  0  0  0
    5.1905    8.5071   18.3189 C   0  0  0  0  0  0  0  0  0  0  0  0
    6.5552   10.6034   18.0057 C   0  0  0  0  0  0  0  0  0  0  0  0
    7.6586   12.8215   23.3238 C   0  0  0  0  0  0  0  0  0  0  0  0
    7.8621   11.3073   23.3638 C   0  0  0  0  0  0  0  0  0  0  0  0
    7.2925   10.6369   22.1156 C   0  0  0  0  0  0  0  0  0  0  0  0
    5.8072   10.9256   21.9507 C   0  0  0  0  0  0  0  0  0  0  0  0
    5.1423    9.9960   17.9297 C   0  0  0  0  0  0  0  0  0  0  0  0
   -0.3790   11.5970   18.0874 N   0  0  0  0  0  0  0  0  0  0  0  0
    0.3182   13.9575   18.8541 O   0  0  0  0  0  0  0  0  0  0  0  0
    1.1441   13.0866   16.6389 O   0  0  0  0  0  0  0  0  0  0  0  0
    5.3439   10.2884   20.7682 O   0  0  0  0  0  0  0  0  0  0  0  0
    0.7810   12.8503   18.0292 S   0  0  0  0  0  0  0  0  0  0  0  0
    3.4565   11.6917   21.9375 H   0  0  0  0  0  0  0  0  0  0  0  0
    1.5487   12.7644   20.8027 H   0  0  0  0  0  0  0  0  0  0  0  0
    2.9599   11.2804   17.0158 H   0  0  0  0  0  0  0  0  0  0  0  0
    9.4463   13.2360   22.1683 H   0  0  0  0  0  0  0  0  0  0  0  0
    7.9739   13.0660   21.1922 H   0  0  0  0  0  0  0  0  0  0  0  0
    8.2414   14.5350   22.1464 H   0  0  0  0  0  0  0  0  0  0  0  0
    5.4679    8.3735   19.3702 H   0  0  0  0  0  0  0  0  0  0  0  0
    5.9181    7.9584   17.7110 H   0  0  0  0  0  0  0  0  0  0  0  0
    4.2101    8.0406   18.1706 H   0  0  0  0  0  0  0  0  0  0  0  0
    6.9129   10.6125   19.0414 H   0  0  0  0  0  0  0  0  0  0  0  0
    6.5668   11.6352   17.6380 H   0  0  0  0  0  0  0  0  0  0  0  0
    7.2735   10.0303   17.4093 H   0  0  0  0  0  0  0  0  0  0  0  0
    6.5886   13.0524   23.2627 H   0  0  0  0  0  0  0  0  0  0  0  0
    8.0356   13.2723   24.2493 H   0  0  0  0  0  0  0  0  0  0  0  0
    8.9325   11.0821   23.4459 H   0  0  0  0  0  0  0  0  0  0  0  0
    7.3761   10.8948   24.2565 H   0  0  0  0  0  0  0  0  0  0  0  0
    7.4480    9.5519   22.1628 H   0  0  0  0  0  0  0  0  0  0  0  0
    7.8301   10.9780   21.2222 H   0  0  0  0  0  0  0  0  0  0  0  0
    5.6257   12.0014   21.8603 H   0  0  0  0  0  0  0  0  0  0  0  0
    5.2372   10.5382   22.8011 H   0  0  0  0  0  0  0  0  0  0  0  0
    4.8562   10.0228   16.8615 H   0  0  0  0  0  0  0  0  0  0  0  0
   -1.1776   11.7088   18.7239 H   0  0  0  0  0  0  0  0  0  0  0  0
   -0.6110   11.1139   17.2110 H   0  0  0  0  0  0  0  0  0  0  0  0
  1  2  2  0  0  0  0
  1  5  1  0  0  0  0
  2  6  1  0  0  0  0
  3  4  1  0  0  0  0
  3  6  2  0  0  0  0
  4  5  2  0  0  0  0
  4 14  1  0  0  0  0
  5 18  1  0  0  0  0
  6 19  1  0  0  0  0
  7 10  1  0  0  0  0
  8 14  1  0  0  0  0
  9 14  1  0  0  0  0
 10 11  1  0  0  0  0
 11 12  1  0  0  0  0
 12 13  1  0  0  0  0
 13 18  1  0  0  0  0
 15 19  1  0  0  0  0
 16 19  2  0  0  0  0
 17 19  2  0  0  0  0
  1 20  1  0  0  0  0
  2 21  1  0  0  0  0
  3 22  1  0  0  0  0
  7 23  1  0  0  0  0
  7 24  1  0  0  0  0
  7 25  1  0  0  0  0
  8 26  1  0  0  0  0
  8 27  1  0  0  0  0
  8 28  1  0  0  0  0
  9 29  1  0  0  0  0
  9 30  1  0  0  0  0
  9 31  1  0  0  0  0
 10 32  1  0  0  0  0
 10 33  1  0  0  0  0
 11 34  1  0  0  0  0
 11 35  1  0  0  0  0
 12 36  1  0  0  0  0
 12 37  1  0  0  0  0
 13 38  1  0  0  0  0
 13 39  1  0  0  0  0
 14 40  1  0  0  0  0
 15 41  1  0  0  0  0
 15 42  1  0  0  0  0
M  END
> <Mol Weight>
285,40

> <Formula>
C14H23NO3S

> <ID>
EN300-1086861

> <name>
Sulfonamides

> <LogP>
3,44

> <ROCS_ShapeQuery>
x0310_0A_x0719_0A_x1080_0A_x0739_0A_x0929_0A_x0526_0A_x0911_0A

> <ROCS_TanimotoCombo>
0.315 

> <ROCS_ShapeTanimoto>
0.195 

> <ROCS_ColorTanimoto>
0.120 

> <ROCS_RefTversky>
0.187 

> <ROCS_RefColorTversky>
0.138 

> <ROCS_RefTverskyCombo>
0.324 

> <ROCS_FitTversky>
1.294 

> <ROCS_FitColorTversky>
0.490 

> <ROCS_FitTverskyCombo>
1.784 

> <ROCS_ColorScore>
-4.004

> <ROCS_Overlap>
1496.758

> <ROCS_Rank>
236                 

$$$$
untitled-dbase-987_40
  -OEChem-02092407103D

 23 23  0     0  0  0  0  0  0999 V2000
    8.5077    9.9732   24.3016 C   0  0  0  0  0  0  0  0  0  0  0  0
    7.8080   11.1040   24.7226 C   0  0  0  0  0  0  0  0  0  0  0  0
    9.5385   10.0974   23.3700 C   0  0  0  0  0  0  0  0  0  0  0  0
    9.1697   12.4834   23.2803 C   0  0  0  0  0  0  0  0  0  0  0  0
    8.1390   12.3592   24.2119 C   0  0  0  0  0  0  0  0  0  0  0  0
    9.8695   11.3526   22.8594 C   0  0  0  0  0  0  0  0  0  0  0  0
    7.3903   13.5675   24.6628 C   0  0  0  0  0  0  0  0  0  0  0  0
    7.3059   14.6687   23.6022 C   0  0  0  0  0  0  0  0  0  0  0  0
    6.0414   15.6697   21.4928 N   0  0  0  0  0  0  0  0  0  0  0  0
    7.4108   13.5041   21.2656 O   0  0  0  0  0  0  0  0  0  0  0  0
    5.2361   13.4683   22.5521 O   0  0  0  0  0  0  0  0  0  0  0  0
   10.8589   11.4720   21.9645 F   0  0  0  0  0  0  0  0  0  0  0  0
    6.4529   14.1498   22.1462 S   0  0  0  0  0  0  0  0  0  0  0  0
    8.2503    8.9959   24.6995 H   0  0  0  0  0  0  0  0  0  0  0  0
    7.0062   10.9975   25.4486 H   0  0  0  0  0  0  0  0  0  0  0  0
   10.0826    9.2170   23.0421 H   0  0  0  0  0  0  0  0  0  0  0  0
    9.4353   13.4570   22.8773 H   0  0  0  0  0  0  0  0  0  0  0  0
    7.8820   13.9919   25.5553 H   0  0  0  0  0  0  0  0  0  0  0  0
    6.3699   13.3042   24.9916 H   0  0  0  0  0  0  0  0  0  0  0  0
    6.7475   15.5284   23.9862 H   0  0  0  0  0  0  0  0  0  0  0  0
    8.2962   15.0132   23.2893 H   0  0  0  0  0  0  0  0  0  0  0  0
    5.3173   16.2171   21.9740 H   0  0  0  0  0  0  0  0  0  0  0  0
    6.7983   16.2412   21.0977 H   0  0  0  0  0  0  0  0  0  0  0  0
  1  2  2  0  0  0  0
  1  3  1  0  0  0  0
  2  5  1  0  0  0  0
  3  6  2  0  0  0  0
  4  5  2  0  0  0  0
  4  6  1  0  0  0  0
  5  7  1  0  0  0  0
  6 12  1  0  0  0  0
  7  8  1  0  0  0  0
  8 13  1  0  0  0  0
  9 13  1  0  0  0  0
 10 13  2  0  0  0  0
 11 13  2  0  0  0  0
  1 14  1  0  0  0  0
  2 15  1  0  0  0  0
  3 16  1  0  0  0  0
  4 17  1  0  0  0  0
  7 18  1  0  0  0  0
  7 19  1  0  0  0  0
  8 20  1  0  0  0  0
  8 21  1  0  0  0  0
  9 22  1  0  0  0  0
  9 23  1  0  0  0  0
M  END
> <Mol Weight>
203,23

> <Formula>
C8H10FNO2S

> <ID>
EN300-283850

> <name>
Sulfonamides

> <LogP>
0,77

> <ROCS_ShapeQuery>
x0310_0A_x0719_0A_x1080_0A_x0739_0A_x0929_0A_x0526_0A_x0911_0A

> <ROCS_TanimotoCombo>
0.315 

> <ROCS_ShapeTanimoto>
0.176 

> <ROCS_ColorTanimoto>
0.139 

> <ROCS_RefTversky>
0.167 

> <ROCS_RefColorTversky>
0.145 

> <ROCS_RefTverskyCombo>
0.312 

> <ROCS_FitTversky>
1.440 

> <ROCS_FitColorTversky>
0.789 

> <ROCS_FitTverskyCombo>
2.229 

> <ROCS_ColorScore>
-4.194

> <ROCS_Overlap>
1335.027

> <ROCS_Rank>
237                 

$$$$
untitled-dbase-1993_16
  -OEChem-02092407103D

 28 29  0     0  0  0  0  0  0999 V2000
    6.8968   12.6470   21.2240 C   0  0  0  0  0  0  0  0  0  0  0  0
    5.9185   10.6101   22.0790 C   0  0  0  0  0  0  0  0  0  0  0  0
    5.8752   12.7410   20.2790 C   0  0  0  0  0  0  0  0  0  0  0  0
    4.8969   10.7041   21.1340 C   0  0  0  0  0  0  0  0  0  0  0  0
    6.9185   11.5815   22.1240 C   0  0  0  0  0  0  0  0  0  0  0  0
    4.8752   11.7696   20.2340 C   0  0  0  0  0  0  0  0  0  0  0  0
    8.2718   12.4275   24.0909 C   0  0  0  0  0  0  0  0  0  0  0  0
    9.3860   11.8424   24.9287 C   0  0  0  0  0  0  0  0  0  0  0  0
    9.9891   10.7877   24.0226 C   0  0  0  0  0  0  0  0  0  0  0  0
    8.8080   10.3121   23.2029 C   0  0  0  0  0  0  0  0  0  0  0  0
    7.9632   11.4854   23.0903 N   0  0  0  0  0  0  0  0  0  0  0  0
    2.6788   10.4949   19.4240 N   0  0  0  0  0  0  0  0  0  0  0  0
    7.7519   13.5037   24.3472 O   0  0  0  0  0  0  0  0  0  0  0  0
    2.8004   13.0689   19.3506 O   0  0  0  0  0  0  0  0  0  0  0  0
    4.1765   11.7228   17.7252 O   0  0  0  0  0  0  0  0  0  0  0  0
    3.5966   11.8870   19.0509 S   0  0  0  0  0  0  0  0  0  0  0  0
    7.6710   13.4097   21.2498 H   0  0  0  0  0  0  0  0  0  0  0  0
    5.9253    9.7755   22.7755 H   0  0  0  0  0  0  0  0  0  0  0  0
    5.8679   13.5750   19.5824 H   0  0  0  0  0  0  0  0  0  0  0  0
    4.1227    9.9418   21.1077 H   0  0  0  0  0  0  0  0  0  0  0  0
   10.1045   12.6351   25.1599 H   0  0  0  0  0  0  0  0  0  0  0  0
    8.9947   11.4107   25.8530 H   0  0  0  0  0  0  0  0  0  0  0  0
   10.8000   11.1830   23.4044 H   0  0  0  0  0  0  0  0  0  0  0  0
   10.3880    9.9606   24.6224 H   0  0  0  0  0  0  0  0  0  0  0  0
    9.1139   10.0108   22.1949 H   0  0  0  0  0  0  0  0  0  0  0  0
    8.2707    9.4914   23.6878 H   0  0  0  0  0  0  0  0  0  0  0  0
    1.7648   10.6266   19.8742 H   0  0  0  0  0  0  0  0  0  0  0  0
    2.7071    9.7078   18.7645 H   0  0  0  0  0  0  0  0  0  0  0  0
  1  3  2  0  0  0  0
  1  5  1  0  0  0  0
  2  4  1  0  0  0  0
  2  5  2  0  0  0  0
  3  6  1  0  0  0  0
  4  6  2  0  0  0  0
  5 11  1  0  0  0  0
  6 16  1  0  0  0  0
  7  8  1  0  0  0  0
  7 11  1  0  0  0  0
  7 13  2  0  0  0  0
  8  9  1  0  0  0  0
  9 10  1  0  0  0  0
 10 11  1  0  0  0  0
 12 16  1  0  0  0  0
 14 16  2  0  0  0  0
 15 16  2  0  0  0  0
  1 17  1  0  0  0  0
  2 18  1  0  0  0  0
  3 19  1  0  0  0  0
  4 20  1  0  0  0  0
  8 21  1  0  0  0  0
  8 22  1  0  0  0  0
  9 23  1  0  0  0  0
  9 24  1  0  0  0  0
 10 25  1  0  0  0  0
 10 26  1  0  0  0  0
 12 27  1  0  0  0  0
 12 28  1  0  0  0  0
M  END
> <Mol Weight>
240,28

> <Formula>
C10H12N2O3S

> <ID>
EN300-59717

> <name>
Sulfonamides

> <LogP>
-0,09

> <ROCS_ShapeQuery>
x0310_0A_x0719_0A_x1080_0A_x0739_0A_x0929_0A_x0526_0A_x0911_0A

> <ROCS_TanimotoCombo>
0.315 

> <ROCS_ShapeTanimoto>
0.183 

> <ROCS_ColorTanimoto>
0.132 

> <ROCS_RefTversky>
0.175 

> <ROCS_RefColorTversky>
0.146 

> <ROCS_RefTverskyCombo>
0.321 

> <ROCS_FitTversky>
1.302 

> <ROCS_FitColorTversky>
0.587 

> <ROCS_FitTverskyCombo>
1.889 

> <ROCS_ColorScore>
-4.235

> <ROCS_Overlap>
1406.194

> <ROCS_Rank>
238                 

$$$$
untitled-dbase-2799_288
  -OEChem-02092407103D

 31 31  0     0  0  0  0  0  0999 V2000
    3.5979   12.2843   20.9510 C   0  0  0  0  0  0  0  0  0  0  0  0
    2.4230   12.6358   20.2866 C   0  0  0  0  0  0  0  0  0  0  0  0
    3.3019   11.7030   18.2386 C   0  0  0  0  0  0  0  0  0  0  0  0
    4.6250   11.6422   20.2591 C   0  0  0  0  0  0  0  0  0  0  0  0
    4.4769   11.3515   18.9030 C   0  0  0  0  0  0  0  0  0  0  0  0
    2.2749   12.3452   18.9304 C   0  0  0  0  0  0  0  0  0  0  0  0
    8.2577   12.1364   24.0999 C   0  0  0  0  0  0  0  0  0  0  0  0
    8.5463   10.6511   22.0918 C   0  0  0  0  0  0  0  0  0  0  0  0
    7.5507   11.3442   23.0102 C   0  0  0  0  0  0  0  0  0  0  0  0
   -0.1360   11.3759   18.3362 N   0  0  0  0  0  0  0  0  0  0  0  0
    5.8361   11.2814   20.9469 N   0  0  0  0  0  0  0  0  0  0  0  0
    0.1825   13.8886   18.8163 O   0  0  0  0  0  0  0  0  0  0  0  0
    1.0960   12.9163   16.6791 O   0  0  0  0  0  0  0  0  0  0  0  0
    7.3383   13.3284   21.3413 O   0  0  0  0  0  0  0  0  0  0  0  0
    5.4543   12.9095   22.9600 O   0  0  0  0  0  0  0  0  0  0  0  0
    5.4574   10.7342   18.2288 F   0  0  0  0  0  0  0  0  0  0  0  0
    0.8034   12.7835   18.0995 S   0  0  0  0  0  0  0  0  0  0  0  0
    6.4855   12.4064   22.0714 S   0  0  0  0  0  0  0  0  0  0  0  0
    3.7041   12.5159   22.0077 H   0  0  0  0  0  0  0  0  0  0  0  0
    1.6302   13.1376   20.8349 H   0  0  0  0  0  0  0  0  0  0  0  0
    3.1974   11.4716   17.1820 H   0  0  0  0  0  0  0  0  0  0  0  0
    8.9194   12.8932   23.6661 H   0  0  0  0  0  0  0  0  0  0  0  0
    7.5393   12.6440   24.7529 H   0  0  0  0  0  0  0  0  0  0  0  0
    8.8655   11.4769   24.7287 H   0  0  0  0  0  0  0  0  0  0  0  0
    9.2137   11.3786   21.6186 H   0  0  0  0  0  0  0  0  0  0  0  0
    8.0353   10.0907   21.3011 H   0  0  0  0  0  0  0  0  0  0  0  0
    9.1636    9.9409   22.6522 H   0  0  0  0  0  0  0  0  0  0  0  0
    6.8963   10.5955   23.4698 H   0  0  0  0  0  0  0  0  0  0  0  0
   -0.9297   11.4299   18.9863 H   0  0  0  0  0  0  0  0  0  0  0  0
   -0.3032   10.7662   17.5266 H   0  0  0  0  0  0  0  0  0  0  0  0
    6.5284   10.8133   20.3466 H   0  0  0  0  0  0  0  0  0  0  0  0
  1  2  2  0  0  0  0
  1  4  1  0  0  0  0
  2  6  1  0  0  0  0
  3  5  1  0  0  0  0
  3  6  2  0  0  0  0
  4  5  2  0  0  0  0
  4 11  1  0  0  0  0
  5 16  1  0  0  0  0
  6 17  1  0  0  0  0
  7  9  1  0  0  0  0
  8  9  1  0  0  0  0
  9 18  1  0  0  0  0
 10 17  1  0  0  0  0
 11 18  1  0  0  0  0
 12 17  2  0  0  0  0
 13 17  2  0  0  0  0
 14 18  2  0  0  0  0
 15 18  2  0  0  0  0
  1 19  1  0  0  0  0
  2 20  1  0  0  0  0
  3 21  1  0  0  0  0
  7 22  1  0  0  0  0
  7 23  1  0  0  0  0
  7 24  1  0  0  0  0
  8 25  1  0  0  0  0
  8 26  1  0  0  0  0
  8 27  1  0  0  0  0
  9 28  1  0  0  0  0
 10 29  1  0  0  0  0
 10 30  1  0  0  0  0
 11 31  1  0  0  0  0
M  END
> <Mol Weight>
296,33

> <Formula>
C9H13FN2O4S2

> <ID>
EN300-116201

> <name>
Sulfonamides

> <LogP>
0,17

> <ROCS_ShapeQuery>
x0310_0A_x0719_0A_x1080_0A_x0739_0A_x0929_0A_x0526_0A_x0911_0A

> <ROCS_TanimotoCombo>
0.315 

> <ROCS_ShapeTanimoto>
0.203 

> <ROCS_ColorTanimoto>
0.112 

> <ROCS_RefTversky>
0.192 

> <ROCS_RefColorTversky>
0.132 

> <ROCS_RefTverskyCombo>
0.325 

> <ROCS_FitTversky>
1.373 

> <ROCS_FitColorTversky>
0.423 

> <ROCS_FitTverskyCombo>
1.796 

> <ROCS_ColorScore>
-3.859

> <ROCS_Overlap>
1540.598

> <ROCS_Rank>
239                 

$$$$
untitled-dbase-2286_2972
  -OEChem-02092407103D

 32 32  0     1  0  0  0  0  0999 V2000
    7.7917   14.4071   25.1383 C   0  0  0  0  0  0  0  0  0  0  0  0
    9.5360   10.5282   23.0073 C   0  0  0  0  0  0  0  0  0  0  0  0
    8.0574   11.6069   24.5689 C   0  0  0  0  0  0  0  0  0  0  0  0
    8.1632   10.4097   23.6489 C   0  0  1  0  0  0  0  0  0  0  0  0
    9.9929   11.9649   23.3013 C   0  0  1  0  0  0  0  0  0  0  0  0
    8.7165   14.5604   19.2905 C   0  0  0  0  0  0  0  0  0  0  0  0
    9.0811   13.7978   24.6382 C   0  0  0  0  0  0  0  0  0  0  0  0
   10.5462   12.6497   22.0571 C   0  0  0  0  0  0  0  0  0  0  0  0
    8.7869   12.6313   23.8148 N   0  0  2  0  0  0  0  0  0  0  0  0
    7.9406   15.0122   26.3678 N   0  0  0  0  0  0  0  0  0  0  0  0
    9.5447   12.6984   21.0443 N   0  0  0  0  0  0  0  0  0  0  0  0
    6.7409   14.4050   24.5029 O   0  0  0  0  0  0  0  0  0  0  0  0
    8.8954   15.0756   21.8503 O   0  0  0  0  0  0  0  0  0  0  0  0
    7.0726   13.5352   21.0374 O   0  0  0  0  0  0  0  0  0  0  0  0
    7.2158   10.5238   22.6768 F   0  0  0  0  0  0  0  0  0  0  0  0
    8.4354   14.0255   20.9629 S   0  0  0  0  0  0  0  0  0  0  0  0
   10.2338    9.8235   23.4739 H   0  0  0  0  0  0  0  0  0  0  0  0
    9.4824   10.3070   21.9361 H   0  0  0  0  0  0  0  0  0  0  0  0
    7.0167   11.9006   24.7358 H   0  0  0  0  0  0  0  0  0  0  0  0
    8.5404   11.3932   25.5303 H   0  0  0  0  0  0  0  0  0  0  0  0
    8.0085    9.4552   24.1589 H   0  0  0  0  0  0  0  0  0  0  0  0
   10.7761   11.9272   24.0709 H   0  0  0  0  0  0  0  0  0  0  0  0
    8.0686   15.4149   19.0888 H   0  0  0  0  0  0  0  0  0  0  0  0
    9.7653   14.8440   19.1913 H   0  0  0  0  0  0  0  0  0  0  0  0
    8.4786   13.7334   18.6199 H   0  0  0  0  0  0  0  0  0  0  0  0
    9.7093   13.4738   25.4724 H   0  0  0  0  0  0  0  0  0  0  0  0
    9.6186   14.5289   24.0282 H   0  0  0  0  0  0  0  0  0  0  0  0
   10.8464   13.6565   22.3457 H   0  0  0  0  0  0  0  0  0  0  0  0
   11.4031   12.0679   21.7189 H   0  0  0  0  0  0  0  0  0  0  0  0
    7.1553   15.4629   26.8256 H   0  0  0  0  0  0  0  0  0  0  0  0
    8.8278   15.0313   26.8605 H   0  0  0  0  0  0  0  0  0  0  0  0
    9.1262   11.7800   20.7581 H   0  0  0  0  0  0  0  0  0  0  0  0
  1  7  1  0  0  0  0
  1 10  1  0  0  0  0
  1 12  2  0  0  0  0
  2  4  1  0  0  0  0
  2  5  1  0  0  0  0
  3  4  1  0  0  0  0
  3  9  1  0  0  0  0
  4 15  1  6  0  0  0
  5  8  1  6  0  0  0
  5  9  1  0  0  0  0
  6 16  1  0  0  0  0
  7  9  1  0  0  0  0
  8 11  1  0  0  0  0
 11 16  1  0  0  0  0
 13 16  2  0  0  0  0
 14 16  2  0  0  0  0
  2 17  1  0  0  0  0
  2 18  1  0  0  0  0
  3 19  1  0  0  0  0
  3 20  1  0  0  0  0
  4 21  1  0  0  0  0
  5 22  1  0  0  0  0
  6 23  1  0  0  0  0
  6 24  1  0  0  0  0
  6 25  1  0  0  0  0
  7 26  1  0  0  0  0
  7 27  1  0  0  0  0
  8 28  1  0  0  0  0
  8 29  1  0  0  0  0
 10 30  1  0  0  0  0
 10 31  1  0  0  0  0
 11 32  1  0  0  0  0
M  END
> <Mol Weight>
253,29

> <Formula>
C8H16FN3O3S

> <ID>
EN300-159496

> <name>
Sulfonamides

> <LogP>
-2,41

> <ROCS_ShapeQuery>
x0310_0A_x0719_0A_x1080_0A_x0739_0A_x0929_0A_x0526_0A_x0911_0A

> <ROCS_TanimotoCombo>
0.315 

> <ROCS_ShapeTanimoto>
0.176 

> <ROCS_ColorTanimoto>
0.139 

> <ROCS_RefTversky>
0.169 

> <ROCS_RefColorTversky>
0.157 

> <ROCS_RefTverskyCombo>
0.325 

> <ROCS_FitTversky>
1.290 

> <ROCS_FitColorTversky>
0.558 

> <ROCS_FitTverskyCombo>
1.848 

> <ROCS_ColorScore>
-4.557

> <ROCS_Overlap>
1352.855

> <ROCS_Rank>
240                 

$$$$
untitled-dbase-2726_133
  -OEChem-02092407103D

 31 31  0     0  0  0  0  0  0999 V2000
    5.7198   13.0535   21.0269 C   0  0  0  0  0  0  0  0  0  0  0  0
    6.7385   10.5308   21.6438 C   0  0  0  0  0  0  0  0  0  0  0  0
    5.2567   11.9285   20.3447 C   0  0  0  0  0  0  0  0  0  0  0  0
    5.7660   10.6671   20.6531 C   0  0  0  0  0  0  0  0  0  0  0  0
    6.6923   12.9172   22.0176 C   0  0  0  0  0  0  0  0  0  0  0  0
    7.2016   11.6559   22.3260 C   0  0  0  0  0  0  0  0  0  0  0  0
    4.2407   12.0987   19.3147 C   0  0  0  0  0  0  0  0  0  0  0  0
    5.2876    9.4458   19.9379 C   0  0  0  0  0  0  0  0  0  0  0  0
    0.8858   12.6567   18.8973 C   0  0  0  0  0  0  0  0  0  0  0  0
    1.8997   11.8747   19.7050 C   0  0  0  0  0  0  0  0  0  0  0  0
    9.8485   11.5994   22.6356 N   0  0  0  0  0  0  0  0  0  0  0  0
    7.1444   14.0834   22.6955 N   0  3  0  0  0  0  0  0  0  0  0  0
    6.5500   14.4466   23.7376 O   0  5  0  0  0  0  0  0  0  0  0  0
    4.3907   11.7844   18.1279 O   0  0  0  0  0  0  0  0  0  0  0  0
    8.1235   14.7129   22.2300 O   0  0  0  0  0  0  0  0  0  0  0  0
    8.3336   12.5503   24.4921 O   0  0  0  0  0  0  0  0  0  0  0  0
    8.3359   10.0695   24.0527 O   0  0  0  0  0  0  0  0  0  0  0  0
    3.0978   12.6492   19.8248 O   0  0  0  0  0  0  0  0  0  0  0  0
    8.4237   11.4358   23.5623 S   0  0  0  0  0  0  0  0  0  0  0  0
    5.3205   14.0365   20.7841 H   0  0  0  0  0  0  0  0  0  0  0  0
    7.1339    9.5461   21.8823 H   0  0  0  0  0  0  0  0  0  0  0  0
    4.4292    9.0108   20.4625 H   0  0  0  0  0  0  0  0  0  0  0  0
    4.9868    9.6815   18.9098 H   0  0  0  0  0  0  0  0  0  0  0  0
    6.0790    8.6890   19.8739 H   0  0  0  0  0  0  0  0  0  0  0  0
    0.6419   13.6029   19.3882 H   0  0  0  0  0  0  0  0  0  0  0  0
    1.2711   12.8677   17.8944 H   0  0  0  0  0  0  0  0  0  0  0  0
   -0.0348   12.0776   18.7693 H   0  0  0  0  0  0  0  0  0  0  0  0
    2.1392   10.9296   19.2086 H   0  0  0  0  0  0  0  0  0  0  0  0
    1.5135   11.6655   20.7070 H   0  0  0  0  0  0  0  0  0  0  0  0
   10.4091   12.4510   22.7618 H   0  0  0  0  0  0  0  0  0  0  0  0
   10.4083   10.7560   22.4610 H   0  0  0  0  0  0  0  0  0  0  0  0
  1  3  1  0  0  0  0
  1  5  2  0  0  0  0
  2  4  1  0  0  0  0
  2  6  2  0  0  0  0
  3  4  2  0  0  0  0
  3  7  1  0  0  0  0
  4  8  1  0  0  0  0
  5  6  1  0  0  0  0
  5 12  1  0  0  0  0
  6 19  1  0  0  0  0
  7 14  2  0  0  0  0
  7 18  1  0  0  0  0
  9 10  1  0  0  0  0
 10 18  1  0  0  0  0
 11 19  1  0  0  0  0
 12 13  1  0  0  0  0
 12 15  2  0  0  0  0
 16 19  2  0  0  0  0
 17 19  2  0  0  0  0
  1 20  1  0  0  0  0
  2 21  1  0  0  0  0
  8 22  1  0  0  0  0
  8 23  1  0  0  0  0
  8 24  1  0  0  0  0
  9 25  1  0  0  0  0
  9 26  1  0  0  0  0
  9 27  1  0  0  0  0
 10 28  1  0  0  0  0
 10 29  1  0  0  0  0
 11 30  1  0  0  0  0
 11 31  1  0  0  0  0
M  CHG  2  12   1  13  -1
M  END
> <Mol Weight>
288,27

> <Formula>
C10H12N2O6S

> <ID>
EN300-7492254

> <name>
Sulfonamides

> <LogP>
1,39

> <ROCS_ShapeQuery>
x0310_0A_x0719_0A_x1080_0A_x0739_0A_x0929_0A_x0526_0A_x0911_0A

> <ROCS_TanimotoCombo>
0.315 

> <ROCS_ShapeTanimoto>
0.221 

> <ROCS_ColorTanimoto>
0.094 

> <ROCS_RefTversky>
0.208 

> <ROCS_RefColorTversky>
0.110 

> <ROCS_RefTverskyCombo>
0.318 

> <ROCS_FitTversky>
1.390 

> <ROCS_FitColorTversky>
0.390 

> <ROCS_FitTverskyCombo>
1.780 

> <ROCS_ColorScore>
-3.189

> <ROCS_Overlap>
1670.479

> <ROCS_Rank>
241                 

$$$$
untitled-dbase-2546_27
  -OEChem-02092407103D

 22 23  0     0  0  0  0  0  0999 V2000
    6.9012   11.5010   22.3107 C   0  0  0  0  0  0  0  0  0  0  0  0
    6.3634   12.7694   22.3741 C   0  0  0  0  0  0  0  0  0  0  0  0
    4.9024   11.0511   21.5282 C   0  0  0  0  0  0  0  0  0  0  0  0
    8.8176   10.7500   24.9030 C   0  0  0  0  0  0  0  0  0  0  0  0
    9.7220   11.8019   24.3173 C   0  0  0  0  0  0  0  0  0  0  0  0
    8.2941   11.1136   22.7209 C   0  0  0  0  0  0  0  0  0  0  0  0
    6.0648   10.5143   21.8263 N   0  0  0  0  0  0  0  0  0  0  0  0
    5.5744   15.3054   22.6001 N   0  0  0  0  0  0  0  0  0  0  0  0
    7.2012   14.2827   24.3187 O   0  0  0  0  0  0  0  0  0  0  0  0
    8.0115   14.7472   21.9787 O   0  0  0  0  0  0  0  0  0  0  0  0
    8.2126   10.1328   23.7648 O   0  0  0  0  0  0  0  0  0  0  0  0
    8.9895   12.2764   23.1885 O   0  0  0  0  0  0  0  0  0  0  0  0
    4.7459   12.7375   21.8048 S   0  0  0  0  0  0  0  0  0  0  0  0
    6.9519   14.3380   22.8870 S   0  0  0  0  0  0  0  0  0  0  0  0
    3.5874   10.1531   20.8953 Cl  0  0  0  0  0  0  0  0  0  0  0  0
    9.3890    9.9832   25.4434 H   0  0  0  0  0  0  0  0  0  0  0  0
    8.0528   11.1599   25.5725 H   0  0  0  0  0  0  0  0  0  0  0  0
    9.8549   12.6389   25.0065 H   0  0  0  0  0  0  0  0  0  0  0  0
   10.6960   11.4178   24.0157 H   0  0  0  0  0  0  0  0  0  0  0  0
    8.8111   10.7042   21.8783 H   0  0  0  0  0  0  0  0  0  0  0  0
    5.0522   15.6520   23.4141 H   0  0  0  0  0  0  0  0  0  0  0  0
    5.6064   15.9670   21.8149 H   0  0  0  0  0  0  0  0  0  0  0  0
  1  2  2  0  0  0  0
  1  6  1  0  0  0  0
  1  7  1  0  0  0  0
  2 13  1  0  0  0  0
  2 14  1  0  0  0  0
  3  7  2  0  0  0  0
  3 13  1  0  0  0  0
  3 15  1  0  0  0  0
  4  5  1  0  0  0  0
  4 11  1  0  0  0  0
  5 12  1  0  0  0  0
  6 11  1  0  0  0  0
  6 12  1  0  0  0  0
  8 14  1  0  0  0  0
  9 14  2  0  0  0  0
 10 14  2  0  0  0  0
  4 16  1  0  0  0  0
  4 17  1  0  0  0  0
  5 18  1  0  0  0  0
  5 19  1  0  0  0  0
  6 20  1  0  0  0  0
  8 21  1  0  0  0  0
  8 22  1  0  0  0  0
M  END
> <Mol Weight>
270,70

> <Formula>
C6H7ClN2O4S2

> <ID>
EN300-27106045

> <name>
Sulfonamides

> <LogP>
0,46

> <ROCS_ShapeQuery>
x0310_0A_x0719_0A_x1080_0A_x0739_0A_x0929_0A_x0526_0A_x0911_0A

> <ROCS_TanimotoCombo>
0.315 

> <ROCS_ShapeTanimoto>
0.146 

> <ROCS_ColorTanimoto>
0.168 

> <ROCS_RefTversky>
0.144 

> <ROCS_RefColorTversky>
0.189 

> <ROCS_RefTverskyCombo>
0.333 

> <ROCS_FitTversky>
1.131 

> <ROCS_FitColorTversky>
0.605 

> <ROCS_FitTverskyCombo>
1.736 

> <ROCS_ColorScore>
-5.521

> <ROCS_Overlap>
1151.244

> <ROCS_Rank>
242                 

$$$$
untitled-dbase-2024_1
  -OEChem-02092407103D

 31 32  0     1  0  0  0  0  0999 V2000
    9.8946   10.2476   23.5166 C   0  0  0  0  0  0  0  0  0  0  0  0
    8.7726    9.9487   24.2825 C   0  0  0  0  0  0  0  0  0  0  0  0
   10.0575   11.5293   22.9929 C   0  0  0  0  0  0  0  0  0  0  0  0
    7.8126   10.9310   24.5223 C   0  0  0  0  0  0  0  0  0  0  0  0
    9.1031   12.5301   23.2347 C   0  0  0  0  0  0  0  0  0  0  0  0
    7.9613   12.2259   23.9978 C   0  0  0  0  0  0  0  0  0  0  0  0
    9.3035   13.8872   22.6112 C   0  0  0  0  0  0  0  0  0  0  0  0
    8.4140   14.9750   23.2105 C   0  0  0  0  0  0  0  0  0  0  0  0
    6.9074   13.2637   24.3023 C   0  0  2  0  0  0  0  0  0  0  0  0
    6.9735   14.5067   23.4070 C   0  0  2  0  0  0  0  0  0  0  0  0
    5.9177   14.2660   26.1836 C   0  0  0  0  0  0  0  0  0  0  0  0
    6.2682   15.8024   21.2038 N   0  0  0  0  0  0  0  0  0  0  0  0
    6.9681   13.3302   21.0788 O   0  0  0  0  0  0  0  0  0  0  0  0
    4.7608   13.9429   22.1456 O   0  0  0  0  0  0  0  0  0  0  0  0
    7.0907   13.6624   25.6624 O   0  0  0  0  0  0  0  0  0  0  0  0
    6.1499   14.2354   21.8590 S   0  0  0  0  0  0  0  0  0  0  0  0
   10.6415    9.4830   23.3240 H   0  0  0  0  0  0  0  0  0  0  0  0
    8.6446    8.9519   24.6939 H   0  0  0  0  0  0  0  0  0  0  0  0
   10.9348   11.7446   22.3871 H   0  0  0  0  0  0  0  0  0  0  0  0
    6.9435   10.6784   25.1241 H   0  0  0  0  0  0  0  0  0  0  0  0
   10.3620   14.1693   22.7309 H   0  0  0  0  0  0  0  0  0  0  0  0
    9.1063   13.8345   21.5286 H   0  0  0  0  0  0  0  0  0  0  0  0
    8.8465   15.3051   24.1729 H   0  0  0  0  0  0  0  0  0  0  0  0
    8.4302   15.8709   22.5602 H   0  0  0  0  0  0  0  0  0  0  0  0
    5.9312   12.7756   24.2221 H   0  0  0  0  0  0  0  0  0  0  0  0
    6.3898   15.3318   23.8903 H   0  0  0  0  0  0  0  0  0  0  0  0
    6.0887   14.5592   27.2223 H   0  0  0  0  0  0  0  0  0  0  0  0
    5.0864   13.5588   26.1256 H   0  0  0  0  0  0  0  0  0  0  0  0
    5.6810   15.1529   25.5912 H   0  0  0  0  0  0  0  0  0  0  0  0
    5.6897   16.5424   21.6201 H   0  0  0  0  0  0  0  0  0  0  0  0
    7.1930   16.1250   20.8935 H   0  0  0  0  0  0  0  0  0  0  0  0
  1  2  1  0  0  0  0
  1  3  2  0  0  0  0
  2  4  2  0  0  0  0
  3  5  1  0  0  0  0
  4  6  1  0  0  0  0
  5  6  2  0  0  0  0
  5  7  1  0  0  0  0
  6  9  1  0  0  0  0
  7  8  1  0  0  0  0
  8 10  1  0  0  0  0
  9 10  1  0  0  0  0
  9 15  1  0  0  0  0
 10 16  1  0  0  0  0
 11 15  1  0  0  0  0
 12 16  1  0  0  0  0
 13 16  2  0  0  0  0
 14 16  2  0  0  0  0
  1 17  1  0  0  0  0
  2 18  1  0  0  0  0
  3 19  1  0  0  0  0
  4 20  1  0  0  0  0
  7 21  1  0  0  0  0
  7 22  1  0  0  0  0
  8 23  1  0  0  0  0
  8 24  1  0  0  0  0
  9 25  1  0  0  0  0
 10 26  1  0  0  0  0
 11 27  1  0  0  0  0
 11 28  1  0  0  0  0
 11 29  1  0  0  0  0
 12 30  1  0  0  0  0
 12 31  1  0  0  0  0
M  END
> <Mol Weight>
241,31

> <Formula>
C11H15NO3S

> <ID>
EN300-1719151

> <name>
Sulfonamides

> <LogP>
1,05

> <ROCS_ShapeQuery>
x0310_0A_x0719_0A_x1080_0A_x0739_0A_x0929_0A_x0526_0A_x0911_0A

> <ROCS_TanimotoCombo>
0.315 

> <ROCS_ShapeTanimoto>
0.189 

> <ROCS_ColorTanimoto>
0.126 

> <ROCS_RefTversky>
0.180 

> <ROCS_RefColorTversky>
0.139 

> <ROCS_RefTverskyCombo>
0.320 

> <ROCS_FitTversky>
1.347 

> <ROCS_FitColorTversky>
0.561 

> <ROCS_FitTverskyCombo>
1.909 

> <ROCS_ColorScore>
-4.054

> <ROCS_Overlap>
1442.840

> <ROCS_Rank>
243                 

$$$$
untitled-dbase-1757_72
  -OEChem-02092407103D

 26 26  0     1  0  0  0  0  0999 V2000
    8.6016   10.3663   24.3621 C   0  0  0  0  0  0  0  0  0  0  0  0
    9.4940   11.4771   22.4413 C   0  0  0  0  0  0  0  0  0  0  0  0
    8.0888   11.7025   24.8830 C   0  0  0  0  0  0  0  0  0  0  0  0
    9.0106   12.8263   22.9845 C   0  0  1  0  0  0  0  0  0  0  0  0
    4.7963   15.8536   22.1755 C   0  0  0  0  0  0  0  0  0  0  0  0
    7.7148   13.3183   22.3422 C   0  0  0  0  0  0  0  0  0  0  0  0
    8.6587   10.3636   22.8987 N   0  0  0  0  0  0  0  0  0  0  0  0
    6.1602   15.4357   21.8043 N   0  0  0  0  0  0  0  0  0  0  0  0
    6.4471   14.6034   24.2373 O   0  0  0  0  0  0  0  0  0  0  0  0
    8.3735   15.7354   23.0694 O   0  0  0  0  0  0  0  0  0  0  0  0
    8.9005   12.7793   24.4128 O   0  0  0  0  0  0  0  0  0  0  0  0
    7.2111   14.8598   23.0252 S   0  0  0  0  0  0  0  0  0  0  0  0
    9.6007   10.1614   24.7674 H   0  0  0  0  0  0  0  0  0  0  0  0
    7.9451    9.5509   24.6970 H   0  0  0  0  0  0  0  0  0  0  0  0
    9.4993   11.4839   21.3357 H   0  0  0  0  0  0  0  0  0  0  0  0
   10.5374   11.2931   22.7512 H   0  0  0  0  0  0  0  0  0  0  0  0
    7.0671   11.8756   24.5228 H   0  0  0  0  0  0  0  0  0  0  0  0
    8.0545   11.7239   25.9817 H   0  0  0  0  0  0  0  0  0  0  0  0
    9.8093   13.6076   22.7503 H   0  0  0  0  0  0  0  0  0  0  0  0
    4.4156   15.1981   22.9727 H   0  0  0  0  0  0  0  0  0  0  0  0
    4.8163   16.8933   22.5342 H   0  0  0  0  0  0  0  0  0  0  0  0
    4.1389   15.7816   21.2965 H   0  0  0  0  0  0  0  0  0  0  0  0
    6.9094   12.6040   22.5130 H   0  0  0  0  0  0  0  0  0  0  0  0
    7.8509   13.4620   21.2705 H   0  0  0  0  0  0  0  0  0  0  0  0
    9.0748    9.4893   22.5866 H   0  0  0  0  0  0  0  0  0  0  0  0
    6.5834   16.0059   21.0606 H   0  0  0  0  0  0  0  0  0  0  0  0
  1  3  1  0  0  0  0
  1  7  1  0  0  0  0
  2  4  1  0  0  0  0
  2  7  1  0  0  0  0
  3 11  1  0  0  0  0
  4  6  1  0  0  0  0
  4 11  1  0  0  0  0
  5  8  1  0  0  0  0
  6 12  1  0  0  0  0
  8 12  1  0  0  0  0
  9 12  2  0  0  0  0
 10 12  2  0  0  0  0
  1 13  1  0  0  0  0
  1 14  1  0  0  0  0
  2 15  1  0  0  0  0
  2 16  1  0  0  0  0
  3 17  1  0  0  0  0
  3 18  1  0  0  0  0
  4 19  1  0  0  0  0
  5 20  1  0  0  0  0
  5 21  1  0  0  0  0
  5 22  1  0  0  0  0
  6 23  1  0  0  0  0
  6 24  1  0  0  0  0
  7 25  1  0  0  0  0
  8 26  1  0  0  0  0
M  END
> <Mol Weight>
230,71

> <Formula>
C6H15ClN2O3S

> <ID>
EN300-321134

> <name>
Sulfonamides

> <LogP>
-1,68

> <ROCS_ShapeQuery>
x0310_0A_x0719_0A_x1080_0A_x0739_0A_x0929_0A_x0526_0A_x0911_0A

> <ROCS_TanimotoCombo>
0.315 

> <ROCS_ShapeTanimoto>
0.168 

> <ROCS_ColorTanimoto>
0.147 

> <ROCS_RefTversky>
0.159 

> <ROCS_RefColorTversky>
0.164 

> <ROCS_RefTverskyCombo>
0.323 

> <ROCS_FitTversky>
1.458 

> <ROCS_FitColorTversky>
0.585 

> <ROCS_FitTverskyCombo>
2.042 

> <ROCS_ColorScore>
-4.774

> <ROCS_Overlap>
1275.115

> <ROCS_Rank>
244                 

$$$$
untitled-dbase-2717_0
  -OEChem-02092407103D

 22 23  0     0  0  0  0  0  0999 V2000
    7.3667   12.0708   20.3851 C   0  0  0  0  0  0  0  0  0  0  0  0
    8.0136   11.0538   21.0867 C   0  0  0  0  0  0  0  0  0  0  0  0
    7.0811   13.2800   21.0148 C   0  0  0  0  0  0  0  0  0  0  0  0
    9.0294   10.2582   23.1788 C   0  0  0  0  0  0  0  0  0  0  0  0
    9.1072   11.5838   25.0527 C   0  0  0  0  0  0  0  0  0  0  0  0
    8.3804   11.2416   22.4296 C   0  0  0  0  0  0  0  0  0  0  0  0
    8.0931   12.4644   23.0707 C   0  0  0  0  0  0  0  0  0  0  0  0
    7.4412   13.4777   22.3490 C   0  0  0  0  0  0  0  0  0  0  0  0
    8.4669   12.6318   24.4091 C   0  0  0  0  0  0  0  0  0  0  0  0
    9.3985   10.4005   24.4718 N   0  0  0  0  0  0  0  0  0  0  0  0
    6.2549   15.7019   21.4829 N   0  0  0  0  0  0  0  0  0  0  0  0
    5.9537   14.9225   23.9216 O   0  0  0  0  0  0  0  0  0  0  0  0
    8.1854   15.8300   23.1840 O   0  0  0  0  0  0  0  0  0  0  0  0
    6.9740   15.0806   22.9001 S   0  0  0  0  0  0  0  0  0  0  0  0
    8.2337   14.1250   25.5696 Br  0  0  0  0  0  0  0  0  0  0  0  0
    7.0866   11.9196   19.3465 H   0  0  0  0  0  0  0  0  0  0  0  0
    8.2295   10.1161   20.5797 H   0  0  0  0  0  0  0  0  0  0  0  0
    6.5779   14.0559   20.4424 H   0  0  0  0  0  0  0  0  0  0  0  0
    9.2805    9.2938   22.7458 H   0  0  0  0  0  0  0  0  0  0  0  0
    9.4242   11.6431   26.0905 H   0  0  0  0  0  0  0  0  0  0  0  0
    5.2341   15.8169   21.4735 H   0  0  0  0  0  0  0  0  0  0  0  0
    6.7600   16.4348   20.9700 H   0  0  0  0  0  0  0  0  0  0  0  0
  1  2  1  0  0  0  0
  1  3  2  0  0  0  0
  2  6  2  0  0  0  0
  3  8  1  0  0  0  0
  4  6  1  0  0  0  0
  4 10  2  0  0  0  0
  5  9  2  0  0  0  0
  5 10  1  0  0  0  0
  6  7  1  0  0  0  0
  7  8  2  0  0  0  0
  7  9  1  0  0  0  0
  8 14  1  0  0  0  0
  9 15  1  0  0  0  0
 11 14  1  0  0  0  0
 12 14  2  0  0  0  0
 13 14  2  0  0  0  0
  1 16  1  0  0  0  0
  2 17  1  0  0  0  0
  3 18  1  0  0  0  0
  4 19  1  0  0  0  0
  5 20  1  0  0  0  0
 11 21  1  0  0  0  0
 11 22  1  0  0  0  0
M  END
> <Mol Weight>
287,13

> <Formula>
C9H7BrN2O2S

> <ID>
EN300-180757

> <name>
Sulfonamides

> <LogP>
1,12

> <ROCS_ShapeQuery>
x0310_0A_x0719_0A_x1080_0A_x0739_0A_x0929_0A_x0526_0A_x0911_0A

> <ROCS_TanimotoCombo>
0.314 

> <ROCS_ShapeTanimoto>
0.166 

> <ROCS_ColorTanimoto>
0.149 

> <ROCS_RefTversky>
0.160 

> <ROCS_RefColorTversky>
0.166 

> <ROCS_RefTverskyCombo>
0.326 

> <ROCS_FitTversky>
1.236 

> <ROCS_FitColorTversky>
0.592 

> <ROCS_FitTverskyCombo>
1.828 

> <ROCS_ColorScore>
-4.834

> <ROCS_Overlap>
1285.200

> <ROCS_Rank>
245                 

$$$$
untitled-dbase-2081_346
  -OEChem-02092407103D

 29 29  0     0  0  0  0  0  0999 V2000
    8.6706    9.8865   23.3521 C   0  0  0  0  0  0  0  0  0  0  0  0
    7.7288   10.5768   24.1150 C   0  0  0  0  0  0  0  0  0  0  0  0
    9.8009   10.5488   22.8730 C   0  0  0  0  0  0  0  0  0  0  0  0
    7.9173   11.9294   24.3988 C   0  0  0  0  0  0  0  0  0  0  0  0
    9.9893   11.9014   23.1568 C   0  0  0  0  0  0  0  0  0  0  0  0
    9.0475   12.5917   23.9197 C   0  0  0  0  0  0  0  0  0  0  0  0
   10.9311   13.4806   21.4401 C   0  0  0  0  0  0  0  0  0  0  0  0
   10.3948   15.7088   20.8496 C   0  0  0  0  0  0  0  0  0  0  0  0
   11.2076   12.5896   22.6343 C   0  0  0  0  0  0  0  0  0  0  0  0
    9.2274   14.0403   24.2359 C   0  0  0  0  0  0  0  0  0  0  0  0
    7.7139   14.0916   22.0547 N   0  0  0  0  0  0  0  0  0  0  0  0
   10.9360   13.1115   20.2735 O   0  0  0  0  0  0  0  0  0  0  0  0
    6.6897   14.6527   24.3466 O   0  0  0  0  0  0  0  0  0  0  0  0
    8.2941   16.2823   23.2716 O   0  0  0  0  0  0  0  0  0  0  0  0
   10.6765   14.7510   21.8752 O   0  0  0  0  0  0  0  0  0  0  0  0
    7.8675   14.9188   23.5379 S   0  0  0  0  0  0  0  0  0  0  0  0
    8.5231    8.8337   23.1307 H   0  0  0  0  0  0  0  0  0  0  0  0
    6.8487   10.0606   24.4875 H   0  0  0  0  0  0  0  0  0  0  0  0
   10.5280   10.0022   22.2780 H   0  0  0  0  0  0  0  0  0  0  0  0
    7.1780   12.4585   24.9945 H   0  0  0  0  0  0  0  0  0  0  0  0
   10.2071   16.6850   21.3033 H   0  0  0  0  0  0  0  0  0  0  0  0
    9.5204   15.3862   20.2788 H   0  0  0  0  0  0  0  0  0  0  0  0
   11.2572   15.7793   20.1825 H   0  0  0  0  0  0  0  0  0  0  0  0
   11.6596   13.2093   23.4243 H   0  0  0  0  0  0  0  0  0  0  0  0
   11.9630   11.8459   22.3369 H   0  0  0  0  0  0  0  0  0  0  0  0
   10.1491   14.4464   23.8060 H   0  0  0  0  0  0  0  0  0  0  0  0
    9.2353   14.2306   25.3144 H   0  0  0  0  0  0  0  0  0  0  0  0
    8.4432   14.2406   21.3465 H   0  0  0  0  0  0  0  0  0  0  0  0
    7.3504   13.1309   22.0788 H   0  0  0  0  0  0  0  0  0  0  0  0
  1  2  1  0  0  0  0
  1  3  2  0  0  0  0
  2  4  2  0  0  0  0
  3  5  1  0  0  0  0
  4  6  1  0  0  0  0
  5  6  2  0  0  0  0
  5  9  1  0  0  0  0
  6 10  1  0  0  0  0
  7  9  1  0  0  0  0
  7 12  2  0  0  0  0
  7 15  1  0  0  0  0
  8 15  1  0  0  0  0
 10 16  1  0  0  0  0
 11 16  1  0  0  0  0
 13 16  2  0  0  0  0
 14 16  2  0  0  0  0
  1 17  1  0  0  0  0
  2 18  1  0  0  0  0
  3 19  1  0  0  0  0
  4 20  1  0  0  0  0
  8 21  1  0  0  0  0
  8 22  1  0  0  0  0
  8 23  1  0  0  0  0
  9 24  1  0  0  0  0
  9 25  1  0  0  0  0
 10 26  1  0  0  0  0
 10 27  1  0  0  0  0
 11 28  1  0  0  0  0
 11 29  1  0  0  0  0
M  END
> <Mol Weight>
243,28

> <Formula>
C10H13NO4S

> <ID>
EN300-1120784

> <name>
Sulfonamides

> <LogP>
0,13

> <ROCS_ShapeQuery>
x0310_0A_x0719_0A_x1080_0A_x0739_0A_x0929_0A_x0526_0A_x0911_0A

> <ROCS_TanimotoCombo>
0.314 

> <ROCS_ShapeTanimoto>
0.179 

> <ROCS_ColorTanimoto>
0.136 

> <ROCS_RefTversky>
0.172 

> <ROCS_RefColorTversky>
0.145 

> <ROCS_RefTverskyCombo>
0.317 

> <ROCS_FitTversky>
1.301 

> <ROCS_FitColorTversky>
0.672 

> <ROCS_FitTverskyCombo>
1.973 

> <ROCS_ColorScore>
-4.211

> <ROCS_Overlap>
1376.183

> <ROCS_Rank>
246                 

$$$$
untitled-dbase-1767_136
  -OEChem-02092407103D

 24 24  0     0  0  0  0  0  0999 V2000
    7.6175   11.4554   23.6233 C   0  0  0  0  0  0  0  0  0  0  0  0
    9.8350   11.1860   23.3401 C   0  0  0  0  0  0  0  0  0  0  0  0
    8.6627   10.5005   23.5704 C   0  0  0  0  0  0  0  0  0  0  0  0
    8.1830   12.6955   23.4235 C   0  0  0  0  0  0  0  0  0  0  0  0
    7.5185   13.9625   23.3921 C   0  0  0  0  0  0  0  0  0  0  0  0
    7.5453   14.8696   22.1802 C   0  0  0  0  0  0  0  0  0  0  0  0
   10.4987   13.5679   23.0143 C   0  0  0  0  0  0  0  0  0  0  0  0
    9.5312   12.5195   23.2522 N   0  0  0  0  0  0  0  0  0  0  0  0
    6.2979   15.1198   21.6721 N   0  0  0  0  0  0  0  0  0  0  0  0
    8.2362    8.2901   22.1430 N   0  0  0  0  0  0  0  0  0  0  0  0
    6.8521   14.4418   24.3279 O   0  0  0  0  0  0  0  0  0  0  0  0
    8.6198   15.2838   21.7782 O   0  0  0  0  0  0  0  0  0  0  0  0
    9.7741    8.2361   24.2113 O   0  0  0  0  0  0  0  0  0  0  0  0
    7.2894    8.5057   24.5292 O   0  0  0  0  0  0  0  0  0  0  0  0
    8.5014    8.8143   23.7566 S   0  0  0  0  0  0  0  0  0  0  0  0
    6.5665   11.2599   23.7895 H   0  0  0  0  0  0  0  0  0  0  0  0
   10.8541   10.8389   23.2315 H   0  0  0  0  0  0  0  0  0  0  0  0
   10.5809   13.7122   21.9338 H   0  0  0  0  0  0  0  0  0  0  0  0
   10.1637   14.4893   23.4987 H   0  0  0  0  0  0  0  0  0  0  0  0
   11.4634   13.2720   23.4360 H   0  0  0  0  0  0  0  0  0  0  0  0
    6.2123   15.7187   20.8577 H   0  0  0  0  0  0  0  0  0  0  0  0
    5.4562   14.7271   22.0819 H   0  0  0  0  0  0  0  0  0  0  0  0
    7.3293    8.4943   21.7057 H   0  0  0  0  0  0  0  0  0  0  0  0
    9.0267    8.3079   21.4872 H   0  0  0  0  0  0  0  0  0  0  0  0
  1  3  1  0  0  0  0
  1  4  2  0  0  0  0
  2  3  2  0  0  0  0
  2  8  1  0  0  0  0
  3 15  1  0  0  0  0
  4  5  1  0  0  0  0
  4  8  1  0  0  0  0
  5  6  1  0  0  0  0
  5 11  2  0  0  0  0
  6  9  1  0  0  0  0
  6 12  2  0  0  0  0
  7  8  1  0  0  0  0
 10 15  1  0  0  0  0
 13 15  2  0  0  0  0
 14 15  2  0  0  0  0
  1 16  1  0  0  0  0
  2 17  1  0  0  0  0
  7 18  1  0  0  0  0
  7 19  1  0  0  0  0
  7 20  1  0  0  0  0
  9 21  1  0  0  0  0
  9 22  1  0  0  0  0
 10 23  1  0  0  0  0
 10 24  1  0  0  0  0
M  END
> <Mol Weight>
231,23

> <Formula>
C7H9N3O4S

> <ID>
EN300-211989

> <name>
Sulfonamides

> <LogP>
-1,49

> <ROCS_ShapeQuery>
x0310_0A_x0719_0A_x1080_0A_x0739_0A_x0929_0A_x0526_0A_x0911_0A

> <ROCS_TanimotoCombo>
0.314 

> <ROCS_ShapeTanimoto>
0.171 

> <ROCS_ColorTanimoto>
0.144 

> <ROCS_RefTversky>
0.165 

> <ROCS_RefColorTversky>
0.161 

> <ROCS_RefTverskyCombo>
0.325 

> <ROCS_FitTversky>
1.276 

> <ROCS_FitColorTversky>
0.573 

> <ROCS_FitTverskyCombo>
1.850 

> <ROCS_ColorScore>
-4.683

> <ROCS_Overlap>
1317.926

> <ROCS_Rank>
247                 

$$$$
untitled-dbase-2097_151
  -OEChem-02092407103D

 28 28  0     0  0  0  0  0  0999 V2000
    9.2460   11.7272   22.7578 C   0  0  0  0  0  0  0  0  0  0  0  0
    8.9912   12.9925   22.2406 C   0  0  0  0  0  0  0  0  0  0  0  0
    8.0853   12.3588   24.7353 C   0  0  0  0  0  0  0  0  0  0  0  0
    8.7878   11.3964   24.0282 C   0  0  0  0  0  0  0  0  0  0  0  0
    8.2794   13.8834   23.0277 C   0  0  0  0  0  0  0  0  0  0  0  0
    9.0388   10.0832   24.5956 C   0  0  0  0  0  0  0  0  0  0  0  0
   11.3970    7.9981   24.9220 C   0  0  0  0  0  0  0  0  0  0  0  0
    5.3206   15.0749   23.3933 C   0  0  0  0  0  0  0  0  0  0  0  0
   10.5751    8.8064   25.9031 C   0  0  0  0  0  0  0  0  0  0  0  0
    7.8184   13.5982   24.2661 N   0  0  0  0  0  0  0  0  0  0  0  0
    6.2034   15.4241   22.2711 N   0  0  0  0  0  0  0  0  0  0  0  0
    8.2867    9.1068   24.4660 O   0  0  0  0  0  0  0  0  0  0  0  0
    8.1641   16.4248   23.6093 O   0  0  0  0  0  0  0  0  0  0  0  0
    8.5361   15.7266   21.2222 O   0  0  0  0  0  0  0  0  0  0  0  0
   10.2151   10.0516   25.2952 O   0  0  0  0  0  0  0  0  0  0  0  0
    7.8958   15.4970   22.5138 S   0  0  0  0  0  0  0  0  0  0  0  0
    9.8023   11.0075   22.1634 H   0  0  0  0  0  0  0  0  0  0  0  0
    9.3418   13.2647   21.2510 H   0  0  0  0  0  0  0  0  0  0  0  0
    7.7031   12.1595   25.7319 H   0  0  0  0  0  0  0  0  0  0  0  0
   10.8259    7.7903   24.0128 H   0  0  0  0  0  0  0  0  0  0  0  0
   12.3116    8.5351   24.6500 H   0  0  0  0  0  0  0  0  0  0  0  0
   11.7070    7.0478   25.3693 H   0  0  0  0  0  0  0  0  0  0  0  0
    5.8038   15.3539   24.3412 H   0  0  0  0  0  0  0  0  0  0  0  0
    4.3689   15.6173   23.2934 H   0  0  0  0  0  0  0  0  0  0  0  0
    5.1280   13.9919   23.3849 H   0  0  0  0  0  0  0  0  0  0  0  0
   11.1519    9.0108   26.8101 H   0  0  0  0  0  0  0  0  0  0  0  0
    9.6613    8.2688   26.1731 H   0  0  0  0  0  0  0  0  0  0  0  0
    5.8475   15.2050   21.3326 H   0  0  0  0  0  0  0  0  0  0  0  0
  1  2  2  0  0  0  0
  1  4  1  0  0  0  0
  2  5  1  0  0  0  0
  3  4  2  0  0  0  0
  3 10  1  0  0  0  0
  4  6  1  0  0  0  0
  5 10  2  0  0  0  0
  5 16  1  0  0  0  0
  6 12  2  0  0  0  0
  6 15  1  0  0  0  0
  7  9  1  0  0  0  0
  8 11  1  0  0  0  0
  9 15  1  0  0  0  0
 11 16  1  0  0  0  0
 13 16  2  0  0  0  0
 14 16  2  0  0  0  0
  1 17  1  0  0  0  0
  2 18  1  0  0  0  0
  3 19  1  0  0  0  0
  7 20  1  0  0  0  0
  7 21  1  0  0  0  0
  7 22  1  0  0  0  0
  8 23  1  0  0  0  0
  8 24  1  0  0  0  0
  8 25  1  0  0  0  0
  9 26  1  0  0  0  0
  9 27  1  0  0  0  0
 11 28  1  0  0  0  0
M  END
> <Mol Weight>
244,27

> <Formula>
C9H12N2O4S

> <ID>
EN300-139812

> <name>
Sulfonamides

> <LogP>
0,54

> <ROCS_ShapeQuery>
x0310_0A_x0719_0A_x1080_0A_x0739_0A_x0929_0A_x0526_0A_x0911_0A

> <ROCS_TanimotoCombo>
0.314 

> <ROCS_ShapeTanimoto>
0.168 

> <ROCS_ColorTanimoto>
0.147 

> <ROCS_RefTversky>
0.163 

> <ROCS_RefColorTversky>
0.160 

> <ROCS_RefTverskyCombo>
0.322 

> <ROCS_FitTversky>
1.227 

> <ROCS_FitColorTversky>
0.643 

> <ROCS_FitTverskyCombo>
1.870 

> <ROCS_ColorScore>
-4.637

> <ROCS_Overlap>
1303.072

> <ROCS_Rank>
248                 

$$$$
untitled-dbase-1984_8
  -OEChem-02092407103D

 24 24  0     0  0  0  0  0  0999 V2000
    7.5846   12.7212   23.5930 C   0  0  0  0  0  0  0  0  0  0  0  0
    4.3512   11.1535   18.8721 C   0  0  0  0  0  0  0  0  0  0  0  0
    3.5957   12.2421   20.8922 C   0  0  0  0  0  0  0  0  0  0  0  0
    3.1819   11.5480   18.2221 C   0  0  0  0  0  0  0  0  0  0  0  0
    2.4263   12.6367   20.2422 C   0  0  0  0  0  0  0  0  0  0  0  0
    4.5582   11.5005   20.2072 C   0  0  0  0  0  0  0  0  0  0  0  0
    2.2194   12.2896   18.9072 C   0  0  0  0  0  0  0  0  0  0  0  0
    5.7757   11.0860   20.8859 C   0  0  0  0  0  0  0  0  0  0  0  0
    7.3278   11.6806   22.5975 C   0  0  0  0  0  0  0  0  0  0  0  0
    7.7891   13.5462   24.3829 N   0  0  0  0  0  0  0  0  0  0  0  0
   -0.2660   11.4549   18.4269 N   0  0  0  0  0  0  0  0  0  0  0  0
    6.4087   10.0552   20.6213 O   0  0  0  0  0  0  0  0  0  0  0  0
    0.2298   13.9616   18.7678 O   0  0  0  0  0  0  0  0  0  0  0  0
    1.0147   12.8250   16.6607 O   0  0  0  0  0  0  0  0  0  0  0  0
    6.1395   11.9788   21.8567 O   0  0  0  0  0  0  0  0  0  0  0  0
    0.7556   12.7832   18.0931 S   0  0  0  0  0  0  0  0  0  0  0  0
    5.0937   10.5742   18.3291 H   0  0  0  0  0  0  0  0  0  0  0  0
    3.7461   12.5174   21.9330 H   0  0  0  0  0  0  0  0  0  0  0  0
    3.0307   11.2732   17.1818 H   0  0  0  0  0  0  0  0  0  0  0  0
    1.6826   13.2140   20.7847 H   0  0  0  0  0  0  0  0  0  0  0  0
    8.1577   11.6136   21.8880 H   0  0  0  0  0  0  0  0  0  0  0  0
    7.2064   10.7006   23.0688 H   0  0  0  0  0  0  0  0  0  0  0  0
   -1.0350   11.5941   19.0937 H   0  0  0  0  0  0  0  0  0  0  0  0
   -0.4964   10.8180   17.6545 H   0  0  0  0  0  0  0  0  0  0  0  0
  1  9  1  0  0  0  0
  1 10  3  0  0  0  0
  2  4  2  0  0  0  0
  2  6  1  0  0  0  0
  3  5  1  0  0  0  0
  3  6  2  0  0  0  0
  4  7  1  0  0  0  0
  5  7  2  0  0  0  0
  6  8  1  0  0  0  0
  7 16  1  0  0  0  0
  8 12  2  0  0  0  0
  8 15  1  0  0  0  0
  9 15  1  0  0  0  0
 11 16  1  0  0  0  0
 13 16  2  0  0  0  0
 14 16  2  0  0  0  0
  2 17  1  0  0  0  0
  3 18  1  0  0  0  0
  4 19  1  0  0  0  0
  5 20  1  0  0  0  0
  9 21  1  0  0  0  0
  9 22  1  0  0  0  0
 11 23  1  0  0  0  0
 11 24  1  0  0  0  0
M  END
> <Mol Weight>
240,23

> <Formula>
C9H8N2O4S

> <ID>
EN300-27085

> <name>
Sulfonamides

> <LogP>
0,12

> <ROCS_ShapeQuery>
x0310_0A_x0719_0A_x1080_0A_x0739_0A_x0929_0A_x0526_0A_x0911_0A

> <ROCS_TanimotoCombo>
0.314 

> <ROCS_ShapeTanimoto>
0.185 

> <ROCS_ColorTanimoto>
0.129 

> <ROCS_RefTversky>
0.177 

> <ROCS_RefColorTversky>
0.142 

> <ROCS_RefTverskyCombo>
0.319 

> <ROCS_FitTversky>
1.333 

> <ROCS_FitColorTversky>
0.573 

> <ROCS_FitTverskyCombo>
1.906 

> <ROCS_ColorScore>
-4.138

> <ROCS_Overlap>
1418.708

> <ROCS_Rank>
249                 

$$$$
untitled-dbase-2573_140
  -OEChem-02092407103D

 33 33  0     0  0  0  0  0  0999 V2000
    4.0220   10.7914   18.9007 C   0  0  0  0  0  0  0  0  0  0  0  0
    4.7589   11.5012   19.8421 C   0  0  0  0  0  0  0  0  0  0  0  0
    2.6678   11.0617   18.7383 C   0  0  0  0  0  0  0  0  0  0  0  0
    4.1000   12.4636   20.5901 C   0  0  0  0  0  0  0  0  0  0  0  0
    2.1024   12.0437   19.5359 C   0  0  0  0  0  0  0  0  0  0  0  0
    6.2010   13.4977   21.4997 C   0  0  0  0  0  0  0  0  0  0  0  0
    8.8242   14.5188   22.0050 C   0  0  0  0  0  0  0  0  0  0  0  0
    8.0170   14.9170   24.3500 C   0  0  0  0  0  0  0  0  0  0  0  0
    8.1029   12.5788   23.4370 C   0  0  0  0  0  0  0  0  0  0  0  0
    7.8681   14.0508   23.1011 C   0  0  0  0  0  0  0  0  0  0  0  0
    2.7861   12.7542   20.4608 N   0  0  0  0  0  0  0  0  0  0  0  0
   -0.1279   11.4372   18.2082 N   0  0  0  0  0  0  0  0  0  0  0  0
    4.8572   13.1808   21.5442 N   0  0  0  0  0  0  0  0  0  0  0  0
    7.0083   13.2197   20.6214 O   0  0  0  0  0  0  0  0  0  0  0  0
   -0.2286   12.1263   20.6902 O   0  0  0  0  0  0  0  0  0  0  0  0
    0.3306   13.8610   18.9508 O   0  0  0  0  0  0  0  0  0  0  0  0
    6.5283   14.2016   22.6302 O   0  0  0  0  0  0  0  0  0  0  0  0
    0.4272   12.4887   19.4379 S   0  0  0  0  0  0  0  0  0  0  0  0
    4.5031   10.0296   18.2949 H   0  0  0  0  0  0  0  0  0  0  0  0
    5.8164   11.2965   19.9750 H   0  0  0  0  0  0  0  0  0  0  0  0
    2.0806   10.5169   18.0072 H   0  0  0  0  0  0  0  0  0  0  0  0
    8.7204   13.8996   21.1068 H   0  0  0  0  0  0  0  0  0  0  0  0
    8.6429   15.5630   21.7303 H   0  0  0  0  0  0  0  0  0  0  0  0
    9.8670   14.4221   22.3282 H   0  0  0  0  0  0  0  0  0  0  0  0
    7.3328   14.5848   25.1391 H   0  0  0  0  0  0  0  0  0  0  0  0
    7.7571   15.9598   24.1350 H   0  0  0  0  0  0  0  0  0  0  0  0
    9.0387   14.8881   24.7422 H   0  0  0  0  0  0  0  0  0  0  0  0
    7.4172   12.2429   24.2232 H   0  0  0  0  0  0  0  0  0  0  0  0
    7.9640   11.9379   22.5603 H   0  0  0  0  0  0  0  0  0  0  0  0
    9.1166   12.4244   23.8241 H   0  0  0  0  0  0  0  0  0  0  0  0
    0.1683   11.6237   17.2424 H   0  0  0  0  0  0  0  0  0  0  0  0
   -0.2160   10.4379   18.4297 H   0  0  0  0  0  0  0  0  0  0  0  0
    4.3500   13.5033   22.3648 H   0  0  0  0  0  0  0  0  0  0  0  0
  1  2  2  0  0  0  0
  1  3  1  0  0  0  0
  2  4  1  0  0  0  0
  3  5  2  0  0  0  0
  4 11  2  0  0  0  0
  4 13  1  0  0  0  0
  5 11  1  0  0  0  0
  5 18  1  0  0  0  0
  6 13  1  0  0  0  0
  6 14  2  0  0  0  0
  6 17  1  0  0  0  0
  7 10  1  0  0  0  0
  8 10  1  0  0  0  0
  9 10  1  0  0  0  0
 10 17  1  0  0  0  0
 12 18  1  0  0  0  0
 15 18  2  0  0  0  0
 16 18  2  0  0  0  0
  1 19  1  0  0  0  0
  2 20  1  0  0  0  0
  3 21  1  0  0  0  0
  7 22  1  0  0  0  0
  7 23  1  0  0  0  0
  7 24  1  0  0  0  0
  8 25  1  0  0  0  0
  8 26  1  0  0  0  0
  8 27  1  0  0  0  0
  9 28  1  0  0  0  0
  9 29  1  0  0  0  0
  9 30  1  0  0  0  0
 12 31  1  0  0  0  0
 12 32  1  0  0  0  0
 13 33  1  0  0  0  0
M  END
> <Mol Weight>
273,31

> <Formula>
C10H15N3O4S

> <ID>
EN300-37098688

> <name>
Sulfonamides

> <LogP>
1,46

> <ROCS_ShapeQuery>
x0310_0A_x0719_0A_x1080_0A_x0739_0A_x0929_0A_x0526_0A_x0911_0A

> <ROCS_TanimotoCombo>
0.314 

> <ROCS_ShapeTanimoto>
0.218 

> <ROCS_ColorTanimoto>
0.096 

> <ROCS_RefTversky>
0.204 

> <ROCS_RefColorTversky>
0.115 

> <ROCS_RefTverskyCombo>
0.320 

> <ROCS_FitTversky>
1.418 

> <ROCS_FitColorTversky>
0.369 

> <ROCS_FitTverskyCombo>
1.787 

> <ROCS_ColorScore>
-3.366

> <ROCS_Overlap>
1638.814

> <ROCS_Rank>
250                 

$$$$
untitled-dbase-1680_406
  -OEChem-02092407103D

 31 31  0     0  0  0  0  0  0999 V2000
    9.4867   10.2818   22.8812 C   0  0  0  0  0  0  0  0  0  0  0  0
    8.6359    9.8611   23.9033 C   0  0  0  0  0  0  0  0  0  0  0  0
    9.6726   11.6439   22.6449 C   0  0  0  0  0  0  0  0  0  0  0  0
    8.1569   12.1645   24.4528 C   0  0  0  0  0  0  0  0  0  0  0  0
    7.9710   10.8024   24.6891 C   0  0  0  0  0  0  0  0  0  0  0  0
    9.0077   12.5853   23.4307 C   0  0  0  0  0  0  0  0  0  0  0  0
    7.3573   11.8827   27.6172 C   0  0  0  0  0  0  0  0  0  0  0  0
    5.2142   10.6343   27.1765 C   0  0  0  0  0  0  0  0  0  0  0  0
    7.0906   14.7024   21.6924 C   0  0  0  0  0  0  0  0  0  0  0  0
    6.4076   11.3460   26.5562 C   0  0  0  0  0  0  0  0  0  0  0  0
    7.1386   10.3907   25.6884 N   0  0  0  0  0  0  0  0  0  0  0  0
    9.1996   13.9795   23.1897 N   0  0  0  0  0  0  0  0  0  0  0  0
    6.9185   14.4891   24.2794 O   0  0  0  0  0  0  0  0  0  0  0  0
    8.2330   16.4089   23.3143 O   0  0  0  0  0  0  0  0  0  0  0  0
    7.8284   15.0175   23.2801 S   0  0  0  0  0  0  0  0  0  0  0  0
   10.0050    9.5489   22.2697 H   0  0  0  0  0  0  0  0  0  0  0  0
    8.4979    8.7971   24.0783 H   0  0  0  0  0  0  0  0  0  0  0  0
   10.3382   11.9612   21.8461 H   0  0  0  0  0  0  0  0  0  0  0  0
    7.6386   12.8993   25.0651 H   0  0  0  0  0  0  0  0  0  0  0  0
    7.7237   11.0739   28.2577 H   0  0  0  0  0  0  0  0  0  0  0  0
    8.2233   12.3789   27.1647 H   0  0  0  0  0  0  0  0  0  0  0  0
    6.8529   12.6177   28.2541 H   0  0  0  0  0  0  0  0  0  0  0  0
    5.5438    9.8035   27.8100 H   0  0  0  0  0  0  0  0  0  0  0  0
    4.5558   10.2288   26.4012 H   0  0  0  0  0  0  0  0  0  0  0  0
    4.6251   11.3127   27.8039 H   0  0  0  0  0  0  0  0  0  0  0  0
    6.1872   15.3083   21.6062 H   0  0  0  0  0  0  0  0  0  0  0  0
    7.8095   14.9753   20.9184 H   0  0  0  0  0  0  0  0  0  0  0  0
    6.8464   13.6409   21.6309 H   0  0  0  0  0  0  0  0  0  0  0  0
    6.0542   12.1712   25.9283 H   0  0  0  0  0  0  0  0  0  0  0  0
    6.9886    9.4244   25.8773 H   0  0  0  0  0  0  0  0  0  0  0  0
    9.8484   14.1904   22.4135 H   0  0  0  0  0  0  0  0  0  0  0  0
  1  2  2  0  0  0  0
  1  3  1  0  0  0  0
  2  5  1  0  0  0  0
  3  6  2  0  0  0  0
  4  5  2  0  0  0  0
  4  6  1  0  0  0  0
  5 11  1  0  0  0  0
  6 12  1  0  0  0  0
  7 10  1  0  0  0  0
  8 10  1  0  0  0  0
  9 15  1  0  0  0  0
 10 11  1  0  0  0  0
 12 15  1  0  0  0  0
 13 15  2  0  0  0  0
 14 15  2  0  0  0  0
  1 16  1  0  0  0  0
  2 17  1  0  0  0  0
  3 18  1  0  0  0  0
  4 19  1  0  0  0  0
  7 20  1  0  0  0  0
  7 21  1  0  0  0  0
  7 22  1  0  0  0  0
  8 23  1  0  0  0  0
  8 24  1  0  0  0  0
  8 25  1  0  0  0  0
  9 26  1  0  0  0  0
  9 27  1  0  0  0  0
  9 28  1  0  0  0  0
 10 29  1  0  0  0  0
 11 30  1  0  0  0  0
 12 31  1  0  0  0  0
M  END
> <Mol Weight>
228,31

> <Formula>
C10H16N2O2S

> <ID>
EN300-65108

> <name>
Sulfonamides

> <LogP>
0,59

> <ROCS_ShapeQuery>
x0310_0A_x0719_0A_x1080_0A_x0739_0A_x0929_0A_x0526_0A_x0911_0A

> <ROCS_TanimotoCombo>
0.314 

> <ROCS_ShapeTanimoto>
0.178 

> <ROCS_ColorTanimoto>
0.136 

> <ROCS_RefTversky>
0.170 

> <ROCS_RefColorTversky>
0.149 

> <ROCS_RefTverskyCombo>
0.319 

> <ROCS_FitTversky>
1.353 

> <ROCS_FitColorTversky>
0.600 

> <ROCS_FitTverskyCombo>
1.954 

> <ROCS_ColorScore>
-4.332

> <ROCS_Overlap>
1364.702

> <ROCS_Rank>
251                 

$$$$
untitled-dbase-1686_49
  -OEChem-02092407103D

 28 28  0     1  0  0  0  0  0999 V2000
    9.8193   11.7189   22.8179 C   0  0  0  0  0  0  0  0  0  0  0  0
    8.9898   10.4406   22.8423 C   0  0  0  0  0  0  0  0  0  0  0  0
    8.2782   11.9728   24.6241 C   0  0  0  0  0  0  0  0  0  0  0  0
    8.9319   12.7642   23.4887 C   0  0  2  0  0  0  0  0  0  0  0  0
    8.1270   10.5372   24.1055 C   0  0  1  0  0  0  0  0  0  0  0  0
    5.8217   16.7341   21.7076 C   0  0  0  0  0  0  0  0  0  0  0  0
    7.9042   13.3607   22.5294 C   0  0  0  0  0  0  0  0  0  0  0  0
    6.7506   10.2059   23.8402 N   0  0  0  0  0  0  0  0  0  0  0  0
    6.1873   15.3175   21.8871 N   0  0  0  0  0  0  0  0  0  0  0  0
    6.5505   14.6508   24.3606 O   0  0  0  0  0  0  0  0  0  0  0  0
    8.3772   15.8592   23.1118 O   0  0  0  0  0  0  0  0  0  0  0  0
    7.2856   14.8964   23.1289 S   0  0  0  0  0  0  0  0  0  0  0  0
   10.7783   11.5926   23.3452 H   0  0  0  0  0  0  0  0  0  0  0  0
   10.0563   12.0033   21.7784 H   0  0  0  0  0  0  0  0  0  0  0  0
    8.4033   10.3084   21.9196 H   0  0  0  0  0  0  0  0  0  0  0  0
    9.6571    9.5660   22.9197 H   0  0  0  0  0  0  0  0  0  0  0  0
    8.9156   11.9935   25.5159 H   0  0  0  0  0  0  0  0  0  0  0  0
    7.3159   12.4069   24.9221 H   0  0  0  0  0  0  0  0  0  0  0  0
    9.5427   13.5494   23.9016 H   0  0  0  0  0  0  0  0  0  0  0  0
    8.5081    9.8159   24.8671 H   0  0  0  0  0  0  0  0  0  0  0  0
    6.6965   17.3681   21.9144 H   0  0  0  0  0  0  0  0  0  0  0  0
    5.4867   16.8979   20.6727 H   0  0  0  0  0  0  0  0  0  0  0  0
    5.0087   16.9936   22.4016 H   0  0  0  0  0  0  0  0  0  0  0  0
    7.0528   12.6887   22.4119 H   0  0  0  0  0  0  0  0  0  0  0  0
    8.3532   13.5476   21.5530 H   0  0  0  0  0  0  0  0  0  0  0  0
    6.7189    9.2761   23.4975 H   0  0  0  0  0  0  0  0  0  0  0  0
    6.2464   10.2866   24.6900 H   0  0  0  0  0  0  0  0  0  0  0  0
    5.4154   14.6617   21.7099 H   0  0  0  0  0  0  0  0  0  0  0  0
  1  2  1  0  0  0  0
  1  4  1  0  0  0  0
  2  5  1  0  0  0  0
  3  4  1  0  0  0  0
  3  5  1  0  0  0  0
  4  7  1  6  0  0  0
  5  8  1  6  0  0  0
  6  9  1  0  0  0  0
  7 12  1  0  0  0  0
  9 12  1  0  0  0  0
 10 12  2  0  0  0  0
 11 12  2  0  0  0  0
  1 13  1  0  0  0  0
  1 14  1  0  0  0  0
  2 15  1  0  0  0  0
  2 16  1  0  0  0  0
  3 17  1  0  0  0  0
  3 18  1  0  0  0  0
  4 19  1  0  0  0  0
  5 20  1  0  0  0  0
  6 21  1  0  0  0  0
  6 22  1  0  0  0  0
  6 23  1  0  0  0  0
  7 24  1  0  0  0  0
  7 25  1  0  0  0  0
  8 26  1  0  0  0  0
  8 27  1  0  0  0  0
  9 28  1  0  0  0  0
M  END
> <Mol Weight>
228,74

> <Formula>
C7H17ClN2O2S

> <ID>
EN300-39675907

> <name>
Sulfonamides

> <LogP>
-1,20

> <ROCS_ShapeQuery>
x0310_0A_x0719_0A_x1080_0A_x0739_0A_x0929_0A_x0526_0A_x0911_0A

> <ROCS_TanimotoCombo>
0.314 

> <ROCS_ShapeTanimoto>
0.166 

> <ROCS_ColorTanimoto>
0.147 

> <ROCS_RefTversky>
0.158 

> <ROCS_RefColorTversky>
0.160 

> <ROCS_RefTverskyCombo>
0.318 

> <ROCS_FitTversky>
1.455 

> <ROCS_FitColorTversky>
0.646 

> <ROCS_FitTverskyCombo>
2.101 

> <ROCS_ColorScore>
-4.662

> <ROCS_Overlap>
1263.878

> <ROCS_Rank>
252                 

$$$$
untitled-dbase-1928_20
  -OEChem-02092407103D

 26 27  0     0  0  0  0  0  0999 V2000
    6.7332   12.0550   21.0632 C   0  0  0  0  0  0  0  0  0  0  0  0
    5.3986   13.8731   21.9296 C   0  0  0  0  0  0  0  0  0  0  0  0
    5.7902   11.8420   20.0577 C   0  0  0  0  0  0  0  0  0  0  0  0
    4.4557   13.6601   20.9241 C   0  0  0  0  0  0  0  0  0  0  0  0
    9.7298   10.6978   23.8349 C   0  0  0  0  0  0  0  0  0  0  0  0
    7.6540   10.9030   23.9126 C   0  0  0  0  0  0  0  0  0  0  0  0
    6.5374   13.0705   21.9992 C   0  0  0  0  0  0  0  0  0  0  0  0
    4.6515   12.6445   19.9881 C   0  0  0  0  0  0  0  0  0  0  0  0
    7.5450   13.2980   23.0749 C   0  0  0  0  0  0  0  0  0  0  0  0
    8.5911   10.0171   24.1584 N   0  0  0  0  0  0  0  0  0  0  0  0
    9.5562   11.9492   23.4044 N   0  0  0  0  0  0  0  0  0  0  0  0
    8.2200   12.0553   23.4637 N   0  0  0  0  0  0  0  0  0  0  0  0
    2.4334   11.2543   19.4861 N   0  0  0  0  0  0  0  0  0  0  0  0
    2.7428   13.6213   18.5130 O   0  0  0  0  0  0  0  0  0  0  0  0
    4.1320   11.7247   17.6072 O   0  0  0  0  0  0  0  0  0  0  0  0
    3.4722   12.3795   18.7283 S   0  0  0  0  0  0  0  0  0  0  0  0
    7.6171   11.4245   21.1097 H   0  0  0  0  0  0  0  0  0  0  0  0
    5.2375   14.6664   22.6548 H   0  0  0  0  0  0  0  0  0  0  0  0
    5.9522   11.0477   19.3338 H   0  0  0  0  0  0  0  0  0  0  0  0
    3.5719   14.2909   20.8794 H   0  0  0  0  0  0  0  0  0  0  0  0
   10.7172   10.2681   23.9135 H   0  0  0  0  0  0  0  0  0  0  0  0
    6.5888   10.7669   24.0352 H   0  0  0  0  0  0  0  0  0  0  0  0
    8.3210   14.0156   22.7639 H   0  0  0  0  0  0  0  0  0  0  0  0
    7.0872   13.7257   23.9812 H   0  0  0  0  0  0  0  0  0  0  0  0
    1.5013   11.5767   19.7737 H   0  0  0  0  0  0  0  0  0  0  0  0
    2.4526   10.2819   19.1554 H   0  0  0  0  0  0  0  0  0  0  0  0
  1  3  2  0  0  0  0
  1  7  1  0  0  0  0
  2  4  1  0  0  0  0
  2  7  2  0  0  0  0
  3  8  1  0  0  0  0
  4  8  2  0  0  0  0
  5 10  1  0  0  0  0
  5 11  2  0  0  0  0
  6 10  2  0  0  0  0
  6 12  1  0  0  0  0
  7  9  1  0  0  0  0
  8 16  1  0  0  0  0
  9 12  1  0  0  0  0
 11 12  1  0  0  0  0
 13 16  1  0  0  0  0
 14 16  2  0  0  0  0
 15 16  2  0  0  0  0
  1 17  1  0  0  0  0
  2 18  1  0  0  0  0
  3 19  1  0  0  0  0
  4 20  1  0  0  0  0
  5 21  1  0  0  0  0
  6 22  1  0  0  0  0
  9 23  1  0  0  0  0
  9 24  1  0  0  0  0
 13 25  1  0  0  0  0
 13 26  1  0  0  0  0
M  END
> <Mol Weight>
238,27

> <Formula>
C9H10N4O2S

> <ID>
EN300-272026

> <name>
Sulfonamides

> <LogP>
0,05

> <ROCS_ShapeQuery>
x0310_0A_x0719_0A_x1080_0A_x0739_0A_x0929_0A_x0526_0A_x0911_0A

> <ROCS_TanimotoCombo>
0.314 

> <ROCS_ShapeTanimoto>
0.194 

> <ROCS_ColorTanimoto>
0.120 

> <ROCS_RefTversky>
0.185 

> <ROCS_RefColorTversky>
0.137 

> <ROCS_RefTverskyCombo>
0.321 

> <ROCS_FitTversky>
1.359 

> <ROCS_FitColorTversky>
0.487 

> <ROCS_FitTverskyCombo>
1.846 

> <ROCS_ColorScore>
-3.984

> <ROCS_Overlap>
1478.628

> <ROCS_Rank>
253                 

$$$$
untitled-dbase-2740_203
  -OEChem-02092407103D

 34 35  0     0  0  0  0  0  0999 V2000
    7.1336   12.3794   20.2667 C   0  0  0  0  0  0  0  0  0  0  0  0
    6.0750   11.9605   19.4607 C   0  0  0  0  0  0  0  0  0  0  0  0
    4.5145   13.0724   20.9323 C   0  0  0  0  0  0  0  0  0  0  0  0
    6.8826   13.1447   21.4056 C   0  0  0  0  0  0  0  0  0  0  0  0
    4.7655   12.3070   19.7935 C   0  0  0  0  0  0  0  0  0  0  0  0
    5.5731   13.4913   21.7383 C   0  0  0  0  0  0  0  0  0  0  0  0
    9.2834   10.0175   24.1205 C   0  0  0  0  0  0  0  0  0  0  0  0
    7.8264   10.4337   24.3090 C   0  0  0  0  0  0  0  0  0  0  0  0
   10.2175   11.2251   24.0910 C   0  0  0  0  0  0  0  0  0  0  0  0
    7.3937   11.4527   23.2598 C   0  0  0  0  0  0  0  0  0  0  0  0
    9.7846   12.2440   23.0418 C   0  0  0  0  0  0  0  0  0  0  0  0
    8.3274   12.6622   23.2319 C   0  0  0  0  0  0  0  0  0  0  0  0
    3.0553   10.2824   19.5090 N   0  0  0  0  0  0  0  0  0  0  0  0
    2.3253   12.6969   18.9770 O   0  0  0  0  0  0  0  0  0  0  0  0
    3.9511   11.5341   17.4432 O   0  0  0  0  0  0  0  0  0  0  0  0
    7.9409   13.5399   22.1799 O   0  0  0  0  0  0  0  0  0  0  0  0
    3.4410   11.7811   18.7847 S   0  0  0  0  0  0  0  0  0  0  0  0
    5.2345   14.4353   23.1420 Cl  0  0  0  0  0  0  0  0  0  0  0  0
    8.1509   12.1035   20.0028 H   0  0  0  0  0  0  0  0  0  0  0  0
    6.2811   11.3639   18.5760 H   0  0  0  0  0  0  0  0  0  0  0  0
    3.4912   13.3381   21.1878 H   0  0  0  0  0  0  0  0  0  0  0  0
    9.5811    9.3403   24.9289 H   0  0  0  0  0  0  0  0  0  0  0  0
    9.3831    9.4574   23.1825 H   0  0  0  0  0  0  0  0  0  0  0  0
    7.1801    9.5505   24.2552 H   0  0  0  0  0  0  0  0  0  0  0  0
    7.6974   10.8643   25.3096 H   0  0  0  0  0  0  0  0  0  0  0  0
   10.2282   11.7017   25.0789 H   0  0  0  0  0  0  0  0  0  0  0  0
   11.2413   10.8944   23.8838 H   0  0  0  0  0  0  0  0  0  0  0  0
    7.3705   10.9800   22.2690 H   0  0  0  0  0  0  0  0  0  0  0  0
    6.3659   11.7819   23.4546 H   0  0  0  0  0  0  0  0  0  0  0  0
   10.4340   13.1266   23.0852 H   0  0  0  0  0  0  0  0  0  0  0  0
    9.9203   11.8252   22.0359 H   0  0  0  0  0  0  0  0  0  0  0  0
    8.2272   13.2176   24.1793 H   0  0  0  0  0  0  0  0  0  0  0  0
    2.1813   10.2169   20.0449 H   0  0  0  0  0  0  0  0  0  0  0  0
    3.2938    9.4242   18.9973 H   0  0  0  0  0  0  0  0  0  0  0  0
  1  2  2  0  0  0  0
  1  4  1  0  0  0  0
  2  5  1  0  0  0  0
  3  5  2  0  0  0  0
  3  6  1  0  0  0  0
  4  6  2  0  0  0  0
  4 16  1  0  0  0  0
  5 17  1  0  0  0  0
  6 18  1  0  0  0  0
  7  8  1  0  0  0  0
  7  9  1  0  0  0  0
  8 10  1  0  0  0  0
  9 11  1  0  0  0  0
 10 12  1  0  0  0  0
 11 12  1  0  0  0  0
 12 16  1  0  0  0  0
 13 17  1  0  0  0  0
 14 17  2  0  0  0  0
 15 17  2  0  0  0  0
  1 19  1  0  0  0  0
  2 20  1  0  0  0  0
  3 21  1  0  0  0  0
  7 22  1  0  0  0  0
  7 23  1  0  0  0  0
  8 24  1  0  0  0  0
  8 25  1  0  0  0  0
  9 26  1  0  0  0  0
  9 27  1  0  0  0  0
 10 28  1  0  0  0  0
 10 29  1  0  0  0  0
 11 30  1  0  0  0  0
 11 31  1  0  0  0  0
 12 32  1  0  0  0  0
 13 33  1  0  0  0  0
 13 34  1  0  0  0  0
M  END
> <Mol Weight>
289,77

> <Formula>
C12H16ClNO3S

> <ID>
EN300-271834

> <name>
Sulfonamides

> <LogP>
2,82

> <ROCS_ShapeQuery>
x0310_0A_x0719_0A_x1080_0A_x0739_0A_x0929_0A_x0526_0A_x0911_0A

> <ROCS_TanimotoCombo>
0.313 

> <ROCS_ShapeTanimoto>
0.207 

> <ROCS_ColorTanimoto>
0.107 

> <ROCS_RefTversky>
0.196 

> <ROCS_RefColorTversky>
0.120 

> <ROCS_RefTverskyCombo>
0.316 

> <ROCS_FitTversky>
1.379 

> <ROCS_FitColorTversky>
0.485 

> <ROCS_FitTverskyCombo>
1.864 

> <ROCS_ColorScore>
-3.500

> <ROCS_Overlap>
1567.711

> <ROCS_Rank>
254                 

$$$$
untitled-dbase-1277_295
  -OEChem-02092407103D

 28 28  0     0  0  0  0  0  0999 V2000
   10.0445   10.9808   23.0778 C   0  0  0  0  0  0  0  0  0  0  0  0
    9.6188   10.4631   24.3010 C   0  0  0  0  0  0  0  0  0  0  0  0
    9.2262   11.8616   22.3705 C   0  0  0  0  0  0  0  0  0  0  0  0
    7.5564   11.7070   24.1097 C   0  0  0  0  0  0  0  0  0  0  0  0
    8.3748   10.8262   24.8170 C   0  0  0  0  0  0  0  0  0  0  0  0
    7.9822   12.2247   22.8864 C   0  0  0  0  0  0  0  0  0  0  0  0
    5.7090    9.4882   25.6240 C   0  0  0  0  0  0  0  0  0  0  0  0
    7.9210   10.2734   26.1257 C   0  0  0  0  0  0  0  0  0  0  0  0
    7.1070   13.1661   22.1297 C   0  0  0  0  0  0  0  0  0  0  0  0
    5.7187   15.4206   22.3325 N   0  0  0  0  0  0  0  0  0  0  0  0
    6.5113   10.4746   26.3462 N   0  0  0  0  0  0  0  0  0  0  0  0
    6.9712   14.4908   24.3778 O   0  0  0  0  0  0  0  0  0  0  0  0
    8.2874   15.4740   22.4578 O   0  0  0  0  0  0  0  0  0  0  0  0
    7.1458   14.7246   22.9543 S   0  0  0  0  0  0  0  0  0  0  0  0
   11.0133   10.6981   22.6761 H   0  0  0  0  0  0  0  0  0  0  0  0
   10.2634    9.7778   24.8453 H   0  0  0  0  0  0  0  0  0  0  0  0
    9.5657   12.2595   21.4178 H   0  0  0  0  0  0  0  0  0  0  0  0
    6.5869   11.9912   24.5119 H   0  0  0  0  0  0  0  0  0  0  0  0
    5.9256    9.5557   24.5476 H   0  0  0  0  0  0  0  0  0  0  0  0
    5.9566    8.4791   25.9851 H   0  0  0  0  0  0  0  0  0  0  0  0
    4.6410    9.6874   25.7961 H   0  0  0  0  0  0  0  0  0  0  0  0
    8.1137    9.1932   26.1876 H   0  0  0  0  0  0  0  0  0  0  0  0
    8.4535   10.7391   26.9663 H   0  0  0  0  0  0  0  0  0  0  0  0
    6.0649   12.8286   22.0954 H   0  0  0  0  0  0  0  0  0  0  0  0
    7.4531   13.3202   21.1013 H   0  0  0  0  0  0  0  0  0  0  0  0
    4.9200   15.5240   22.9704 H   0  0  0  0  0  0  0  0  0  0  0  0
    5.8164   16.1935   21.6626 H   0  0  0  0  0  0  0  0  0  0  0  0
    6.2976   10.3983   27.3456 H   0  0  0  0  0  0  0  0  0  0  0  0
  1  2  2  0  0  0  0
  1  3  1  0  0  0  0
  2  5  1  0  0  0  0
  3  6  2  0  0  0  0
  4  5  2  0  0  0  0
  4  6  1  0  0  0  0
  5  8  1  0  0  0  0
  6  9  1  0  0  0  0
  7 11  1  0  0  0  0
  8 11  1  0  0  0  0
  9 14  1  0  0  0  0
 10 14  1  0  0  0  0
 12 14  2  0  0  0  0
 13 14  2  0  0  0  0
  1 15  1  0  0  0  0
  2 16  1  0  0  0  0
  3 17  1  0  0  0  0
  4 18  1  0  0  0  0
  7 19  1  0  0  0  0
  7 20  1  0  0  0  0
  7 21  1  0  0  0  0
  8 22  1  0  0  0  0
  8 23  1  0  0  0  0
  9 24  1  0  0  0  0
  9 25  1  0  0  0  0
 10 26  1  0  0  0  0
 10 27  1  0  0  0  0
 11 28  1  0  0  0  0
M  END
> <Mol Weight>
214,28

> <Formula>
C9H14N2O2S

> <ID>
EN300-198184

> <name>
Sulfonamides

> <LogP>
-0,22

> <ROCS_ShapeQuery>
x0310_0A_x0719_0A_x1080_0A_x0739_0A_x0929_0A_x0526_0A_x0911_0A

> <ROCS_TanimotoCombo>
0.313 

> <ROCS_ShapeTanimoto>
0.160 

> <ROCS_ColorTanimoto>
0.153 

> <ROCS_RefTversky>
0.155 

> <ROCS_RefColorTversky>
0.166 

> <ROCS_RefTverskyCombo>
0.321 

> <ROCS_FitTversky>
1.282 

> <ROCS_FitColorTversky>
0.668 

> <ROCS_FitTverskyCombo>
1.951 

> <ROCS_ColorScore>
-4.824

> <ROCS_Overlap>
1238.042

> <ROCS_Rank>
255                 

$$$$
untitled-dbase-2412_230
  -OEChem-02092407103D

 27 27  0     0  0  0  0  0  0999 V2000
    4.4122   11.0620   18.4213 C   0  0  0  0  0  0  0  0  0  0  0  0
    4.0327   12.2635   20.4827 C   0  0  0  0  0  0  0  0  0  0  0  0
    3.1672   11.4778   17.9497 C   0  0  0  0  0  0  0  0  0  0  0  0
    2.7876   12.6794   20.0110 C   0  0  0  0  0  0  0  0  0  0  0  0
    4.8450   11.4548   19.6879 C   0  0  0  0  0  0  0  0  0  0  0  0
    2.3549   12.2866   18.7445 C   0  0  0  0  0  0  0  0  0  0  0  0
    6.8277   12.3900   22.1451 C   0  0  0  0  0  0  0  0  0  0  0  0
    6.1758   11.0096   20.1928 C   0  0  0  0  0  0  0  0  0  0  0  0
    6.8669   12.3876   23.6520 C   0  0  0  0  0  0  0  0  0  0  0  0
   -0.2036   11.5400   18.7075 N   0  0  0  0  0  0  0  0  0  0  0  0
    6.3203   11.2153   21.6116 N   0  0  0  0  0  0  0  0  0  0  0  0
    7.2007   13.3603   21.4880 O   0  0  0  0  0  0  0  0  0  0  0  0
    0.4298   14.0349   18.8483 O   0  0  0  0  0  0  0  0  0  0  0  0
    0.8224   12.7827   16.6976 O   0  0  0  0  0  0  0  0  0  0  0  0
    0.7974   12.8091   18.1535 S   0  0  0  0  0  0  0  0  0  0  0  0
    8.4345   11.7360   24.1548 Cl  0  0  0  0  0  0  0  0  0  0  0  0
    5.0381   10.4317   17.7952 H   0  0  0  0  0  0  0  0  0  0  0  0
    4.3615   12.5741   21.4710 H   0  0  0  0  0  0  0  0  0  0  0  0
    2.8393   11.1657   16.9616 H   0  0  0  0  0  0  0  0  0  0  0  0
    2.1627   13.3091   20.6388 H   0  0  0  0  0  0  0  0  0  0  0  0
    6.3366    9.9403   19.9964 H   0  0  0  0  0  0  0  0  0  0  0  0
    6.9954   11.5494   19.6987 H   0  0  0  0  0  0  0  0  0  0  0  0
    6.7509   13.3878   24.0767 H   0  0  0  0  0  0  0  0  0  0  0  0
    6.0715   11.7425   24.0351 H   0  0  0  0  0  0  0  0  0  0  0  0
   -0.8492   11.7384   19.4817 H   0  0  0  0  0  0  0  0  0  0  0  0
   -0.5785   10.8832   18.0123 H   0  0  0  0  0  0  0  0  0  0  0  0
    6.0395   10.4710   22.2453 H   0  0  0  0  0  0  0  0  0  0  0  0
  1  3  2  0  0  0  0
  1  5  1  0  0  0  0
  2  4  1  0  0  0  0
  2  5  2  0  0  0  0
  3  6  1  0  0  0  0
  4  6  2  0  0  0  0
  5  8  1  0  0  0  0
  6 15  1  0  0  0  0
  7  9  1  0  0  0  0
  7 11  1  0  0  0  0
  7 12  2  0  0  0  0
  8 11  1  0  0  0  0
  9 16  1  0  0  0  0
 10 15  1  0  0  0  0
 13 15  2  0  0  0  0
 14 15  2  0  0  0  0
  1 17  1  0  0  0  0
  2 18  1  0  0  0  0
  3 19  1  0  0  0  0
  4 20  1  0  0  0  0
  8 21  1  0  0  0  0
  8 22  1  0  0  0  0
  9 23  1  0  0  0  0
  9 24  1  0  0  0  0
 10 25  1  0  0  0  0
 10 26  1  0  0  0  0
 11 27  1  0  0  0  0
M  END
> <Mol Weight>
262,71

> <Formula>
C9H11ClN2O3S

> <ID>
EN300-14232

> <name>
Sulfonamides

> <LogP>
0,06

> <ROCS_ShapeQuery>
x0310_0A_x0719_0A_x1080_0A_x0739_0A_x0929_0A_x0526_0A_x0911_0A

> <ROCS_TanimotoCombo>
0.313 

> <ROCS_ShapeTanimoto>
0.189 

> <ROCS_ColorTanimoto>
0.124 

> <ROCS_RefTversky>
0.180 

> <ROCS_RefColorTversky>
0.138 

> <ROCS_RefTverskyCombo>
0.318 

> <ROCS_FitTversky>
1.381 

> <ROCS_FitColorTversky>
0.554 

> <ROCS_FitTverskyCombo>
1.935 

> <ROCS_ColorScore>
-4.000

> <ROCS_Overlap>
1442.755

> <ROCS_Rank>
256                 

$$$$
untitled-dbase-2633_66
  -OEChem-02092407103D

 40 40  0     1  0  0  0  0  0999 V2000
    5.7849   11.0286   21.6932 C   0  0  0  0  0  0  0  0  0  0  0  0
    9.4222    9.7103   23.6509 C   0  0  0  0  0  0  0  0  0  0  0  0
   10.3529   10.9148   23.7698 C   0  0  0  0  0  0  0  0  0  0  0  0
    8.0327   10.0071   24.2199 C   0  0  0  0  0  0  0  0  0  0  0  0
    9.7396   12.1800   23.1727 C   0  0  0  0  0  0  0  0  0  0  0  0
    7.3963   11.2633   23.6033 C   0  0  1  0  0  0  0  0  0  0  0  0
    8.3552   12.4571   23.7641 C   0  0  2  0  0  0  0  0  0  0  0  0
    4.8995   12.8635   19.6934 C   0  0  0  0  0  0  0  0  0  0  0  0
    4.9883   10.9061   18.1218 C   0  0  0  0  0  0  0  0  0  0  0  0
    3.4238   10.8629   20.0861 C   0  0  0  0  0  0  0  0  0  0  0  0
    4.7783   11.3454   19.5693 C   0  0  0  0  0  0  0  0  0  0  0  0
    9.0931   14.9192   23.1130 N   0  0  0  0  0  0  0  0  0  0  0  0
    7.0678   10.9981   22.1989 N   0  0  0  0  0  0  0  0  0  0  0  0
    4.7684   11.2758   22.3338 O   0  0  0  0  0  0  0  0  0  0  0  0
    7.2756   13.7137   21.7492 O   0  0  0  0  0  0  0  0  0  0  0  0
    6.7553   14.4905   24.0968 O   0  0  0  0  0  0  0  0  0  0  0  0
    5.8091   10.7399   20.3577 O   0  0  0  0  0  0  0  0  0  0  0  0
    7.6833   13.9642   23.1166 S   0  0  0  0  0  0  0  0  0  0  0  0
    9.3338    9.4151   22.6010 H   0  0  0  0  0  0  0  0  0  0  0  0
    9.8583    8.8610   24.1878 H   0  0  0  0  0  0  0  0  0  0  0  0
   10.5899   11.0883   24.8272 H   0  0  0  0  0  0  0  0  0  0  0  0
   11.3052   10.6904   23.2727 H   0  0  0  0  0  0  0  0  0  0  0  0
    7.3828    9.1313   24.0643 H   0  0  0  0  0  0  0  0  0  0  0  0
    8.1189   10.1315   25.3115 H   0  0  0  0  0  0  0  0  0  0  0  0
   10.3941   13.0241   23.3938 H   0  0  0  0  0  0  0  0  0  0  0  0
    9.6839   12.0807   22.0894 H   0  0  0  0  0  0  0  0  0  0  0  0
    6.4755   11.4694   24.1004 H   0  0  0  0  0  0  0  0  0  0  0  0
    8.4795   12.6672   24.8435 H   0  0  0  0  0  0  0  0  0  0  0  0
    4.7494   13.1828   20.7310 H   0  0  0  0  0  0  0  0  0  0  0  0
    5.8796   13.2186   19.3586 H   0  0  0  0  0  0  0  0  0  0  0  0
    4.1277   13.3672   19.1003 H   0  0  0  0  0  0  0  0  0  0  0  0
    4.9022    9.8175   18.0281 H   0  0  0  0  0  0  0  0  0  0  0  0
    5.9954   11.1669   17.7770 H   0  0  0  0  0  0  0  0  0  0  0  0
    4.2603   11.3706   17.4490 H   0  0  0  0  0  0  0  0  0  0  0  0
    3.3366    9.7739   19.9972 H   0  0  0  0  0  0  0  0  0  0  0  0
    3.2713   11.1372   21.1350 H   0  0  0  0  0  0  0  0  0  0  0  0
    2.6063   11.2880   19.4926 H   0  0  0  0  0  0  0  0  0  0  0  0
    9.5164   15.1474   22.2051 H   0  0  0  0  0  0  0  0  0  0  0  0
    9.1621   15.6763   23.8040 H   0  0  0  0  0  0  0  0  0  0  0  0
    7.8284   10.7794   21.5624 H   0  0  0  0  0  0  0  0  0  0  0  0
  1 13  1  0  0  0  0
  1 14  2  0  0  0  0
  1 17  1  0  0  0  0
  2  3  1  0  0  0  0
  2  4  1  0  0  0  0
  3  5  1  0  0  0  0
  4  6  1  0  0  0  0
  5  7  1  0  0  0  0
  6  7  1  0  0  0  0
  6 13  1  1  0  0  0
  7 18  1  1  0  0  0
  8 11  1  0  0  0  0
  9 11  1  0  0  0  0
 10 11  1  0  0  0  0
 11 17  1  0  0  0  0
 12 18  1  0  0  0  0
 15 18  2  0  0  0  0
 16 18  2  0  0  0  0
  2 19  1  0  0  0  0
  2 20  1  0  0  0  0
  3 21  1  0  0  0  0
  3 22  1  0  0  0  0
  4 23  1  0  0  0  0
  4 24  1  0  0  0  0
  5 25  1  0  0  0  0
  5 26  1  0  0  0  0
  6 27  1  0  0  0  0
  7 28  1  0  0  0  0
  8 29  1  0  0  0  0
  8 30  1  0  0  0  0
  8 31  1  0  0  0  0
  9 32  1  0  0  0  0
  9 33  1  0  0  0  0
  9 34  1  0  0  0  0
 10 35  1  0  0  0  0
 10 36  1  0  0  0  0
 10 37  1  0  0  0  0
 12 38  1  0  0  0  0
 12 39  1  0  0  0  0
 13 40  1  0  0  0  0
M  END
> <Mol Weight>
278,37

> <Formula>
C11H22N2O4S

> <ID>
EN300-37325495

> <name>
Sulfonamides

> <LogP>
0,88

> <ROCS_ShapeQuery>
x0310_0A_x0719_0A_x1080_0A_x0739_0A_x0929_0A_x0526_0A_x0911_0A

> <ROCS_TanimotoCombo>
0.313 

> <ROCS_ShapeTanimoto>
0.190 

> <ROCS_ColorTanimoto>
0.123 

> <ROCS_RefTversky>
0.182 

> <ROCS_RefColorTversky>
0.141 

> <ROCS_RefTverskyCombo>
0.323 

> <ROCS_FitTversky>
1.294 

> <ROCS_FitColorTversky>
0.501 

> <ROCS_FitTverskyCombo>
1.795 

> <ROCS_ColorScore>
-4.092

> <ROCS_Overlap>
1459.959

> <ROCS_Rank>
257                 

$$$$
untitled-dbase-2356_3
  -OEChem-02092407103D

 27 28  0     0  0  0  0  0  0999 V2000
    2.4824   12.9466   20.4392 C   0  0  0  0  0  0  0  0  0  0  0  0
    3.5124   13.4478   21.2421 C   0  0  0  0  0  0  0  0  0  0  0  0
    5.1951   12.8378   19.5916 C   0  0  0  0  0  0  0  0  0  0  0  0
    4.1731   12.3294   18.7721 C   0  0  0  0  0  0  0  0  0  0  0  0
    2.8542   12.3959   19.2123 C   0  0  0  0  0  0  0  0  0  0  0  0
    4.8453   13.3954   20.8278 C   0  0  0  0  0  0  0  0  0  0  0  0
    3.0025   11.4502   17.2177 C   0  0  0  0  0  0  0  0  0  0  0  0
   -0.0029   12.6973   17.3204 C   0  0  0  0  0  0  0  0  0  0  0  0
    0.6888   11.6661   18.1954 C   0  0  0  0  0  0  0  0  0  0  0  0
    4.2456   11.7390   17.5313 N   0  0  0  0  0  0  0  0  0  0  0  0
    2.1273   11.8265   18.1984 N   0  0  0  0  0  0  0  0  0  0  0  0
    6.1627   15.6571   21.3318 N   0  0  0  0  0  0  0  0  0  0  0  0
    5.6116   14.0110   23.2376 O   0  0  0  0  0  0  0  0  0  0  0  0
    7.3535   13.3812   21.5298 O   0  0  0  0  0  0  0  0  0  0  0  0
    2.4883   10.6852   15.7538 S   0  0  0  0  0  0  0  0  0  0  0  0
    6.0978   14.0359   21.8660 S   0  0  0  0  0  0  0  0  0  0  0  0
    1.4484   12.9885   20.7614 H   0  0  0  0  0  0  0  0  0  0  0  0
    3.2572   13.8845   22.2052 H   0  0  0  0  0  0  0  0  0  0  0  0
    6.2309   12.7975   19.2685 H   0  0  0  0  0  0  0  0  0  0  0  0
    0.2168   13.7152   17.6594 H   0  0  0  0  0  0  0  0  0  0  0  0
   -1.0875   12.5542   17.3506 H   0  0  0  0  0  0  0  0  0  0  0  0
    0.3237   12.6148   16.2785 H   0  0  0  0  0  0  0  0  0  0  0  0
    0.4631   10.6513   17.8486 H   0  0  0  0  0  0  0  0  0  0  0  0
    0.3388   11.7411   19.2312 H   0  0  0  0  0  0  0  0  0  0  0  0
    5.7939   16.3849   21.9560 H   0  0  0  0  0  0  0  0  0  0  0  0
    6.9828   15.9527   20.7884 H   0  0  0  0  0  0  0  0  0  0  0  0
    3.6857   10.5264   15.1526 H   0  0  0  0  0  0  0  0  0  0  0  0
  1  2  2  0  0  0  0
  1  5  1  0  0  0  0
  2  6  1  0  0  0  0
  3  4  1  0  0  0  0
  3  6  2  0  0  0  0
  4  5  2  0  0  0  0
  4 10  1  0  0  0  0
  5 11  1  0  0  0  0
  6 16  1  0  0  0  0
  7 10  2  0  0  0  0
  7 11  1  0  0  0  0
  7 15  1  0  0  0  0
  8  9  1  0  0  0  0
  9 11  1  0  0  0  0
 12 16  1  0  0  0  0
 13 16  2  0  0  0  0
 14 16  2  0  0  0  0
  1 17  1  0  0  0  0
  2 18  1  0  0  0  0
  3 19  1  0  0  0  0
  8 20  1  0  0  0  0
  8 21  1  0  0  0  0
  8 22  1  0  0  0  0
  9 23  1  0  0  0  0
  9 24  1  0  0  0  0
 12 25  1  0  0  0  0
 12 26  1  0  0  0  0
 15 27  1  0  0  0  0
M  END
> <Mol Weight>
257,33

> <Formula>
C9H11N3O2S2

> <ID>
EN300-11562

> <name>
Sulfonamides

> <LogP>
1,22

> <ROCS_ShapeQuery>
x0310_0A_x0719_0A_x1080_0A_x0739_0A_x0929_0A_x0526_0A_x0911_0A

> <ROCS_TanimotoCombo>
0.313 

> <ROCS_ShapeTanimoto>
0.159 

> <ROCS_ColorTanimoto>
0.154 

> <ROCS_RefTversky>
0.156 

> <ROCS_RefColorTversky>
0.175 

> <ROCS_RefTverskyCombo>
0.331 

> <ROCS_FitTversky>
1.155 

> <ROCS_FitColorTversky>
0.560 

> <ROCS_FitTverskyCombo>
1.714 

> <ROCS_ColorScore>
-5.113

> <ROCS_Overlap>
1249.218

> <ROCS_Rank>
258                 

$$$$
untitled-dbase-1704_63
  -OEChem-02092407103D

 26 26  0     0  0  0  0  0  0999 V2000
   10.1610   11.7419   23.9456 C   0  0  0  0  0  0  0  0  0  0  0  0
    9.6131   10.5083   24.2972 C   0  0  0  0  0  0  0  0  0  0  0  0
    9.3924   12.6727   23.2467 C   0  0  0  0  0  0  0  0  0  0  0  0
    7.5280   11.1362   23.2508 C   0  0  0  0  0  0  0  0  0  0  0  0
    8.2966   10.2054   23.9498 C   0  0  0  0  0  0  0  0  0  0  0  0
    8.0759   12.3699   22.8993 C   0  0  0  0  0  0  0  0  0  0  0  0
    7.7255    8.9193   24.3170 C   0  0  0  0  0  0  0  0  0  0  0  0
    6.7459    6.9251   23.4477 C   0  0  0  0  0  0  0  0  0  0  0  0
    7.2539   13.3651   22.1519 C   0  0  0  0  0  0  0  0  0  0  0  0
    5.7393   15.5275   22.4371 N   0  0  0  0  0  0  0  0  0  0  0  0
    7.6104    8.5107   25.4801 O   0  0  0  0  0  0  0  0  0  0  0  0
    6.7764   14.3996   24.5032 O   0  0  0  0  0  0  0  0  0  0  0  0
    8.2672   15.6559   22.8956 O   0  0  0  0  0  0  0  0  0  0  0  0
    7.3276    8.2124   23.2152 O   0  0  0  0  0  0  0  0  0  0  0  0
    7.1125   14.8116   23.1509 S   0  0  0  0  0  0  0  0  0  0  0  0
   11.1866   11.9772   24.2151 H   0  0  0  0  0  0  0  0  0  0  0  0
   10.2209    9.7905   24.8422 H   0  0  0  0  0  0  0  0  0  0  0  0
    9.8273   13.6317   22.9775 H   0  0  0  0  0  0  0  0  0  0  0  0
    6.5016   10.9013   22.9781 H   0  0  0  0  0  0  0  0  0  0  0  0
    6.4738    6.4695   22.4925 H   0  0  0  0  0  0  0  0  0  0  0  0
    5.8593    7.0333   24.0776 H   0  0  0  0  0  0  0  0  0  0  0  0
    7.4764    6.2914   23.9560 H   0  0  0  0  0  0  0  0  0  0  0  0
    6.2423   12.9977   21.9453 H   0  0  0  0  0  0  0  0  0  0  0  0
    7.7156   13.6558   21.2014 H   0  0  0  0  0  0  0  0  0  0  0  0
    5.8446   15.9324   21.4987 H   0  0  0  0  0  0  0  0  0  0  0  0
    4.8294   15.0768   22.5938 H   0  0  0  0  0  0  0  0  0  0  0  0
  1  2  2  0  0  0  0
  1  3  1  0  0  0  0
  2  5  1  0  0  0  0
  3  6  2  0  0  0  0
  4  5  2  0  0  0  0
  4  6  1  0  0  0  0
  5  7  1  0  0  0  0
  6  9  1  0  0  0  0
  7 11  2  0  0  0  0
  7 14  1  0  0  0  0
  8 14  1  0  0  0  0
  9 15  1  0  0  0  0
 10 15  1  0  0  0  0
 12 15  2  0  0  0  0
 13 15  2  0  0  0  0
  1 16  1  0  0  0  0
  2 17  1  0  0  0  0
  3 18  1  0  0  0  0
  4 19  1  0  0  0  0
  8 20  1  0  0  0  0
  8 21  1  0  0  0  0
  8 22  1  0  0  0  0
  9 23  1  0  0  0  0
  9 24  1  0  0  0  0
 10 25  1  0  0  0  0
 10 26  1  0  0  0  0
M  END
> <Mol Weight>
229,25

> <Formula>
C9H11NO4S

> <ID>
EN300-188022

> <name>
Sulfonamides

> <LogP>
0,34

> <ROCS_ShapeQuery>
x0310_0A_x0719_0A_x1080_0A_x0739_0A_x0929_0A_x0526_0A_x0911_0A

> <ROCS_TanimotoCombo>
0.313 

> <ROCS_ShapeTanimoto>
0.154 

> <ROCS_ColorTanimoto>
0.159 

> <ROCS_RefTversky>
0.151 

> <ROCS_RefColorTversky>
0.167 

> <ROCS_RefTverskyCombo>
0.317 

> <ROCS_FitTversky>
1.183 

> <ROCS_FitColorTversky>
0.772 

> <ROCS_FitTverskyCombo>
1.954 

> <ROCS_ColorScore>
-4.836

> <ROCS_Overlap>
1207.542

> <ROCS_Rank>
259                 

$$$$
untitled-dbase-606_10
  -OEChem-02092407103D

 23 23  0     0  0  0  0  0  0999 V2000
    8.2570   10.0785   23.4516 C   0  0  0  0  0  0  0  0  0  0  0  0
    8.5900   10.4316   24.7730 C   0  0  0  0  0  0  0  0  0  0  0  0
    8.7097   11.1287   22.6910 C   0  0  0  0  0  0  0  0  0  0  0  0
    9.2317   14.4904   23.9214 C   0  0  0  0  0  0  0  0  0  0  0  0
    9.8848   13.2894   23.2351 C   0  0  0  0  0  0  0  0  0  0  0  0
    7.7588   14.6477   23.5695 C   0  0  0  0  0  0  0  0  0  0  0  0
    9.2069   11.6137   24.8509 N   0  0  0  0  0  0  0  0  0  0  0  0
    9.2652   12.0125   23.5689 N   0  0  0  0  0  0  0  0  0  0  0  0
    5.9827   15.5963   21.8384 N   0  0  0  0  0  0  0  0  0  0  0  0
    8.4990   15.8972   21.3974 O   0  0  0  0  0  0  0  0  0  0  0  0
    7.4694   13.5985   21.1940 O   0  0  0  0  0  0  0  0  0  0  0  0
    7.5387   14.8996   21.8361 S   0  0  0  0  0  0  0  0  0  0  0  0
    7.7584    9.1874   23.1002 H   0  0  0  0  0  0  0  0  0  0  0  0
    8.4086    9.8753   25.6814 H   0  0  0  0  0  0  0  0  0  0  0  0
    8.6829   11.3161   21.6264 H   0  0  0  0  0  0  0  0  0  0  0  0
    9.7701   15.4125   23.6700 H   0  0  0  0  0  0  0  0  0  0  0  0
    9.3296   14.3629   25.0068 H   0  0  0  0  0  0  0  0  0  0  0  0
    9.8169   13.3989   22.1458 H   0  0  0  0  0  0  0  0  0  0  0  0
   10.9513   13.2322   23.4825 H   0  0  0  0  0  0  0  0  0  0  0  0
    7.3186   15.5131   24.0737 H   0  0  0  0  0  0  0  0  0  0  0  0
    7.1829   13.7550   23.8283 H   0  0  0  0  0  0  0  0  0  0  0  0
    5.1862   14.9873   22.0628 H   0  0  0  0  0  0  0  0  0  0  0  0
    5.8876   16.5529   22.2012 H   0  0  0  0  0  0  0  0  0  0  0  0
  1  2  1  0  0  0  0
  1  3  2  0  0  0  0
  2  7  2  0  0  0  0
  3  8  1  0  0  0  0
  4  5  1  0  0  0  0
  4  6  1  0  0  0  0
  5  8  1  0  0  0  0
  6 12  1  0  0  0  0
  7  8  1  0  0  0  0
  9 12  1  0  0  0  0
 10 12  2  0  0  0  0
 11 12  2  0  0  0  0
  1 13  1  0  0  0  0
  2 14  1  0  0  0  0
  3 15  1  0  0  0  0
  4 16  1  0  0  0  0
  4 17  1  0  0  0  0
  5 18  1  0  0  0  0
  5 19  1  0  0  0  0
  6 20  1  0  0  0  0
  6 21  1  0  0  0  0
  9 22  1  0  0  0  0
  9 23  1  0  0  0  0
M  END
> <Mol Weight>
189,23

> <Formula>
C6H11N3O2S

> <ID>
EN300-2005216

> <name>
Sulfonamides

> <LogP>
-1,09

> <ROCS_ShapeQuery>
x0310_0A_x0719_0A_x1080_0A_x0739_0A_x0929_0A_x0526_0A_x0911_0A

> <ROCS_TanimotoCombo>
0.313 

> <ROCS_ShapeTanimoto>
0.152 

> <ROCS_ColorTanimoto>
0.161 

> <ROCS_RefTversky>
0.147 

> <ROCS_RefColorTversky>
0.169 

> <ROCS_RefTverskyCombo>
0.315 

> <ROCS_FitTversky>
1.320 

> <ROCS_FitColorTversky>
0.782 

> <ROCS_FitTverskyCombo>
2.101 

> <ROCS_ColorScore>
-4.899

> <ROCS_Overlap>
1172.542

> <ROCS_Rank>
260                 

$$$$
untitled-dbase-2609_65
  -OEChem-02092407103D

 30 30  0     1  0  0  0  0  0999 V2000
    4.4025   11.0544   18.6454 C   0  0  0  0  0  0  0  0  0  0  0  0
    3.7969   12.1027   20.7363 C   0  0  0  0  0  0  0  0  0  0  0  0
    3.2099   11.5006   18.0762 C   0  0  0  0  0  0  0  0  0  0  0  0
    2.6042   12.5490   20.1670 C   0  0  0  0  0  0  0  0  0  0  0  0
    4.6961   11.3554   19.9755 C   0  0  0  0  0  0  0  0  0  0  0  0
    2.3107   12.2479   18.8370 C   0  0  0  0  0  0  0  0  0  0  0  0
    6.7369   12.5868   22.2077 C   0  0  0  0  0  0  0  0  0  0  0  0
    6.1169    9.3490   20.5649 C   0  0  0  0  0  0  0  0  0  0  0  0
    6.7924   12.8962   23.6820 C   0  0  0  0  0  0  0  0  0  0  0  0
    5.9708   10.8778   20.5846 C   0  0  2  0  0  0  0  0  0  0  0  0
   -0.2223   11.5004   18.4770 N   0  0  0  0  0  0  0  0  0  0  0  0
    6.1460   11.3687   21.9411 N   0  0  0  0  0  0  0  0  0  0  0  0
    7.1682   13.3703   21.3637 O   0  0  0  0  0  0  0  0  0  0  0  0
    0.3684   13.9799   18.8625 O   0  0  0  0  0  0  0  0  0  0  0  0
    0.9969   12.8877   16.6809 O   0  0  0  0  0  0  0  0  0  0  0  0
    0.8189   12.8084   18.1241 S   0  0  0  0  0  0  0  0  0  0  0  0
    8.3174   12.2573   24.3154 Cl  0  0  0  0  0  0  0  0  0  0  0  0
    5.0968   10.4725   18.0452 H   0  0  0  0  0  0  0  0  0  0  0  0
    4.0170   12.3416   21.7734 H   0  0  0  0  0  0  0  0  0  0  0  0
    2.9907   11.2601   17.0393 H   0  0  0  0  0  0  0  0  0  0  0  0
    1.9107   13.1301   20.7689 H   0  0  0  0  0  0  0  0  0  0  0  0
    5.2874    8.8741   21.1001 H   0  0  0  0  0  0  0  0  0  0  0  0
    6.1239    8.9635   19.5391 H   0  0  0  0  0  0  0  0  0  0  0  0
    7.0521    9.0261   21.0362 H   0  0  0  0  0  0  0  0  0  0  0  0
    6.7496   13.9685   23.8879 H   0  0  0  0  0  0  0  0  0  0  0  0
    5.9590   12.4017   24.1886 H   0  0  0  0  0  0  0  0  0  0  0  0
    6.8348   11.2863   20.0311 H   0  0  0  0  0  0  0  0  0  0  0  0
   -0.9475   11.6408   19.1910 H   0  0  0  0  0  0  0  0  0  0  0  0
   -0.5157   10.8949   17.7007 H   0  0  0  0  0  0  0  0  0  0  0  0
    5.8250   10.8001   22.7134 H   0  0  0  0  0  0  0  0  0  0  0  0
  1  3  2  0  0  0  0
  1  5  1  0  0  0  0
  2  4  1  0  0  0  0
  2  5  2  0  0  0  0
  3  6  1  0  0  0  0
  4  6  2  0  0  0  0
  5 10  1  0  0  0  0
  6 16  1  0  0  0  0
  7  9  1  0  0  0  0
  7 12  1  0  0  0  0
  7 13  2  0  0  0  0
  8 10  1  0  0  0  0
  9 17  1  0  0  0  0
 10 12  1  0  0  0  0
 11 16  1  0  0  0  0
 14 16  2  0  0  0  0
 15 16  2  0  0  0  0
  1 18  1  0  0  0  0
  2 19  1  0  0  0  0
  3 20  1  0  0  0  0
  4 21  1  0  0  0  0
  8 22  1  0  0  0  0
  8 23  1  0  0  0  0
  8 24  1  0  0  0  0
  9 25  1  0  0  0  0
  9 26  1  0  0  0  0
 10 27  1  0  0  0  0
 11 28  1  0  0  0  0
 11 29  1  0  0  0  0
 12 30  1  0  0  0  0
M  END
> <Mol Weight>
276,74

> <Formula>
C10H13ClN2O3S

> <ID>
EN300-23145

> <name>
Sulfonamides

> <LogP>
0,48

> <ROCS_ShapeQuery>
x0310_0A_x0719_0A_x1080_0A_x0739_0A_x0929_0A_x0526_0A_x0911_0A

> <ROCS_TanimotoCombo>
0.313 

> <ROCS_ShapeTanimoto>
0.188 

> <ROCS_ColorTanimoto>
0.125 

> <ROCS_RefTversky>
0.180 

> <ROCS_RefColorTversky>
0.138 

> <ROCS_RefTverskyCombo>
0.318 

> <ROCS_FitTversky>
1.328 

> <ROCS_FitColorTversky>
0.557 

> <ROCS_FitTverskyCombo>
1.885 

> <ROCS_ColorScore>
-4.019

> <ROCS_Overlap>
1442.330

> <ROCS_Rank>
261                 

$$$$
untitled-dbase-2567_1789
  -OEChem-02092407103D

 34 34  0     0  0  0  0  0  0999 V2000
    4.5242   11.2056   18.5774 C   0  0  0  0  0  0  0  0  0  0  0  0
    3.2420   11.5314   18.1354 C   0  0  0  0  0  0  0  0  0  0  0  0
    2.9564   12.9908   20.0395 C   0  0  0  0  0  0  0  0  0  0  0  0
    4.2386   12.6649   20.4815 C   0  0  0  0  0  0  0  0  0  0  0  0
    5.0225   11.7723   19.7505 C   0  0  0  0  0  0  0  0  0  0  0  0
    2.4581   12.4240   18.8664 C   0  0  0  0  0  0  0  0  0  0  0  0
    6.9017   13.5645   22.9846 C   0  0  0  0  0  0  0  0  0  0  0  0
    8.7470   11.9108   23.4729 C   0  0  0  0  0  0  0  0  0  0  0  0
    6.3965   10.3186   21.0368 C   0  0  0  0  0  0  0  0  0  0  0  0
    4.7588   13.2844   21.7464 C   0  0  0  0  0  0  0  0  0  0  0  0
    8.3804   13.2484   22.8561 C   0  0  0  0  0  0  0  0  0  0  0  0
   -0.0760   11.6294   19.0944 N   0  0  0  0  0  0  0  0  0  0  0  0
    6.1876   13.1166   21.8828 N   0  0  0  0  0  0  0  0  0  0  0  0
    6.4203   14.1436   23.9546 O   0  0  0  0  0  0  0  0  0  0  0  0
    0.4948   14.1323   18.8600 O   0  0  0  0  0  0  0  0  0  0  0  0
    0.7897   12.6094   16.8747 O   0  0  0  0  0  0  0  0  0  0  0  0
    6.2770   11.4431   20.1680 O   0  0  0  0  0  0  0  0  0  0  0  0
    0.8532   12.8314   18.3126 S   0  0  0  0  0  0  0  0  0  0  0  0
    5.1297   10.5096   18.0032 H   0  0  0  0  0  0  0  0  0  0  0  0
    2.8637   11.0840   17.2201 H   0  0  0  0  0  0  0  0  0  0  0  0
    2.3461   13.6867   20.6102 H   0  0  0  0  0  0  0  0  0  0  0  0
    8.4939   11.8862   24.5381 H   0  0  0  0  0  0  0  0  0  0  0  0
    8.2068   11.1003   22.9742 H   0  0  0  0  0  0  0  0  0  0  0  0
    9.8202   11.7150   23.3782 H   0  0  0  0  0  0  0  0  0  0  0  0
    7.4475   10.1655   21.2935 H   0  0  0  0  0  0  0  0  0  0  0  0
    5.9983    9.4298   20.5408 H   0  0  0  0  0  0  0  0  0  0  0  0
    5.8255   10.5113   21.9482 H   0  0  0  0  0  0  0  0  0  0  0  0
    4.5417   14.3579   21.7682 H   0  0  0  0  0  0  0  0  0  0  0  0
    4.2838   12.8385   22.6266 H   0  0  0  0  0  0  0  0  0  0  0  0
    8.6435   13.2466   21.7922 H   0  0  0  0  0  0  0  0  0  0  0  0
    8.9503   14.0466   23.3450 H   0  0  0  0  0  0  0  0  0  0  0  0
   -0.6781   11.9176   19.8752 H   0  0  0  0  0  0  0  0  0  0  0  0
   -0.4742   10.8776   18.5187 H   0  0  0  0  0  0  0  0  0  0  0  0
    6.6932   12.6484   21.1364 H   0  0  0  0  0  0  0  0  0  0  0  0
  1  2  2  0  0  0  0
  1  5  1  0  0  0  0
  2  6  1  0  0  0  0
  3  4  1  0  0  0  0
  3  6  2  0  0  0  0
  4  5  2  0  0  0  0
  4 10  1  0  0  0  0
  5 17  1  0  0  0  0
  6 18  1  0  0  0  0
  7 11  1  0  0  0  0
  7 13  1  0  0  0  0
  7 14  2  0  0  0  0
  8 11  1  0  0  0  0
  9 17  1  0  0  0  0
 10 13  1  0  0  0  0
 12 18  1  0  0  0  0
 15 18  2  0  0  0  0
 16 18  2  0  0  0  0
  1 19  1  0  0  0  0
  2 20  1  0  0  0  0
  3 21  1  0  0  0  0
  8 22  1  0  0  0  0
  8 23  1  0  0  0  0
  8 24  1  0  0  0  0
  9 25  1  0  0  0  0
  9 26  1  0  0  0  0
  9 27  1  0  0  0  0
 10 28  1  0  0  0  0
 10 29  1  0  0  0  0
 11 30  1  0  0  0  0
 11 31  1  0  0  0  0
 12 32  1  0  0  0  0
 12 33  1  0  0  0  0
 13 34  1  0  0  0  0
M  END
> <Mol Weight>
272,32

> <Formula>
C11H16N2O4S

> <ID>
EN300-116251

> <name>
Sulfonamides

> <LogP>
0,07

> <ROCS_ShapeQuery>
x0310_0A_x0719_0A_x1080_0A_x0739_0A_x0929_0A_x0526_0A_x0911_0A

> <ROCS_TanimotoCombo>
0.313 

> <ROCS_ShapeTanimoto>
0.211 

> <ROCS_ColorTanimoto>
0.102 

> <ROCS_RefTversky>
0.199 

> <ROCS_RefColorTversky>
0.122 

> <ROCS_RefTverskyCombo>
0.320 

> <ROCS_FitTversky>
1.403 

> <ROCS_FitColorTversky>
0.389 

> <ROCS_FitTverskyCombo>
1.792 

> <ROCS_ColorScore>
-3.546

> <ROCS_Overlap>
1593.690

> <ROCS_Rank>
262                 

$$$$
untitled-dbase-1144_15
  -OEChem-02092407103D

 20 20  0     0  0  0  0  0  0999 V2000
    7.6756   10.9902   23.6454 C   0  0  0  0  0  0  0  0  0  0  0  0
    8.4249   12.1699   23.4760 C   0  0  0  0  0  0  0  0  0  0  0  0
    9.7209   11.7930   23.7304 C   0  0  0  0  0  0  0  0  0  0  0  0
   10.7838    9.6056   24.3638 C   0  0  0  0  0  0  0  0  0  0  0  0
   10.9799   12.5622   23.7206 C   0  0  0  0  0  0  0  0  0  0  0  0
    8.4326    9.9423   23.9812 N   0  0  0  0  0  0  0  0  0  0  0  0
    9.6711   10.4623   24.0249 N   0  0  0  0  0  0  0  0  0  0  0  0
    9.2839   14.6527   23.0259 N   0  0  0  0  0  0  0  0  0  0  0  0
    7.3049   13.6892   21.6841 O   0  0  0  0  0  0  0  0  0  0  0  0
    6.9881   14.2445   24.1210 O   0  0  0  0  0  0  0  0  0  0  0  0
    7.8474   13.7104   23.0520 S   0  0  0  0  0  0  0  0  0  0  0  0
   11.7716   12.5228   25.3185 Cl  0  0  0  0  0  0  0  0  0  0  0  0
    6.6096   10.8475   23.5387 H   0  0  0  0  0  0  0  0  0  0  0  0
   10.9124    9.6332   25.4490 H   0  0  0  0  0  0  0  0  0  0  0  0
   10.5733    8.5859   24.0295 H   0  0  0  0  0  0  0  0  0  0  0  0
   11.6851    9.9682   23.8616 H   0  0  0  0  0  0  0  0  0  0  0  0
   10.8201   13.6230   23.4597 H   0  0  0  0  0  0  0  0  0  0  0  0
   11.7043   12.1698   22.9856 H   0  0  0  0  0  0  0  0  0  0  0  0
    9.6556   14.9534   22.1166 H   0  0  0  0  0  0  0  0  0  0  0  0
    9.4386   15.3305   23.7822 H   0  0  0  0  0  0  0  0  0  0  0  0
  1  2  1  0  0  0  0
  1  6  2  0  0  0  0
  2  3  2  0  0  0  0
  2 11  1  0  0  0  0
  3  5  1  0  0  0  0
  3  7  1  0  0  0  0
  4  7  1  0  0  0  0
  5 12  1  0  0  0  0
  6  7  1  0  0  0  0
  8 11  1  0  0  0  0
  9 11  2  0  0  0  0
 10 11  2  0  0  0  0
  1 13  1  0  0  0  0
  4 14  1  0  0  0  0
  4 15  1  0  0  0  0
  4 16  1  0  0  0  0
  5 17  1  0  0  0  0
  5 18  1  0  0  0  0
  8 19  1  0  0  0  0
  8 20  1  0  0  0  0
M  END
> <Mol Weight>
209,65

> <Formula>
C5H8ClN3O2S

> <ID>
EN300-26621911

> <name>
Sulfonamides

> <LogP>
-0,49

> <ROCS_ShapeQuery>
x0310_0A_x0719_0A_x1080_0A_x0739_0A_x0929_0A_x0526_0A_x0911_0A

> <ROCS_TanimotoCombo>
0.313 

> <ROCS_ShapeTanimoto>
0.143 

> <ROCS_ColorTanimoto>
0.170 

> <ROCS_RefTversky>
0.139 

> <ROCS_RefColorTversky>
0.177 

> <ROCS_RefTverskyCombo>
0.316 

> <ROCS_FitTversky>
1.247 

> <ROCS_FitColorTversky>
0.818 

> <ROCS_FitTverskyCombo>
2.066 

> <ROCS_ColorScore>
-5.129

> <ROCS_Overlap>
1111.302

> <ROCS_Rank>
263                 

$$$$
untitled-dbase-1527_19
  -OEChem-02092407103D

 25 26  0     0  0  0  0  0  0999 V2000
    2.0688   12.5739   17.6534 C   0  0  0  0  0  0  0  0  0  0  0  0
    2.3239   12.9365   18.9681 C   0  0  0  0  0  0  0  0  0  0  0  0
    5.8454   11.6251   20.8213 C   0  0  0  0  0  0  0  0  0  0  0  0
    5.5594   11.2774   19.4988 C   0  0  0  0  0  0  0  0  0  0  0  0
    3.7843   12.8563   20.9333 C   0  0  0  0  0  0  0  0  0  0  0  0
    3.0057   11.7865   17.0154 C   0  0  0  0  0  0  0  0  0  0  0  0
    3.4968   12.5065   19.6031 C   0  0  0  0  0  0  0  0  0  0  0  0
    4.9570   12.4155   21.5398 C   0  0  0  0  0  0  0  0  0  0  0  0
    4.3942   11.7041   18.8676 C   0  0  0  0  0  0  0  0  0  0  0  0
    5.2583   12.7897   22.9510 C   0  0  0  0  0  0  0  0  0  0  0  0
    4.1494   11.3507   17.5916 N   0  0  0  0  0  0  0  0  0  0  0  0
    5.6041   15.3937   22.5627 N   0  0  0  0  0  0  0  0  0  0  0  0
    7.0574   14.1429   24.2774 O   0  0  0  0  0  0  0  0  0  0  0  0
    7.4140   13.7278   21.8104 O   0  0  0  0  0  0  0  0  0  0  0  0
    6.5314   14.0105   22.9294 S   0  0  0  0  0  0  0  0  0  0  0  0
    1.1671   12.8968   17.1467 H   0  0  0  0  0  0  0  0  0  0  0  0
    1.6023   13.5568   19.4950 H   0  0  0  0  0  0  0  0  0  0  0  0
    6.7656   11.2716   21.2790 H   0  0  0  0  0  0  0  0  0  0  0  0
    6.2715   10.6568   18.9579 H   0  0  0  0  0  0  0  0  0  0  0  0
    3.0898   13.4765   21.4973 H   0  0  0  0  0  0  0  0  0  0  0  0
    2.8601   11.4712   15.9874 H   0  0  0  0  0  0  0  0  0  0  0  0
    5.6183   11.9382   23.5401 H   0  0  0  0  0  0  0  0  0  0  0  0
    4.3891   13.2189   23.4630 H   0  0  0  0  0  0  0  0  0  0  0  0
    5.4662   16.0880   23.3074 H   0  0  0  0  0  0  0  0  0  0  0  0
    5.7090   15.8052   21.6272 H   0  0  0  0  0  0  0  0  0  0  0  0
  1  2  2  0  0  0  0
  1  6  1  0  0  0  0
  2  7  1  0  0  0  0
  3  4  2  0  0  0  0
  3  8  1  0  0  0  0
  4  9  1  0  0  0  0
  5  7  1  0  0  0  0
  5  8  2  0  0  0  0
  6 11  2  0  0  0  0
  7  9  2  0  0  0  0
  8 10  1  0  0  0  0
  9 11  1  0  0  0  0
 10 15  1  0  0  0  0
 12 15  1  0  0  0  0
 13 15  2  0  0  0  0
 14 15  2  0  0  0  0
  1 16  1  0  0  0  0
  2 17  1  0  0  0  0
  3 18  1  0  0  0  0
  4 19  1  0  0  0  0
  5 20  1  0  0  0  0
  6 21  1  0  0  0  0
 10 22  1  0  0  0  0
 10 23  1  0  0  0  0
 12 24  1  0  0  0  0
 12 25  1  0  0  0  0
M  END
> <Mol Weight>
222,26

> <Formula>
C10H10N2O2S

> <ID>
EN300-258235

> <name>
Sulfonamides

> <LogP>
0,50

> <ROCS_ShapeQuery>
x0310_0A_x0719_0A_x1080_0A_x0739_0A_x0929_0A_x0526_0A_x0911_0A

> <ROCS_TanimotoCombo>
0.313 

> <ROCS_ShapeTanimoto>
0.152 

> <ROCS_ColorTanimoto>
0.160 

> <ROCS_RefTversky>
0.150 

> <ROCS_RefColorTversky>
0.173 

> <ROCS_RefTverskyCombo>
0.322 

> <ROCS_FitTversky>
1.147 

> <ROCS_FitColorTversky>
0.695 

> <ROCS_FitTverskyCombo>
1.841 

> <ROCS_ColorScore>
-5.018

> <ROCS_Overlap>
1197.778

> <ROCS_Rank>
264                 

$$$$
untitled-dbase-2346_1
  -OEChem-02092407103D

 25 26  0     0  0  0  0  0  0999 V2000
    8.3816   13.7393   26.4568 C   0  0  0  0  0  0  0  0  0  0  0  0
    8.6576   12.4046   26.1743 C   0  0  0  0  0  0  0  0  0  0  0  0
    8.1326   14.6236   25.4145 C   0  0  0  0  0  0  0  0  0  0  0  0
    8.9806   10.1945   23.2091 C   0  0  0  0  0  0  0  0  0  0  0  0
    8.6854   11.9502   24.8448 C   0  0  0  0  0  0  0  0  0  0  0  0
    8.4337   12.8424   23.7816 C   0  0  0  0  0  0  0  0  0  0  0  0
    8.1602   14.1715   24.0928 C   0  0  0  0  0  0  0  0  0  0  0  0
    8.9605   10.6121   24.5321 C   0  0  0  0  0  0  0  0  0  0  0  0
    8.7222   11.1401   22.2376 C   0  0  0  0  0  0  0  0  0  0  0  0
    8.7329   10.7368   20.8009 C   0  0  0  0  0  0  0  0  0  0  0  0
    8.4525   12.4401   22.4968 N   0  0  0  0  0  0  0  0  0  0  0  0
    6.1432   15.1919   22.6803 N   0  0  0  0  0  0  0  0  0  0  0  0
    8.1593   16.6604   23.3320 O   0  0  0  0  0  0  0  0  0  0  0  0
    8.4569   14.8573   21.5976 O   0  0  0  0  0  0  0  0  0  0  0  0
    7.8379   15.3383   22.8214 S   0  0  0  0  0  0  0  0  0  0  0  0
    9.2902    9.4041   25.7311 Cl  0  0  0  0  0  0  0  0  0  0  0  0
    8.3608   14.0864   27.4853 H   0  0  0  0  0  0  0  0  0  0  0  0
    8.8443   11.7439   27.0163 H   0  0  0  0  0  0  0  0  0  0  0  0
    7.9175   15.6646   25.6402 H   0  0  0  0  0  0  0  0  0  0  0  0
    9.1922    9.1645   22.9393 H   0  0  0  0  0  0  0  0  0  0  0  0
    7.7323   10.4151   20.4880 H   0  0  0  0  0  0  0  0  0  0  0  0
    9.0493   11.5673   20.1571 H   0  0  0  0  0  0  0  0  0  0  0  0
    9.4353    9.9121   20.6247 H   0  0  0  0  0  0  0  0  0  0  0  0
    5.5638   15.9676   23.0238 H   0  0  0  0  0  0  0  0  0  0  0  0
    5.7688   14.7345   21.8401 H   0  0  0  0  0  0  0  0  0  0  0  0
  1  2  2  0  0  0  0
  1  3  1  0  0  0  0
  2  5  1  0  0  0  0
  3  7  2  0  0  0  0
  4  8  2  0  0  0  0
  4  9  1  0  0  0  0
  5  6  2  0  0  0  0
  5  8  1  0  0  0  0
  6  7  1  0  0  0  0
  6 11  1  0  0  0  0
  7 15  1  0  0  0  0
  8 16  1  0  0  0  0
  9 10  1  0  0  0  0
  9 11  2  0  0  0  0
 12 15  1  0  0  0  0
 13 15  2  0  0  0  0
 14 15  2  0  0  0  0
  1 17  1  0  0  0  0
  2 18  1  0  0  0  0
  3 19  1  0  0  0  0
  4 20  1  0  0  0  0
 10 21  1  0  0  0  0
 10 22  1  0  0  0  0
 10 23  1  0  0  0  0
 12 24  1  0  0  0  0
 12 25  1  0  0  0  0
M  END
> <Mol Weight>
256,70

> <Formula>
C10H9ClN2O2S

> <ID>
EN300-7432011

> <name>
Sulfonamides

> <LogP>
1,47

> <ROCS_ShapeQuery>
x0310_0A_x0719_0A_x1080_0A_x0739_0A_x0929_0A_x0526_0A_x0911_0A

> <ROCS_TanimotoCombo>
0.313 

> <ROCS_ShapeTanimoto>
0.176 

> <ROCS_ColorTanimoto>
0.137 

> <ROCS_RefTversky>
0.170 

> <ROCS_RefColorTversky>
0.150 

> <ROCS_RefTverskyCombo>
0.320 

> <ROCS_FitTversky>
1.255 

> <ROCS_FitColorTversky>
0.605 

> <ROCS_FitTverskyCombo>
1.861 

> <ROCS_ColorScore>
-4.372

> <ROCS_Overlap>
1360.122

> <ROCS_Rank>
265                 

$$$$
untitled-dbase-332_3
  -OEChem-02092407103D

 20 20  0     0  0  0  0  0  0999 V2000
    7.6758   10.9901   23.6454 C   0  0  0  0  0  0  0  0  0  0  0  0
    8.4250   12.1699   23.4762 C   0  0  0  0  0  0  0  0  0  0  0  0
    9.7210   11.7931   23.7308 C   0  0  0  0  0  0  0  0  0  0  0  0
   10.9800   12.5623   23.7212 C   0  0  0  0  0  0  0  0  0  0  0  0
   10.7841    9.6057   24.3642 C   0  0  0  0  0  0  0  0  0  0  0  0
    8.4329    9.9422   23.9814 N   0  0  0  0  0  0  0  0  0  0  0  0
    9.6713   10.4623   24.0252 N   0  0  0  0  0  0  0  0  0  0  0  0
    9.2839   14.6527   23.0263 N   0  0  0  0  0  0  0  0  0  0  0  0
    7.3052   13.6891   21.6842 O   0  0  0  0  0  0  0  0  0  0  0  0
    6.9880   14.2443   24.1211 O   0  0  0  0  0  0  0  0  0  0  0  0
    7.8474   13.7103   23.0522 S   0  0  0  0  0  0  0  0  0  0  0  0
    6.6098   10.8473   23.5386 H   0  0  0  0  0  0  0  0  0  0  0  0
   11.1895   12.9949   24.7135 H   0  0  0  0  0  0  0  0  0  0  0  0
   11.8451   11.9379   23.4389 H   0  0  0  0  0  0  0  0  0  0  0  0
   10.9533   13.3917   22.9934 H   0  0  0  0  0  0  0  0  0  0  0  0
   10.9125    9.6333   25.4495 H   0  0  0  0  0  0  0  0  0  0  0  0
   10.5737    8.5860   24.0299 H   0  0  0  0  0  0  0  0  0  0  0  0
   11.6853    9.9684   23.8622 H   0  0  0  0  0  0  0  0  0  0  0  0
    9.6558   14.9534   22.1171 H   0  0  0  0  0  0  0  0  0  0  0  0
    9.4385   15.3305   23.7827 H   0  0  0  0  0  0  0  0  0  0  0  0
  1  2  1  0  0  0  0
  1  6  2  0  0  0  0
  2  3  2  0  0  0  0
  2 11  1  0  0  0  0
  3  4  1  0  0  0  0
  3  7  1  0  0  0  0
  5  7  1  0  0  0  0
  6  7  1  0  0  0  0
  8 11  1  0  0  0  0
  9 11  2  0  0  0  0
 10 11  2  0  0  0  0
  1 12  1  0  0  0  0
  4 13  1  0  0  0  0
  4 14  1  0  0  0  0
  4 15  1  0  0  0  0
  5 16  1  0  0  0  0
  5 17  1  0  0  0  0
  5 18  1  0  0  0  0
  8 19  1  0  0  0  0
  8 20  1  0  0  0  0
M  END
> <Mol Weight>
175,21

> <Formula>
C5H9N3O2S

> <ID>
EN300-220323

> <name>
Sulfonamides

> <LogP>
-0,79

> <ROCS_ShapeQuery>
x0310_0A_x0719_0A_x1080_0A_x0739_0A_x0929_0A_x0526_0A_x0911_0A

> <ROCS_TanimotoCombo>
0.313 

> <ROCS_ShapeTanimoto>
0.143 

> <ROCS_ColorTanimoto>
0.170 

> <ROCS_RefTversky>
0.138 

> <ROCS_RefColorTversky>
0.177 

> <ROCS_RefTverskyCombo>
0.315 

> <ROCS_FitTversky>
1.288 

> <ROCS_FitColorTversky>
0.818 

> <ROCS_FitTverskyCombo>
2.106 

> <ROCS_ColorScore>
-5.129

> <ROCS_Overlap>
1106.369

> <ROCS_Rank>
266                 

$$$$
untitled-dbase-1624_1
  -OEChem-02092407103D

 25 26  0     0  0  0  0  0  0999 V2000
    6.9091   12.1821   25.2183 C   0  0  0  0  0  0  0  0  0  0  0  0
    6.6160   13.5353   25.0453 C   0  0  0  0  0  0  0  0  0  0  0  0
    8.2019   13.6553   23.2245 C   0  0  0  0  0  0  0  0  0  0  0  0
    8.5018   12.3003   23.4006 C   0  0  0  0  0  0  0  0  0  0  0  0
    7.8613   11.5561   24.4055 C   0  0  0  0  0  0  0  0  0  0  0  0
    7.2619   14.2699   24.0519 C   0  0  0  0  0  0  0  0  0  0  0  0
    9.4854   11.6422   22.5021 C   0  0  0  0  0  0  0  0  0  0  0  0
    8.1487   10.0875   24.5593 C   0  0  0  0  0  0  0  0  0  0  0  0
    9.5908    9.8021   24.1748 C   0  0  0  0  0  0  0  0  0  0  0  0
    9.9150   10.3845   22.8884 N   0  0  0  0  0  0  0  0  0  0  0  0
    5.6058   15.8706   22.7103 N   0  0  0  0  0  0  0  0  0  0  0  0
    9.8665   12.2001   21.4777 O   0  0  0  0  0  0  0  0  0  0  0  0
    6.3685   16.4799   25.0962 O   0  0  0  0  0  0  0  0  0  0  0  0
    8.0239   16.6109   23.2015 O   0  0  0  0  0  0  0  0  0  0  0  0
    6.8863   15.9620   23.8378 S   0  0  0  0  0  0  0  0  0  0  0  0
    6.3897   11.6201   25.9902 H   0  0  0  0  0  0  0  0  0  0  0  0
    5.8771   14.0060   25.6885 H   0  0  0  0  0  0  0  0  0  0  0  0
    8.6961   14.2372   22.4506 H   0  0  0  0  0  0  0  0  0  0  0  0
    7.9851    9.7695   25.5954 H   0  0  0  0  0  0  0  0  0  0  0  0
    7.4605    9.5214   23.9203 H   0  0  0  0  0  0  0  0  0  0  0  0
   10.2838   10.2340   24.9063 H   0  0  0  0  0  0  0  0  0  0  0  0
    9.7775    8.7253   24.1198 H   0  0  0  0  0  0  0  0  0  0  0  0
   10.4828    9.8460   22.2415 H   0  0  0  0  0  0  0  0  0  0  0  0
    4.6571   16.0868   23.0401 H   0  0  0  0  0  0  0  0  0  0  0  0
    5.7897   16.1747   21.7465 H   0  0  0  0  0  0  0  0  0  0  0  0
  1  2  2  0  0  0  0
  1  5  1  0  0  0  0
  2  6  1  0  0  0  0
  3  4  1  0  0  0  0
  3  6  2  0  0  0  0
  4  5  2  0  0  0  0
  4  7  1  0  0  0  0
  5  8  1  0  0  0  0
  6 15  1  0  0  0  0
  7 10  1  0  0  0  0
  7 12  2  0  0  0  0
  8  9  1  0  0  0  0
  9 10  1  0  0  0  0
 11 15  1  0  0  0  0
 13 15  2  0  0  0  0
 14 15  2  0  0  0  0
  1 16  1  0  0  0  0
  2 17  1  0  0  0  0
  3 18  1  0  0  0  0
  8 19  1  0  0  0  0
  8 20  1  0  0  0  0
  9 21  1  0  0  0  0
  9 22  1  0  0  0  0
 10 23  1  0  0  0  0
 11 24  1  0  0  0  0
 11 25  1  0  0  0  0
M  END
> <Mol Weight>
226,25

> <Formula>
C9H10N2O3S

> <ID>
EN300-78532

> <name>
Sulfonamides

> <LogP>
-0,31

> <ROCS_ShapeQuery>
x0310_0A_x0719_0A_x1080_0A_x0739_0A_x0929_0A_x0526_0A_x0911_0A

> <ROCS_TanimotoCombo>
0.313 

> <ROCS_ShapeTanimoto>
0.194 

> <ROCS_ColorTanimoto>
0.118 

> <ROCS_RefTversky>
0.184 

> <ROCS_RefColorTversky>
0.136 

> <ROCS_RefTverskyCombo>
0.319 

> <ROCS_FitTversky>
1.415 

> <ROCS_FitColorTversky>
0.483 

> <ROCS_FitTverskyCombo>
1.898 

> <ROCS_ColorScore>
-3.950

> <ROCS_Overlap>
1471.142

> <ROCS_Rank>
267                 

$$$$
untitled-dbase-2305_127
  -OEChem-02092407103D

 35 36  0     1  0  0  0  0  0999 V2000
    2.5120   12.3103   18.0564 C   0  0  0  0  0  0  0  0  0  0  0  0
    2.3681   12.6949   19.3894 C   0  0  0  0  0  0  0  0  0  0  0  0
    3.5147   11.4108   17.6943 C   0  0  0  0  0  0  0  0  0  0  0  0
    3.2270   12.1800   20.3604 C   0  0  0  0  0  0  0  0  0  0  0  0
    4.3736   10.8959   18.6653 C   0  0  0  0  0  0  0  0  0  0  0  0
    4.2298   11.2805   19.9984 C   0  0  0  0  0  0  0  0  0  0  0  0
    8.4603   11.6781   22.5777 C   0  0  0  0  0  0  0  0  0  0  0  0
    8.5931   13.0420   21.9119 C   0  0  0  0  0  0  0  0  0  0  0  0
    7.4290   10.7975   21.8566 C   0  0  0  0  0  0  0  0  0  0  0  0
    6.0427   12.7893   21.9435 C   0  0  0  0  0  0  0  0  0  0  0  0
    7.2353   13.7547   21.8497 C   0  0  1  0  0  0  0  0  0  0  0  0
    5.1547   10.7261   21.0430 C   0  0  0  0  0  0  0  0  0  0  0  0
    6.3424   11.5565   21.2171 N   0  0  2  0  0  0  0  0  0  0  0  0
    5.5432   15.5739   22.7965 N   0  0  0  0  0  0  0  0  0  0  0  0
    7.0978   14.3033   24.4044 O   0  0  0  0  0  0  0  0  0  0  0  0
    8.0749   16.0279   22.8372 O   0  0  0  0  0  0  0  0  0  0  0  0
    7.1081   14.9858   23.1248 S   0  0  0  0  0  0  0  0  0  0  0  0
    1.8423   12.7103   17.3006 H   0  0  0  0  0  0  0  0  0  0  0  0
    1.5867   13.3944   19.6717 H   0  0  0  0  0  0  0  0  0  0  0  0
    3.6263   11.1103   16.6567 H   0  0  0  0  0  0  0  0  0  0  0  0
    3.1076   12.4854   21.3966 H   0  0  0  0  0  0  0  0  0  0  0  0
    5.1521   10.1957   18.3740 H   0  0  0  0  0  0  0  0  0  0  0  0
    9.4346   11.1726   22.5777 H   0  0  0  0  0  0  0  0  0  0  0  0
    8.1663   11.8037   23.6260 H   0  0  0  0  0  0  0  0  0  0  0  0
    9.3111   13.6557   22.4737 H   0  0  0  0  0  0  0  0  0  0  0  0
    9.0072   12.9283   20.9018 H   0  0  0  0  0  0  0  0  0  0  0  0
    7.9675   10.2060   21.0908 H   0  0  0  0  0  0  0  0  0  0  0  0
    7.0171   10.0583   22.5737 H   0  0  0  0  0  0  0  0  0  0  0  0
    5.8099   12.5840   22.9927 H   0  0  0  0  0  0  0  0  0  0  0  0
    5.1684   13.2779   21.5051 H   0  0  0  0  0  0  0  0  0  0  0  0
    7.1656   14.3222   20.9032 H   0  0  0  0  0  0  0  0  0  0  0  0
    4.6467   10.6569   22.0110 H   0  0  0  0  0  0  0  0  0  0  0  0
    5.4876    9.7171   20.7775 H   0  0  0  0  0  0  0  0  0  0  0  0
    4.7942   15.3403   23.4598 H   0  0  0  0  0  0  0  0  0  0  0  0
    5.4597   16.5148   22.3922 H   0  0  0  0  0  0  0  0  0  0  0  0
  1  2  1  0  0  0  0
  1  3  2  0  0  0  0
  2  4  2  0  0  0  0
  3  5  1  0  0  0  0
  4  6  1  0  0  0  0
  5  6  2  0  0  0  0
  6 12  1  0  0  0  0
  7  8  1  0  0  0  0
  7  9  1  0  0  0  0
  8 11  1  0  0  0  0
  9 13  1  0  0  0  0
 10 11  1  0  0  0  0
 10 13  1  0  0  0  0
 11 17  1  0  0  0  0
 12 13  1  0  0  0  0
 14 17  1  0  0  0  0
 15 17  2  0  0  0  0
 16 17  2  0  0  0  0
  1 18  1  0  0  0  0
  2 19  1  0  0  0  0
  3 20  1  0  0  0  0
  4 21  1  0  0  0  0
  5 22  1  0  0  0  0
  7 23  1  0  0  0  0
  7 24  1  0  0  0  0
  8 25  1  0  0  0  0
  8 26  1  0  0  0  0
  9 27  1  0  0  0  0
  9 28  1  0  0  0  0
 10 29  1  0  0  0  0
 10 30  1  0  0  0  0
 11 31  1  0  0  0  0
 12 32  1  0  0  0  0
 12 33  1  0  0  0  0
 14 34  1  0  0  0  0
 14 35  1  0  0  0  0
M  END
> <Mol Weight>
254,35

> <Formula>
C12H18N2O2S

> <ID>
EN300-28284

> <name>
Sulfonamides

> <LogP>
0,98

> <ROCS_ShapeQuery>
x0310_0A_x0719_0A_x1080_0A_x0739_0A_x0929_0A_x0526_0A_x0911_0A

> <ROCS_TanimotoCombo>
0.312 

> <ROCS_ShapeTanimoto>
0.188 

> <ROCS_ColorTanimoto>
0.124 

> <ROCS_RefTversky>
0.180 

> <ROCS_RefColorTversky>
0.138 

> <ROCS_RefTverskyCombo>
0.318 

> <ROCS_FitTversky>
1.312 

> <ROCS_FitColorTversky>
0.555 

> <ROCS_FitTverskyCombo>
1.866 

> <ROCS_ColorScore>
-4.003

> <ROCS_Overlap>
1444.910

> <ROCS_Rank>
268                 

$$$$
untitled-dbase-2631_164
  -OEChem-02092407103D

 40 40  0     1  0  0  0  0  0999 V2000
    7.6849    9.3585   24.7814 C   0  0  0  0  0  0  0  0  0  0  0  0
   10.2831   11.5737   23.5515 C   0  0  0  0  0  0  0  0  0  0  0  0
    9.4952   12.8551   23.2790 C   0  0  0  0  0  0  0  0  0  0  0  0
    9.4465   10.3338   23.2504 C   0  0  0  0  0  0  0  0  0  0  0  0
    7.3619   11.5841   23.7255 C   0  0  0  0  0  0  0  0  0  0  0  0
    8.1617   12.8543   24.0420 C   0  0  2  0  0  0  0  0  0  0  0  0
    6.7945    6.6595   25.1197 C   0  0  0  0  0  0  0  0  0  0  0  0
    9.2020    6.1204   25.5917 C   0  0  0  0  0  0  0  0  0  0  0  0
    7.9532    7.6925   27.1008 C   0  0  0  0  0  0  0  0  0  0  0  0
    7.3480   14.1031   23.7137 C   0  0  0  0  0  0  0  0  0  0  0  0
    8.1179    7.1934   25.6660 C   0  0  0  0  0  0  0  0  0  0  0  0
    8.1665   10.3848   23.9637 N   0  0  0  0  0  0  0  0  0  0  0  0
    6.0968   15.4968   21.8312 N   0  0  0  0  0  0  0  0  0  0  0  0
    6.6124    9.3963   25.3816 O   0  0  0  0  0  0  0  0  0  0  0  0
    8.6641   15.3367   21.8234 O   0  0  0  0  0  0  0  0  0  0  0  0
    7.2918   13.3002   21.2277 O   0  0  0  0  0  0  0  0  0  0  0  0
    8.5396    8.2903   24.8472 O   0  0  0  0  0  0  0  0  0  0  0  0
    7.4794   14.5130   22.0091 S   0  0  0  0  0  0  0  0  0  0  0  0
   11.1910   11.5640   22.9383 H   0  0  0  0  0  0  0  0  0  0  0  0
   10.6038   11.5543   24.6004 H   0  0  0  0  0  0  0  0  0  0  0  0
   10.0971   13.7228   23.5738 H   0  0  0  0  0  0  0  0  0  0  0  0
    9.3109   12.9446   22.2007 H   0  0  0  0  0  0  0  0  0  0  0  0
    9.2177   10.2778   22.1795 H   0  0  0  0  0  0  0  0  0  0  0  0
   10.0150    9.4365   23.5091 H   0  0  0  0  0  0  0  0  0  0  0  0
    6.4468   11.5558   24.3267 H   0  0  0  0  0  0  0  0  0  0  0  0
    7.0594   11.5651   22.6711 H   0  0  0  0  0  0  0  0  0  0  0  0
    8.3784   12.8666   25.1204 H   0  0  0  0  0  0  0  0  0  0  0  0
    6.0137    7.4267   25.1713 H   0  0  0  0  0  0  0  0  0  0  0  0
    6.8908    6.3306   24.0798 H   0  0  0  0  0  0  0  0  0  0  0  0
    6.4370    5.8139   25.7184 H   0  0  0  0  0  0  0  0  0  0  0  0
   10.1532    6.4992   25.9827 H   0  0  0  0  0  0  0  0  0  0  0  0
    9.3903    5.8271   24.5526 H   0  0  0  0  0  0  0  0  0  0  0  0
    8.9251    5.2263   26.1597 H   0  0  0  0  0  0  0  0  0  0  0  0
    8.9023    8.0755   27.4929 H   0  0  0  0  0  0  0  0  0  0  0  0
    7.2052    8.4891   27.1674 H   0  0  0  0  0  0  0  0  0  0  0  0
    7.6515    6.8750   27.7655 H   0  0  0  0  0  0  0  0  0  0  0  0
    7.7128   14.9525   24.2882 H   0  0  0  0  0  0  0  0  0  0  0  0
    6.2956   13.9362   23.9347 H   0  0  0  0  0  0  0  0  0  0  0  0
    5.1778   15.0386   21.8646 H   0  0  0  0  0  0  0  0  0  0  0  0
    6.1127   16.4256   22.2701 H   0  0  0  0  0  0  0  0  0  0  0  0
  1 12  1  0  0  0  0
  1 14  2  0  0  0  0
  1 17  1  0  0  0  0
  2  3  1  0  0  0  0
  2  4  1  0  0  0  0
  3  6  1  0  0  0  0
  4 12  1  0  0  0  0
  5  6  1  0  0  0  0
  5 12  1  0  0  0  0
  6 10  1  1  0  0  0
  7 11  1  0  0  0  0
  8 11  1  0  0  0  0
  9 11  1  0  0  0  0
 10 18  1  0  0  0  0
 11 17  1  0  0  0  0
 13 18  1  0  0  0  0
 15 18  2  0  0  0  0
 16 18  2  0  0  0  0
  2 19  1  0  0  0  0
  2 20  1  0  0  0  0
  3 21  1  0  0  0  0
  3 22  1  0  0  0  0
  4 23  1  0  0  0  0
  4 24  1  0  0  0  0
  5 25  1  0  0  0  0
  5 26  1  0  0  0  0
  6 27  1  0  0  0  0
  7 28  1  0  0  0  0
  7 29  1  0  0  0  0
  7 30  1  0  0  0  0
  8 31  1  0  0  0  0
  8 32  1  0  0  0  0
  8 33  1  0  0  0  0
  9 34  1  0  0  0  0
  9 35  1  0  0  0  0
  9 36  1  0  0  0  0
 10 37  1  0  0  0  0
 10 38  1  0  0  0  0
 13 39  1  0  0  0  0
 13 40  1  0  0  0  0
M  END
> <Mol Weight>
278,37

> <Formula>
C11H22N2O4S

> <ID>
EN300-27748696

> <name>
Sulfonamides

> <LogP>
0,05

> <ROCS_ShapeQuery>
x0310_0A_x0719_0A_x1080_0A_x0739_0A_x0929_0A_x0526_0A_x0911_0A

> <ROCS_TanimotoCombo>
0.312 

> <ROCS_ShapeTanimoto>
0.162 

> <ROCS_ColorTanimoto>
0.151 

> <ROCS_RefTversky>
0.159 

> <ROCS_RefColorTversky>
0.164 

> <ROCS_RefTverskyCombo>
0.322 

> <ROCS_FitTversky>
1.127 

> <ROCS_FitColorTversky>
0.658 

> <ROCS_FitTverskyCombo>
1.786 

> <ROCS_ColorScore>
-4.752

> <ROCS_Overlap>
1271.967

> <ROCS_Rank>
269                 

$$$$
untitled-dbase-1982_678
  -OEChem-02092407103D

 24 24  0     0  0  0  0  0  0999 V2000
    6.4487   14.3201   23.2581 C   0  0  0  0  0  0  0  0  0  0  0  0
    4.1757   10.7653   18.1929 C   0  0  0  0  0  0  0  0  0  0  0  0
    4.7349   11.1252   19.4190 C   0  0  0  0  0  0  0  0  0  0  0  0
    2.9455   11.2961   17.8047 C   0  0  0  0  0  0  0  0  0  0  0  0
    2.8337   12.5466   19.8688 C   0  0  0  0  0  0  0  0  0  0  0  0
    4.0639   12.0158   20.2570 C   0  0  0  0  0  0  0  0  0  0  0  0
    2.2745   12.1867   18.6427 C   0  0  0  0  0  0  0  0  0  0  0  0
    4.6478   12.3926   21.5345 C   0  0  0  0  0  0  0  0  0  0  0  0
    6.0000   14.3301   21.8658 C   0  0  0  0  0  0  0  0  0  0  0  0
    6.8045   14.3132   24.3624 N   0  0  0  0  0  0  0  0  0  0  0  0
   -0.3392   11.6887   18.8016 N   0  0  0  0  0  0  0  0  0  0  0  0
    4.1133   12.1962   22.6340 O   0  0  0  0  0  0  0  0  0  0  0  0
    0.5370   14.1126   18.8550 O   0  0  0  0  0  0  0  0  0  0  0  0
    0.6509   12.8076   16.7029 O   0  0  0  0  0  0  0  0  0  0  0  0
    5.8669   12.9925   21.3732 O   0  0  0  0  0  0  0  0  0  0  0  0
    0.7347   12.8504   18.1561 S   0  0  0  0  0  0  0  0  0  0  0  0
    4.6980   10.0713   17.5404 H   0  0  0  0  0  0  0  0  0  0  0  0
    5.6939   10.7052   19.7108 H   0  0  0  0  0  0  0  0  0  0  0  0
    2.5183   11.0088   16.8477 H   0  0  0  0  0  0  0  0  0  0  0  0
    2.3100   13.2410   20.5221 H   0  0  0  0  0  0  0  0  0  0  0  0
    5.0250   14.8183   21.7792 H   0  0  0  0  0  0  0  0  0  0  0  0
    6.7050   14.8677   21.2246 H   0  0  0  0  0  0  0  0  0  0  0  0
   -0.9048   11.9556   19.6166 H   0  0  0  0  0  0  0  0  0  0  0  0
   -0.8245   11.0642   18.1461 H   0  0  0  0  0  0  0  0  0  0  0  0
  1  9  1  0  0  0  0
  1 10  3  0  0  0  0
  2  3  1  0  0  0  0
  2  4  2  0  0  0  0
  3  6  2  0  0  0  0
  4  7  1  0  0  0  0
  5  6  1  0  0  0  0
  5  7  2  0  0  0  0
  6  8  1  0  0  0  0
  7 16  1  0  0  0  0
  8 12  2  0  0  0  0
  8 15  1  0  0  0  0
  9 15  1  0  0  0  0
 11 16  1  0  0  0  0
 13 16  2  0  0  0  0
 14 16  2  0  0  0  0
  2 17  1  0  0  0  0
  3 18  1  0  0  0  0
  4 19  1  0  0  0  0
  5 20  1  0  0  0  0
  9 21  1  0  0  0  0
  9 22  1  0  0  0  0
 11 23  1  0  0  0  0
 11 24  1  0  0  0  0
M  END
> <Mol Weight>
240,23

> <Formula>
C9H8N2O4S

> <ID>
EN300-27183

> <name>
Sulfonamides

> <LogP>
0,12

> <ROCS_ShapeQuery>
x0310_0A_x0719_0A_x1080_0A_x0739_0A_x0929_0A_x0526_0A_x0911_0A

> <ROCS_TanimotoCombo>
0.312 

> <ROCS_ShapeTanimoto>
0.183 

> <ROCS_ColorTanimoto>
0.129 

> <ROCS_RefTversky>
0.175 

> <ROCS_RefColorTversky>
0.143 

> <ROCS_RefTverskyCombo>
0.318 

> <ROCS_FitTversky>
1.320 

> <ROCS_FitColorTversky>
0.575 

> <ROCS_FitTverskyCombo>
1.895 

> <ROCS_ColorScore>
-4.148

> <ROCS_Overlap>
1405.228

> <ROCS_Rank>
270                 

$$$$
untitled-dbase-981_4
  -OEChem-02092407103D

 23 23  0     0  0  0  0  0  0999 V2000
   10.1277   11.8123   24.1841 C   0  0  0  0  0  0  0  0  0  0  0  0
    9.4301   12.7769   23.4571 C   0  0  0  0  0  0  0  0  0  0  0  0
    8.3426   10.2306   23.7984 C   0  0  0  0  0  0  0  0  0  0  0  0
    9.5840   10.5391   24.3547 C   0  0  0  0  0  0  0  0  0  0  0  0
    8.1888   12.4683   22.9007 C   0  0  0  0  0  0  0  0  0  0  0  0
    7.6450   11.1952   23.0714 C   0  0  0  0  0  0  0  0  0  0  0  0
   10.3296    9.5079   25.1322 C   0  0  0  0  0  0  0  0  0  0  0  0
    7.4445   13.5021   22.1249 C   0  0  0  0  0  0  0  0  0  0  0  0
    5.8247   15.5929   22.3609 N   0  0  0  0  0  0  0  0  0  0  0  0
    6.5994   14.3205   24.4579 O   0  0  0  0  0  0  0  0  0  0  0  0
    8.2552   15.7466   23.1891 O   0  0  0  0  0  0  0  0  0  0  0  0
    6.4523   10.8899   22.5413 F   0  0  0  0  0  0  0  0  0  0  0  0
    7.1084   14.8544   23.2060 S   0  0  0  0  0  0  0  0  0  0  0  0
   11.0945   12.0615   24.6130 H   0  0  0  0  0  0  0  0  0  0  0  0
    9.8618   13.7659   23.3283 H   0  0  0  0  0  0  0  0  0  0  0  0
    7.9104    9.2417   23.9267 H   0  0  0  0  0  0  0  0  0  0  0  0
   10.0560    9.5576   26.1933 H   0  0  0  0  0  0  0  0  0  0  0  0
   10.1123    8.4968   24.7640 H   0  0  0  0  0  0  0  0  0  0  0  0
   11.4147    9.6509   25.0457 H   0  0  0  0  0  0  0  0  0  0  0  0
    6.4870   13.1280   21.7452 H   0  0  0  0  0  0  0  0  0  0  0  0
    8.0252   13.8844   21.2776 H   0  0  0  0  0  0  0  0  0  0  0  0
    6.0469   16.0787   21.4833 H   0  0  0  0  0  0  0  0  0  0  0  0
    4.9193   15.1074   22.3476 H   0  0  0  0  0  0  0  0  0  0  0  0
  1  2  2  0  0  0  0
  1  4  1  0  0  0  0
  2  5  1  0  0  0  0
  3  4  2  0  0  0  0
  3  6  1  0  0  0  0
  4  7  1  0  0  0  0
  5  6  2  0  0  0  0
  5  8  1  0  0  0  0
  6 12  1  0  0  0  0
  8 13  1  0  0  0  0
  9 13  1  0  0  0  0
 10 13  2  0  0  0  0
 11 13  2  0  0  0  0
  1 14  1  0  0  0  0
  2 15  1  0  0  0  0
  3 16  1  0  0  0  0
  7 17  1  0  0  0  0
  7 18  1  0  0  0  0
  7 19  1  0  0  0  0
  8 20  1  0  0  0  0
  8 21  1  0  0  0  0
  9 22  1  0  0  0  0
  9 23  1  0  0  0  0
M  END
> <Mol Weight>
203,23

> <Formula>
C8H10FNO2S

> <ID>
EN300-177967

> <name>
Sulfonamides

> <LogP>
1,00

> <ROCS_ShapeQuery>
x0310_0A_x0719_0A_x1080_0A_x0739_0A_x0929_0A_x0526_0A_x0911_0A

> <ROCS_TanimotoCombo>
0.312 

> <ROCS_ShapeTanimoto>
0.151 

> <ROCS_ColorTanimoto>
0.161 

> <ROCS_RefTversky>
0.146 

> <ROCS_RefColorTversky>
0.164 

> <ROCS_RefTverskyCombo>
0.311 

> <ROCS_FitTversky>
1.253 

> <ROCS_FitColorTversky>
0.896 

> <ROCS_FitTverskyCombo>
2.149 

> <ROCS_ColorScore>
-4.764

> <ROCS_Overlap>
1171.701

> <ROCS_Rank>
271                 

$$$$
untitled-dbase-1064_16
  -OEChem-02092407103D

 19 19  0     0  0  0  0  0  0999 V2000
   10.1084   11.3236   23.0360 C   0  0  0  0  0  0  0  0  0  0  0  0
    9.1167   12.1672   22.5479 C   0  0  0  0  0  0  0  0  0  0  0  0
    9.7261   10.2942   23.8810 C   0  0  0  0  0  0  0  0  0  0  0  0
    7.7918   11.9586   22.9145 C   0  0  0  0  0  0  0  0  0  0  0  0
    7.5132   10.9006   23.7648 C   0  0  0  0  0  0  0  0  0  0  0  0
    6.7324   12.8649   22.3877 C   0  0  0  0  0  0  0  0  0  0  0  0
    8.4495   10.0602   24.2593 N   0  0  0  0  0  0  0  0  0  0  0  0
    6.1783   15.3990   21.8201 N   0  0  0  0  0  0  0  0  0  0  0  0
    6.4980   14.6669   24.2652 O   0  0  0  0  0  0  0  0  0  0  0  0
    8.4996   14.7598   22.7256 O   0  0  0  0  0  0  0  0  0  0  0  0
    7.0875   14.4995   22.9478 S   0  0  0  0  0  0  0  0  0  0  0  0
    5.9155   10.5421   24.2916 Cl  0  0  0  0  0  0  0  0  0  0  0  0
   11.1477   11.4669   22.7631 H   0  0  0  0  0  0  0  0  0  0  0  0
    9.3861   12.9834   21.8831 H   0  0  0  0  0  0  0  0  0  0  0  0
   10.4613    9.6087   24.2892 H   0  0  0  0  0  0  0  0  0  0  0  0
    5.7338   12.5944   22.7506 H   0  0  0  0  0  0  0  0  0  0  0  0
    6.7062   12.8831   21.2918 H   0  0  0  0  0  0  0  0  0  0  0  0
    6.5175   15.4330   20.8508 H   0  0  0  0  0  0  0  0  0  0  0  0
    5.1544   15.3699   21.8996 H   0  0  0  0  0  0  0  0  0  0  0  0
  1  2  2  0  0  0  0
  1  3  1  0  0  0  0
  2  4  1  0  0  0  0
  3  7  2  0  0  0  0
  4  5  2  0  0  0  0
  4  6  1  0  0  0  0
  5  7  1  0  0  0  0
  5 12  1  0  0  0  0
  6 11  1  0  0  0  0
  8 11  1  0  0  0  0
  9 11  2  0  0  0  0
 10 11  2  0  0  0  0
  1 13  1  0  0  0  0
  2 14  1  0  0  0  0
  3 15  1  0  0  0  0
  6 16  1  0  0  0  0
  6 17  1  0  0  0  0
  8 18  1  0  0  0  0
  8 19  1  0  0  0  0
M  END
> <Mol Weight>
206,64

> <Formula>
C6H7ClN2O2S

> <ID>
EN300-274604

> <name>
Sulfonamides

> <LogP>
-0,05

> <ROCS_ShapeQuery>
x0310_0A_x0719_0A_x1080_0A_x0739_0A_x0929_0A_x0526_0A_x0911_0A

> <ROCS_TanimotoCombo>
0.312 

> <ROCS_ShapeTanimoto>
0.149 

> <ROCS_ColorTanimoto>
0.163 

> <ROCS_RefTversky>
0.144 

> <ROCS_RefColorTversky>
0.170 

> <ROCS_RefTverskyCombo>
0.315 

> <ROCS_FitTversky>
1.300 

> <ROCS_FitColorTversky>
0.789 

> <ROCS_FitTverskyCombo>
2.089 

> <ROCS_ColorScore>
-4.945

> <ROCS_Overlap>
1153.828

> <ROCS_Rank>
272                 

$$$$
untitled-dbase-2026_6
  -OEChem-02092407103D

 31 32  0     1  0  0  0  0  0999 V2000
    8.5492   11.0708   24.9517 C   0  0  0  0  0  0  0  0  0  0  0  0
    9.6178   10.4456   24.3187 C   0  0  0  0  0  0  0  0  0  0  0  0
    7.7905   12.0226   24.2671 C   0  0  0  0  0  0  0  0  0  0  0  0
    9.9125   10.7552   22.9941 C   0  0  0  0  0  0  0  0  0  0  0  0
    8.0980   12.3814   22.9438 C   0  0  0  0  0  0  0  0  0  0  0  0
    9.1433   11.6981   22.3026 C   0  0  0  0  0  0  0  0  0  0  0  0
    7.9591   13.7826   20.8730 C   0  0  0  0  0  0  0  0  0  0  0  0
    7.2870   13.4056   22.1914 C   0  0  2  0  0  0  0  0  0  0  0  0
    8.5291   12.5543   20.1557 C   0  0  0  0  0  0  0  0  0  0  0  0
    9.3045   13.0178   18.9134 C   0  0  0  0  0  0  0  0  0  0  0  0
    7.4443   11.5625   19.7091 C   0  0  0  0  0  0  0  0  0  0  0  0
    5.7449   15.5557   22.4147 N   0  0  0  0  0  0  0  0  0  0  0  0
    6.7232   14.4479   24.5201 O   0  0  0  0  0  0  0  0  0  0  0  0
    8.2551   15.7092   22.9555 O   0  0  0  0  0  0  0  0  0  0  0  0
    9.4892   11.8803   20.9882 O   0  0  0  0  0  0  0  0  0  0  0  0
    7.0989   14.8648   23.1834 S   0  0  0  0  0  0  0  0  0  0  0  0
    8.3020   10.8175   25.9786 H   0  0  0  0  0  0  0  0  0  0  0  0
   10.2100    9.7069   24.8503 H   0  0  0  0  0  0  0  0  0  0  0  0
    6.9524   12.4802   24.7860 H   0  0  0  0  0  0  0  0  0  0  0  0
   10.7330   10.2442   22.4966 H   0  0  0  0  0  0  0  0  0  0  0  0
    7.2507   14.3239   20.2334 H   0  0  0  0  0  0  0  0  0  0  0  0
    8.7848   14.4792   21.0801 H   0  0  0  0  0  0  0  0  0  0  0  0
    6.2807   13.0127   22.0097 H   0  0  0  0  0  0  0  0  0  0  0  0
    9.7119   12.1526   18.3992 H   0  0  0  0  0  0  0  0  0  0  0  0
   10.1142   13.6740   19.2181 H   0  0  0  0  0  0  0  0  0  0  0  0
    8.6332   13.5531   18.2486 H   0  0  0  0  0  0  0  0  0  0  0  0
    7.9110   10.7188   19.2100 H   0  0  0  0  0  0  0  0  0  0  0  0
    6.7628   12.0584   19.0246 H   0  0  0  0  0  0  0  0  0  0  0  0
    6.8960   11.2128   20.5787 H   0  0  0  0  0  0  0  0  0  0  0  0
    4.8494   15.5440   22.9182 H   0  0  0  0  0  0  0  0  0  0  0  0
    5.8927   16.4029   21.8525 H   0  0  0  0  0  0  0  0  0  0  0  0
  1  2  1  0  0  0  0
  1  3  2  0  0  0  0
  2  4  2  0  0  0  0
  3  5  1  0  0  0  0
  4  6  1  0  0  0  0
  5  6  2  0  0  0  0
  5  8  1  0  0  0  0
  6 15  1  0  0  0  0
  7  8  1  0  0  0  0
  7  9  1  0  0  0  0
  8 16  1  0  0  0  0
  9 10  1  0  0  0  0
  9 11  1  0  0  0  0
  9 15  1  0  0  0  0
 12 16  1  0  0  0  0
 13 16  2  0  0  0  0
 14 16  2  0  0  0  0
  1 17  1  0  0  0  0
  2 18  1  0  0  0  0
  3 19  1  0  0  0  0
  4 20  1  0  0  0  0
  7 21  1  0  0  0  0
  7 22  1  0  0  0  0
  8 23  1  0  0  0  0
 10 24  1  0  0  0  0
 10 25  1  0  0  0  0
 10 26  1  0  0  0  0
 11 27  1  0  0  0  0
 11 28  1  0  0  0  0
 11 29  1  0  0  0  0
 12 30  1  0  0  0  0
 12 31  1  0  0  0  0
M  END
> <Mol Weight>
241,31

> <Formula>
C11H15NO3S

> <ID>
EN300-679990

> <name>
Sulfonamides

> <LogP>
0,98

> <ROCS_ShapeQuery>
x0310_0A_x0719_0A_x1080_0A_x0739_0A_x0929_0A_x0526_0A_x0911_0A

> <ROCS_TanimotoCombo>
0.312 

> <ROCS_ShapeTanimoto>
0.162 

> <ROCS_ColorTanimoto>
0.150 

> <ROCS_RefTversky>
0.158 

> <ROCS_RefColorTversky>
0.167 

> <ROCS_RefTverskyCombo>
0.325 

> <ROCS_FitTversky>
1.175 

> <ROCS_FitColorTversky>
0.595 

> <ROCS_FitTverskyCombo>
1.770 

> <ROCS_ColorScore>
-4.862

> <ROCS_Overlap>
1267.369

> <ROCS_Rank>
273                 

$$$$
untitled-dbase-1098_23
  -OEChem-02092407103D

 30 30  0     1  0  0  0  0  0999 V2000
    8.2974   10.3445   24.4814 C   0  0  0  0  0  0  0  0  0  0  0  0
    7.3150   11.3405   23.8791 C   0  0  0  0  0  0  0  0  0  0  0  0
    9.6786   10.9783   24.6098 C   0  0  0  0  0  0  0  0  0  0  0  0
    7.8598   11.9159   22.5723 C   0  0  1  0  0  0  0  0  0  0  0  0
   10.1546   11.6208   23.2943 C   0  0  0  0  0  0  0  0  0  0  0  0
   10.5536   10.5695   22.2480 C   0  0  0  0  0  0  0  0  0  0  0  0
   11.3781   12.5036   23.5789 C   0  0  0  0  0  0  0  0  0  0  0  0
    6.9403   13.0063   22.0359 C   0  0  0  0  0  0  0  0  0  0  0  0
    5.7323   15.3208   22.5205 N   0  0  0  0  0  0  0  0  0  0  0  0
    7.2448   14.2579   24.3092 O   0  0  0  0  0  0  0  0  0  0  0  0
    8.2864   15.2378   22.2259 O   0  0  0  0  0  0  0  0  0  0  0  0
    9.1482   12.5024   22.7733 O   0  0  0  0  0  0  0  0  0  0  0  0
    7.1990   14.5276   22.8807 S   0  0  0  0  0  0  0  0  0  0  0  0
    7.9434   10.0209   25.4667 H   0  0  0  0  0  0  0  0  0  0  0  0
    8.3498    9.4475   23.8539 H   0  0  0  0  0  0  0  0  0  0  0  0
    6.3456   10.8575   23.7133 H   0  0  0  0  0  0  0  0  0  0  0  0
    7.1579   12.1511   24.6024 H   0  0  0  0  0  0  0  0  0  0  0  0
    9.6127   11.7528   25.3860 H   0  0  0  0  0  0  0  0  0  0  0  0
   10.4014   10.2344   24.9650 H   0  0  0  0  0  0  0  0  0  0  0  0
    7.9315   11.1312   21.8112 H   0  0  0  0  0  0  0  0  0  0  0  0
   10.8809   11.0694   21.3413 H   0  0  0  0  0  0  0  0  0  0  0  0
    9.6979    9.9387   22.0264 H   0  0  0  0  0  0  0  0  0  0  0  0
   11.3627    9.9603   22.6395 H   0  0  0  0  0  0  0  0  0  0  0  0
   11.7177   12.9593   22.6534 H   0  0  0  0  0  0  0  0  0  0  0  0
   12.1739   11.8940   23.9967 H   0  0  0  0  0  0  0  0  0  0  0  0
   11.1057   13.2805   24.2875 H   0  0  0  0  0  0  0  0  0  0  0  0
    5.8968   12.7254   22.1745 H   0  0  0  0  0  0  0  0  0  0  0  0
    7.1332   13.1794   20.9779 H   0  0  0  0  0  0  0  0  0  0  0  0
    5.0565   15.4444   23.2844 H   0  0  0  0  0  0  0  0  0  0  0  0
    5.7659   16.1116   21.8654 H   0  0  0  0  0  0  0  0  0  0  0  0
  1  2  1  0  0  0  0
  1  3  1  0  0  0  0
  2  4  1  0  0  0  0
  3  5  1  0  0  0  0
  4  8  1  0  0  0  0
  4 12  1  0  0  0  0
  5  6  1  0  0  0  0
  5  7  1  0  0  0  0
  5 12  1  0  0  0  0
  8 13  1  0  0  0  0
  9 13  1  0  0  0  0
 10 13  2  0  0  0  0
 11 13  2  0  0  0  0
  1 14  1  0  0  0  0
  1 15  1  0  0  0  0
  2 16  1  0  0  0  0
  2 17  1  0  0  0  0
  3 18  1  0  0  0  0
  3 19  1  0  0  0  0
  4 20  1  0  0  0  0
  6 21  1  0  0  0  0
  6 22  1  0  0  0  0
  6 23  1  0  0  0  0
  7 24  1  0  0  0  0
  7 25  1  0  0  0  0
  7 26  1  0  0  0  0
  8 27  1  0  0  0  0
  8 28  1  0  0  0  0
  9 29  1  0  0  0  0
  9 30  1  0  0  0  0
M  END
> <Mol Weight>
207,29

> <Formula>
C8H17NO3S

> <ID>
EN300-366697

> <name>
Sulfonamides

> <LogP>
0,18

> <ROCS_ShapeQuery>
x0310_0A_x0719_0A_x1080_0A_x0739_0A_x0929_0A_x0526_0A_x0911_0A

> <ROCS_TanimotoCombo>
0.312 

> <ROCS_ShapeTanimoto>
0.160 

> <ROCS_ColorTanimoto>
0.152 

> <ROCS_RefTversky>
0.154 

> <ROCS_RefColorTversky>
0.165 

> <ROCS_RefTverskyCombo>
0.318 

> <ROCS_FitTversky>
1.342 

> <ROCS_FitColorTversky>
0.663 

> <ROCS_FitTverskyCombo>
2.005 

> <ROCS_ColorScore>
-4.786

> <ROCS_Overlap>
1229.294

> <ROCS_Rank>
274                 

$$$$
untitled-dbase-2810_13
  -OEChem-02092407103D

 40 41  0     0  0  0  0  0  0999 V2000
    6.0471   12.2642   21.1707 B   0  0  0  0  0  0  0  0  0  0  0  0
    3.5917   12.9774   21.0336 C   0  0  0  0  0  0  0  0  0  0  0  0
    4.5926   11.9523   19.0882 C   0  0  0  0  0  0  0  0  0  0  0  0
    2.3843   13.1024   20.3465 C   0  0  0  0  0  0  0  0  0  0  0  0
    3.3852   12.0773   18.4011 C   0  0  0  0  0  0  0  0  0  0  0  0
    4.6959   12.4024   20.4044 C   0  0  0  0  0  0  0  0  0  0  0  0
    2.2810   12.6524   19.0303 C   0  0  0  0  0  0  0  0  0  0  0  0
    8.0294   12.8430   22.1447 C   0  0  0  0  0  0  0  0  0  0  0  0
    7.7805   11.3048   22.3055 C   0  0  0  0  0  0  0  0  0  0  0  0
    8.3910   13.5728   23.4461 C   0  0  0  0  0  0  0  0  0  0  0  0
    9.0836   13.2222   21.0801 C   0  0  0  0  0  0  0  0  0  0  0  0
    7.3430   10.8622   23.7203 C   0  0  0  0  0  0  0  0  0  0  0  0
    8.9581   10.4174   21.8780 C   0  0  0  0  0  0  0  0  0  0  0  0
   -0.3145   10.9992   19.9402 C   0  0  0  0  0  0  0  0  0  0  0  0
   -0.0201   11.3404   18.5410 N   0  0  0  0  0  0  0  0  0  0  0  0
    0.0093   13.9073   18.7572 O   0  0  0  0  0  0  0  0  0  0  0  0
    1.0682   12.8320   16.7455 O   0  0  0  0  0  0  0  0  0  0  0  0
    6.7415   13.3605   21.6758 O   0  0  0  0  0  0  0  0  0  0  0  0
    6.6568   11.0343   21.4052 O   0  0  0  0  0  0  0  0  0  0  0  0
    0.7694   12.8105   18.1713 S   0  0  0  0  0  0  0  0  0  0  0  0
    3.6442   13.3384   22.0590 H   0  0  0  0  0  0  0  0  0  0  0  0
    5.4380   11.5006   18.5724 H   0  0  0  0  0  0  0  0  0  0  0  0
    1.5311   13.5548   20.8449 H   0  0  0  0  0  0  0  0  0  0  0  0
    3.3148   11.7227   17.3762 H   0  0  0  0  0  0  0  0  0  0  0  0
    8.5420   14.6228   23.2295 H   0  0  0  0  0  0  0  0  0  0  0  0
    9.2996   13.1430   23.8487 H   0  0  0  0  0  0  0  0  0  0  0  0
    7.5794   13.4530   24.1529 H   0  0  0  0  0  0  0  0  0  0  0  0
    9.1858   14.3028   21.0421 H   0  0  0  0  0  0  0  0  0  0  0  0
    8.7653   12.8535   20.1094 H   0  0  0  0  0  0  0  0  0  0  0  0
   10.0385   12.7763   21.3427 H   0  0  0  0  0  0  0  0  0  0  0  0
    7.1957    9.7862   23.7327 H   0  0  0  0  0  0  0  0  0  0  0  0
    6.4134   11.3587   23.9827 H   0  0  0  0  0  0  0  0  0  0  0  0
    8.1133   11.1314   24.4372 H   0  0  0  0  0  0  0  0  0  0  0  0
    8.6876    9.3796   22.0269 H   0  0  0  0  0  0  0  0  0  0  0  0
    9.8218   10.6656   22.4818 H   0  0  0  0  0  0  0  0  0  0  0  0
    9.1722   10.5984   20.8321 H   0  0  0  0  0  0  0  0  0  0  0  0
   -0.4037   11.9220   20.5322 H   0  0  0  0  0  0  0  0  0  0  0  0
   -1.2598   10.4390   19.9897 H   0  0  0  0  0  0  0  0  0  0  0  0
    0.4999   10.3808   20.3457 H   0  0  0  0  0  0  0  0  0  0  0  0
    0.0841   10.5475   17.8962 H   0  0  0  0  0  0  0  0  0  0  0  0
  1  6  1  0  0  0  0
  1 18  1  0  0  0  0
  1 19  1  0  0  0  0
  2  4  2  0  0  0  0
  2  6  1  0  0  0  0
  3  5  1  0  0  0  0
  3  6  2  0  0  0  0
  4  7  1  0  0  0  0
  5  7  2  0  0  0  0
  7 20  1  0  0  0  0
  8  9  1  0  0  0  0
  8 10  1  0  0  0  0
  8 11  1  0  0  0  0
  8 18  1  0  0  0  0
  9 12  1  0  0  0  0
  9 13  1  0  0  0  0
  9 19  1  0  0  0  0
 14 15  1  0  0  0  0
 15 20  1  0  0  0  0
 16 20  2  0  0  0  0
 17 20  2  0  0  0  0
  2 21  1  0  0  0  0
  3 22  1  0  0  0  0
  4 23  1  0  0  0  0
  5 24  1  0  0  0  0
 10 25  1  0  0  0  0
 10 26  1  0  0  0  0
 10 27  1  0  0  0  0
 11 28  1  0  0  0  0
 11 29  1  0  0  0  0
 11 30  1  0  0  0  0
 12 31  1  0  0  0  0
 12 32  1  0  0  0  0
 12 33  1  0  0  0  0
 13 34  1  0  0  0  0
 13 35  1  0  0  0  0
 13 36  1  0  0  0  0
 14 37  1  0  0  0  0
 14 38  1  0  0  0  0
 14 39  1  0  0  0  0
 15 40  1  0  0  0  0
M  END
> <Mol Weight>
297,18

> <Formula>
C13H20BNO4S

> <ID>
EN300-7372675

> <name>
Sulfonamides

> <LogP>
2,78

> <ROCS_ShapeQuery>
x0310_0A_x0719_0A_x1080_0A_x0739_0A_x0929_0A_x0526_0A_x0911_0A

> <ROCS_TanimotoCombo>
0.312 

> <ROCS_ShapeTanimoto>
0.212 

> <ROCS_ColorTanimoto>
0.099 

> <ROCS_RefTversky>
0.202 

> <ROCS_RefColorTversky>
0.116 

> <ROCS_RefTverskyCombo>
0.318 

> <ROCS_FitTversky>
1.316 

> <ROCS_FitColorTversky>
0.412 

> <ROCS_FitTverskyCombo>
1.728 

> <ROCS_ColorScore>
-3.368

> <ROCS_Overlap>
1621.608

> <ROCS_Rank>
275                 

$$$$
untitled-dbase-1864_224
  -OEChem-02092407103D

 28 29  0     0  0  0  0  0  0999 V2000
   10.0372   13.1014   20.4475 C   0  0  0  0  0  0  0  0  0  0  0  0
    9.2391   10.7469   24.6056 C   0  0  0  0  0  0  0  0  0  0  0  0
   10.5059   12.2875   21.4748 C   0  0  0  0  0  0  0  0  0  0  0  0
   10.1023   11.0969   23.5774 C   0  0  0  0  0  0  0  0  0  0  0  0
    8.7211   13.5458   20.4708 C   0  0  0  0  0  0  0  0  0  0  0  0
    7.9486   11.2329   24.5487 C   0  0  0  0  0  0  0  0  0  0  0  0
    9.6566   11.9152   22.5306 C   0  0  0  0  0  0  0  0  0  0  0  0
    7.8770   13.1755   21.5207 C   0  0  0  0  0  0  0  0  0  0  0  0
    8.3191   12.3625   22.5607 C   0  0  0  0  0  0  0  0  0  0  0  0
    6.0053   17.0643   23.6271 C   0  0  0  0  0  0  0  0  0  0  0  0
    6.4672   13.6802   21.5011 C   0  0  0  0  0  0  0  0  0  0  0  0
    7.4791   12.0245   23.5572 N   0  0  0  0  0  0  0  0  0  0  0  0
    6.3837   15.0685   21.8688 N   0  0  0  0  0  0  0  0  0  0  0  0
    8.3698   16.0104   23.2410 O   0  0  0  0  0  0  0  0  0  0  0  0
    6.6045   14.6536   24.4240 O   0  0  0  0  0  0  0  0  0  0  0  0
    6.9876   15.6004   23.3943 S   0  0  0  0  0  0  0  0  0  0  0  0
   10.6966   13.3872   19.6335 H   0  0  0  0  0  0  0  0  0  0  0  0
    9.5675   10.1164   25.4233 H   0  0  0  0  0  0  0  0  0  0  0  0
   11.5380   11.9451   21.4466 H   0  0  0  0  0  0  0  0  0  0  0  0
   11.1258   10.7294   23.5978 H   0  0  0  0  0  0  0  0  0  0  0  0
    8.3568   14.1819   19.6682 H   0  0  0  0  0  0  0  0  0  0  0  0
    7.2293   10.9928   25.3247 H   0  0  0  0  0  0  0  0  0  0  0  0
    6.2857   17.5195   24.5782 H   0  0  0  0  0  0  0  0  0  0  0  0
    6.2063   17.7487   22.8015 H   0  0  0  0  0  0  0  0  0  0  0  0
    4.9534   16.7750   23.6369 H   0  0  0  0  0  0  0  0  0  0  0  0
    6.0280   13.5719   20.5019 H   0  0  0  0  0  0  0  0  0  0  0  0
    5.8335   13.1145   22.1945 H   0  0  0  0  0  0  0  0  0  0  0  0
    6.5099   15.7513   21.0904 H   0  0  0  0  0  0  0  0  0  0  0  0
  1  3  1  0  0  0  0
  1  5  2  0  0  0  0
  2  4  2  0  0  0  0
  2  6  1  0  0  0  0
  3  7  2  0  0  0  0
  4  7  1  0  0  0  0
  5  8  1  0  0  0  0
  6 12  2  0  0  0  0
  7  9  1  0  0  0  0
  8  9  2  0  0  0  0
  8 11  1  0  0  0  0
  9 12  1  0  0  0  0
 10 16  1  0  0  0  0
 11 13  1  0  0  0  0
 13 16  1  0  0  0  0
 14 16  2  0  0  0  0
 15 16  2  0  0  0  0
  1 17  1  0  0  0  0
  2 18  1  0  0  0  0
  3 19  1  0  0  0  0
  4 20  1  0  0  0  0
  5 21  1  0  0  0  0
  6 22  1  0  0  0  0
 10 23  1  0  0  0  0
 10 24  1  0  0  0  0
 10 25  1  0  0  0  0
 11 26  1  0  0  0  0
 11 27  1  0  0  0  0
 13 28  1  0  0  0  0
M  END
> <Mol Weight>
236,29

> <Formula>
C11H12N2O2S

> <ID>
EN300-320979

> <name>
Sulfonamides

> <LogP>
0,57

> <ROCS_ShapeQuery>
x0310_0A_x0719_0A_x1080_0A_x0739_0A_x0929_0A_x0526_0A_x0911_0A

> <ROCS_TanimotoCombo>
0.312 

> <ROCS_ShapeTanimoto>
0.168 

> <ROCS_ColorTanimoto>
0.143 

> <ROCS_RefTversky>
0.164 

> <ROCS_RefColorTversky>
0.157 

> <ROCS_RefTverskyCombo>
0.320 

> <ROCS_FitTversky>
1.211 

> <ROCS_FitColorTversky>
0.630 

> <ROCS_FitTverskyCombo>
1.840 

> <ROCS_ColorScore>
-4.549

> <ROCS_Overlap>
1310.246

> <ROCS_Rank>
276                 

$$$$
untitled-dbase-1950_74
  -OEChem-02092407103D

 25 25  0     0  0  0  0  0  0999 V2000
    8.1817   12.5103   23.5844 C   0  0  0  0  0  0  0  0  0  0  0  0
    4.4457   11.3838   19.1812 C   0  0  0  0  0  0  0  0  0  0  0  0
    3.7167   12.8516   20.9563 C   0  0  0  0  0  0  0  0  0  0  0  0
    3.2586   11.6288   18.4910 C   0  0  0  0  0  0  0  0  0  0  0  0
    2.5296   13.0967   20.2662 C   0  0  0  0  0  0  0  0  0  0  0  0
    4.6748   11.9952   20.4138 C   0  0  0  0  0  0  0  0  0  0  0  0
    2.3005   12.4852   19.0335 C   0  0  0  0  0  0  0  0  0  0  0  0
    6.8465   12.6731   21.4965 C   0  0  0  0  0  0  0  0  0  0  0  0
    7.9833   11.9819   22.2303 C   0  0  0  0  0  0  0  0  0  0  0  0
    8.3421   12.9255   24.6561 N   0  0  0  0  0  0  0  0  0  0  0  0
   -0.1832   11.5495   18.7875 N   0  0  0  0  0  0  0  0  0  0  0  0
    5.8622   11.7501   21.1041 N   0  0  0  0  0  0  0  0  0  0  0  0
    6.8357   13.8836   21.2962 O   0  0  0  0  0  0  0  0  0  0  0  0
    0.2871   14.0775   18.6044 O   0  0  0  0  0  0  0  0  0  0  0  0
    1.0437   12.5456   16.7529 O   0  0  0  0  0  0  0  0  0  0  0  0
    0.8144   12.7916   18.1698 S   0  0  0  0  0  0  0  0  0  0  0  0
    5.1853   10.7145   18.7489 H   0  0  0  0  0  0  0  0  0  0  0  0
    3.8846   13.3337   21.9161 H   0  0  0  0  0  0  0  0  0  0  0  0
    3.0902   11.1471   17.5315 H   0  0  0  0  0  0  0  0  0  0  0  0
    1.7899   13.7656   20.6978 H   0  0  0  0  0  0  0  0  0  0  0  0
    7.7627   10.9094   22.2807 H   0  0  0  0  0  0  0  0  0  0  0  0
    8.9012   12.1092   21.6449 H   0  0  0  0  0  0  0  0  0  0  0  0
   -0.9402   11.8139   19.4296 H   0  0  0  0  0  0  0  0  0  0  0  0
   -0.4210   10.7678   18.1649 H   0  0  0  0  0  0  0  0  0  0  0  0
    6.0456   10.7731   21.3609 H   0  0  0  0  0  0  0  0  0  0  0  0
  1  9  1  0  0  0  0
  1 10  3  0  0  0  0
  2  4  2  0  0  0  0
  2  6  1  0  0  0  0
  3  5  1  0  0  0  0
  3  6  2  0  0  0  0
  4  7  1  0  0  0  0
  5  7  2  0  0  0  0
  6 12  1  0  0  0  0
  7 16  1  0  0  0  0
  8  9  1  0  0  0  0
  8 12  1  0  0  0  0
  8 13  2  0  0  0  0
 11 16  1  0  0  0  0
 14 16  2  0  0  0  0
 15 16  2  0  0  0  0
  2 17  1  0  0  0  0
  3 18  1  0  0  0  0
  4 19  1  0  0  0  0
  5 20  1  0  0  0  0
  9 21  1  0  0  0  0
  9 22  1  0  0  0  0
 11 23  1  0  0  0  0
 11 24  1  0  0  0  0
 12 25  1  0  0  0  0
M  END
> <Mol Weight>
239,25

> <Formula>
C9H9N3O3S

> <ID>
EN300-01421

> <name>
Sulfonamides

> <LogP>
-0,23

> <ROCS_ShapeQuery>
x0310_0A_x0719_0A_x1080_0A_x0739_0A_x0929_0A_x0526_0A_x0911_0A

> <ROCS_TanimotoCombo>
0.312 

> <ROCS_ShapeTanimoto>
0.200 

> <ROCS_ColorTanimoto>
0.111 

> <ROCS_RefTversky>
0.189 

> <ROCS_RefColorTversky>
0.128 

> <ROCS_RefTverskyCombo>
0.317 

> <ROCS_FitTversky>
1.428 

> <ROCS_FitColorTversky>
0.457 

> <ROCS_FitTverskyCombo>
1.885 

> <ROCS_ColorScore>
-3.734

> <ROCS_Overlap>
1513.385

> <ROCS_Rank>
277                 

$$$$
untitled-dbase-1671_66
  -OEChem-02092407103D

 27 27  0     0  0  0  0  0  0999 V2000
    8.6987    9.8063   23.5222 C   0  0  0  0  0  0  0  0  0  0  0  0
    7.9975   10.5040   24.5056 C   0  0  0  0  0  0  0  0  0  0  0  0
    9.5603   10.4886   22.6631 C   0  0  0  0  0  0  0  0  0  0  0  0
    8.1577   11.8840   24.6299 C   0  0  0  0  0  0  0  0  0  0  0  0
    9.7204   11.8686   22.7874 C   0  0  0  0  0  0  0  0  0  0  0  0
    9.0192   12.5664   23.7708 C   0  0  0  0  0  0  0  0  0  0  0  0
   10.6272   12.5531   21.8749 C   0  0  0  0  0  0  0  0  0  0  0  0
   11.3730   11.7407   20.8126 C   0  0  0  0  0  0  0  0  0  0  0  0
    7.4770   14.3198   21.8577 C   0  0  0  0  0  0  0  0  0  0  0  0
   10.8016   13.8523   21.9806 N   0  0  0  0  0  0  0  0  0  0  0  0
    9.1672   13.9816   23.9165 N   0  0  0  0  0  0  0  0  0  0  0  0
    6.7170   14.6686   24.3210 O   0  0  0  0  0  0  0  0  0  0  0  0
    8.2726   16.3603   23.2899 O   0  0  0  0  0  0  0  0  0  0  0  0
   11.7199   14.3487   21.0535 O   0  0  0  0  0  0  0  0  0  0  0  0
    7.8450   14.9865   23.4654 S   0  0  0  0  0  0  0  0  0  0  0  0
    8.5742    8.7318   23.4253 H   0  0  0  0  0  0  0  0  0  0  0  0
    7.3262    9.9726   25.1737 H   0  0  0  0  0  0  0  0  0  0  0  0
   10.1017    9.9334   21.9014 H   0  0  0  0  0  0  0  0  0  0  0  0
    7.6058   12.4175   25.3996 H   0  0  0  0  0  0  0  0  0  0  0  0
   10.7896   11.6840   19.8885 H   0  0  0  0  0  0  0  0  0  0  0  0
   12.3373   12.2118   20.6022 H   0  0  0  0  0  0  0  0  0  0  0  0
   11.5385   10.7142   21.1490 H   0  0  0  0  0  0  0  0  0  0  0  0
    6.6361   14.8748   21.4390 H   0  0  0  0  0  0  0  0  0  0  0  0
    8.3609   14.4321   21.2279 H   0  0  0  0  0  0  0  0  0  0  0  0
    7.2204   13.2657   21.9726 H   0  0  0  0  0  0  0  0  0  0  0  0
   10.0956   14.3390   23.6405 H   0  0  0  0  0  0  0  0  0  0  0  0
   11.7239   15.2962   21.2705 H   0  0  0  0  0  0  0  0  0  0  0  0
  1  2  1  0  0  0  0
  1  3  2  0  0  0  0
  2  4  2  0  0  0  0
  3  5  1  0  0  0  0
  4  6  1  0  0  0  0
  5  6  2  0  0  0  0
  5  7  1  0  0  0  0
  6 11  1  0  0  0  0
  7  8  1  0  0  0  0
  7 10  2  0  0  0  0
  9 15  1  0  0  0  0
 10 14  1  4  0  0  0
 11 15  1  0  0  0  0
 12 15  2  0  0  0  0
 13 15  2  0  0  0  0
  1 16  1  0  0  0  0
  2 17  1  0  0  0  0
  3 18  1  0  0  0  0
  4 19  1  0  0  0  0
  8 20  1  0  0  0  0
  8 21  1  0  0  0  0
  8 22  1  0  0  0  0
  9 23  1  0  0  0  0
  9 24  1  0  0  0  0
  9 25  1  0  0  0  0
 11 26  1  0  0  0  0
 14 27  1  0  0  0  0
M  END
> <Mol Weight>
228,27

> <Formula>
C9H12N2O3S

> <ID>
EN300-39392

> <name>
Sulfonamides

> <LogP>
-0,09

> <ROCS_ShapeQuery>
x0310_0A_x0719_0A_x1080_0A_x0739_0A_x0929_0A_x0526_0A_x0911_0A

> <ROCS_TanimotoCombo>
0.311 

> <ROCS_ShapeTanimoto>
0.180 

> <ROCS_ColorTanimoto>
0.131 

> <ROCS_RefTversky>
0.172 

> <ROCS_RefColorTversky>
0.145 

> <ROCS_RefTverskyCombo>
0.317 

> <ROCS_FitTversky>
1.352 

> <ROCS_FitColorTversky>
0.584 

> <ROCS_FitTverskyCombo>
1.936 

> <ROCS_ColorScore>
-4.216

> <ROCS_Overlap>
1377.230

> <ROCS_Rank>
278                 

$$$$
untitled-dbase-2411_105
  -OEChem-02092407103D

 27 27  0     0  0  0  0  0  0999 V2000
    4.6002   11.2861   18.4257 C   0  0  0  0  0  0  0  0  0  0  0  0
    5.0438   11.7528   19.6630 C   0  0  0  0  0  0  0  0  0  0  0  0
    3.3200   11.6099   17.9762 C   0  0  0  0  0  0  0  0  0  0  0  0
    2.9269   12.8671   20.0015 C   0  0  0  0  0  0  0  0  0  0  0  0
    4.2071   12.5433   20.4509 C   0  0  0  0  0  0  0  0  0  0  0  0
    2.4834   12.4003   18.7641 C   0  0  0  0  0  0  0  0  0  0  0  0
    5.9638   13.3174   22.0812 C   0  0  0  0  0  0  0  0  0  0  0  0
    6.0084   13.7990   23.5269 C   0  0  0  0  0  0  0  0  0  0  0  0
    7.4054   14.1498   24.0184 C   0  0  0  0  0  0  0  0  0  0  0  0
   -0.0250   11.5015   18.8349 N   0  0  0  0  0  0  0  0  0  0  0  0
    4.6508   13.0104   21.6884 N   0  0  0  0  0  0  0  0  0  0  0  0
    6.9722   13.2444   21.3868 O   0  0  0  0  0  0  0  0  0  0  0  0
    0.4592   14.0334   18.8592 O   0  0  0  0  0  0  0  0  0  0  0  0
    0.8661   12.7206   16.7477 O   0  0  0  0  0  0  0  0  0  0  0  0
    0.8809   12.8045   18.2015 S   0  0  0  0  0  0  0  0  0  0  0  0
    8.4879   12.7368   23.9483 Cl  0  0  0  0  0  0  0  0  0  0  0  0
    5.2516   10.6710   17.8117 H   0  0  0  0  0  0  0  0  0  0  0  0
    6.0437   11.4946   20.0025 H   0  0  0  0  0  0  0  0  0  0  0  0
    2.9842   11.2406   17.0109 H   0  0  0  0  0  0  0  0  0  0  0  0
    2.2739   13.4836   20.6153 H   0  0  0  0  0  0  0  0  0  0  0  0
    5.3800   14.6964   23.5837 H   0  0  0  0  0  0  0  0  0  0  0  0
    5.5556   13.0393   24.1756 H   0  0  0  0  0  0  0  0  0  0  0  0
    7.8584   14.9486   23.4237 H   0  0  0  0  0  0  0  0  0  0  0  0
    7.3683   14.4747   25.0623 H   0  0  0  0  0  0  0  0  0  0  0  0
   -0.6591   11.6923   19.6204 H   0  0  0  0  0  0  0  0  0  0  0  0
   -0.3788   10.7958   18.1776 H   0  0  0  0  0  0  0  0  0  0  0  0
    3.9301   13.1519   22.4057 H   0  0  0  0  0  0  0  0  0  0  0  0
  1  2  1  0  0  0  0
  1  3  2  0  0  0  0
  2  5  2  0  0  0  0
  3  6  1  0  0  0  0
  4  5  1  0  0  0  0
  4  6  2  0  0  0  0
  5 11  1  0  0  0  0
  6 15  1  0  0  0  0
  7  8  1  0  0  0  0
  7 11  1  0  0  0  0
  7 12  2  0  0  0  0
  8  9  1  0  0  0  0
  9 16  1  0  0  0  0
 10 15  1  0  0  0  0
 13 15  2  0  0  0  0
 14 15  2  0  0  0  0
  1 17  1  0  0  0  0
  2 18  1  0  0  0  0
  3 19  1  0  0  0  0
  4 20  1  0  0  0  0
  8 21  1  0  0  0  0
  8 22  1  0  0  0  0
  9 23  1  0  0  0  0
  9 24  1  0  0  0  0
 10 25  1  0  0  0  0
 10 26  1  0  0  0  0
 11 27  1  0  0  0  0
M  END
> <Mol Weight>
262,71

> <Formula>
C9H11ClN2O3S

> <ID>
EN300-25818

> <name>
Sulfonamides

> <LogP>
0,59

> <ROCS_ShapeQuery>
x0310_0A_x0719_0A_x1080_0A_x0739_0A_x0929_0A_x0526_0A_x0911_0A

> <ROCS_TanimotoCombo>
0.311 

> <ROCS_ShapeTanimoto>
0.201 

> <ROCS_ColorTanimoto>
0.110 

> <ROCS_RefTversky>
0.189 

> <ROCS_RefColorTversky>
0.124 

> <ROCS_RefTverskyCombo>
0.313 

> <ROCS_FitTversky>
1.450 

> <ROCS_FitColorTversky>
0.500 

> <ROCS_FitTverskyCombo>
1.950 

> <ROCS_ColorScore>
-3.606

> <ROCS_Overlap>
1516.430

> <ROCS_Rank>
279                 

$$$$
untitled-dbase-2655_199
  -OEChem-02092407103D

 38 38  0     1  0  0  0  0  0999 V2000
    6.1523   12.9848   21.0117 C   0  0  0  0  0  0  0  0  0  0  0  0
    5.9534   11.8192   18.7762 C   0  0  0  0  0  0  0  0  0  0  0  0
    3.9980   11.9969   20.2659 C   0  0  0  0  0  0  0  0  0  0  0  0
    5.0371   12.1836   17.6162 C   0  0  0  0  0  0  0  0  0  0  0  0
    3.1578   12.3626   19.0416 C   0  0  2  0  0  0  0  0  0  0  0  0
    7.7096   12.9106   23.4112 C   0  0  0  0  0  0  0  0  0  0  0  0
    9.6855   12.5702   21.8982 C   0  0  0  0  0  0  0  0  0  0  0  0
    8.3417   14.6863   21.7433 C   0  0  0  0  0  0  0  0  0  0  0  0
    1.7210   11.8872   19.1994 C   0  0  0  0  0  0  0  0  0  0  0  0
    8.2937   13.1855   22.0263 C   0  0  0  0  0  0  0  0  0  0  0  0
    5.4021   12.3300   20.0332 N   0  0  0  0  0  0  0  0  0  0  0  0
   -0.6829   11.6910   18.0886 N   0  0  0  0  0  0  0  0  0  0  0  0
    5.7045   13.8455   21.7670 O   0  0  0  0  0  0  0  0  0  0  0  0
    0.2197   13.9897   18.8084 O   0  0  0  0  0  0  0  0  0  0  0  0
    1.2382   12.8269   16.8094 O   0  0  0  0  0  0  0  0  0  0  0  0
    3.7040   11.7337   17.8735 O   0  0  0  0  0  0  0  0  0  0  0  0
    7.4550   12.5633   21.0462 O   0  0  0  0  0  0  0  0  0  0  0  0
    0.6363   12.7715   18.1321 S   0  0  0  0  0  0  0  0  0  0  0  0
    6.0105   10.7297   18.8848 H   0  0  0  0  0  0  0  0  0  0  0  0
    6.9632   12.1951   18.5932 H   0  0  0  0  0  0  0  0  0  0  0  0
    3.6216   12.5015   21.1615 H   0  0  0  0  0  0  0  0  0  0  0  0
    3.9655   10.9159   20.4490 H   0  0  0  0  0  0  0  0  0  0  0  0
    5.0324   13.2642   17.4307 H   0  0  0  0  0  0  0  0  0  0  0  0
    5.3815   11.6913   16.7013 H   0  0  0  0  0  0  0  0  0  0  0  0
    3.1529   13.4499   18.8911 H   0  0  0  0  0  0  0  0  0  0  0  0
    6.7106   13.3507   23.5071 H   0  0  0  0  0  0  0  0  0  0  0  0
    7.6374   11.8368   23.6126 H   0  0  0  0  0  0  0  0  0  0  0  0
    8.3257   13.3688   24.1934 H   0  0  0  0  0  0  0  0  0  0  0  0
   10.1084   12.7650   20.9060 H   0  0  0  0  0  0  0  0  0  0  0  0
    9.6419   11.4804   22.0066 H   0  0  0  0  0  0  0  0  0  0  0  0
   10.3734   12.9663   22.6521 H   0  0  0  0  0  0  0  0  0  0  0  0
    8.7606   14.8838   20.7499 H   0  0  0  0  0  0  0  0  0  0  0  0
    7.3458   15.1384   21.7944 H   0  0  0  0  0  0  0  0  0  0  0  0
    8.9935   15.1975   22.4609 H   0  0  0  0  0  0  0  0  0  0  0  0
    1.3765   12.0448   20.2216 H   0  0  0  0  0  0  0  0  0  0  0  0
    1.6388   10.8296   18.9484 H   0  0  0  0  0  0  0  0  0  0  0  0
   -1.5435   11.9684   18.5765 H   0  0  0  0  0  0  0  0  0  0  0  0
   -0.8497   11.1764   17.2151 H   0  0  0  0  0  0  0  0  0  0  0  0
  1 11  1  0  0  0  0
  1 13  2  0  0  0  0
  1 17  1  0  0  0  0
  2  4  1  0  0  0  0
  2 11  1  0  0  0  0
  3  5  1  0  0  0  0
  3 11  1  0  0  0  0
  4 16  1  0  0  0  0
  5  9  1  1  0  0  0
  5 16  1  0  0  0  0
  6 10  1  0  0  0  0
  7 10  1  0  0  0  0
  8 10  1  0  0  0  0
  9 18  1  0  0  0  0
 10 17  1  0  0  0  0
 12 18  1  0  0  0  0
 14 18  2  0  0  0  0
 15 18  2  0  0  0  0
  2 19  1  0  0  0  0
  2 20  1  0  0  0  0
  3 21  1  0  0  0  0
  3 22  1  0  0  0  0
  4 23  1  0  0  0  0
  4 24  1  0  0  0  0
  5 25  1  0  0  0  0
  6 26  1  0  0  0  0
  6 27  1  0  0  0  0
  6 28  1  0  0  0  0
  7 29  1  0  0  0  0
  7 30  1  0  0  0  0
  7 31  1  0  0  0  0
  8 32  1  0  0  0  0
  8 33  1  0  0  0  0
  8 34  1  0  0  0  0
  9 35  1  0  0  0  0
  9 36  1  0  0  0  0
 12 37  1  0  0  0  0
 12 38  1  0  0  0  0
M  END
> <Mol Weight>
280,34

> <Formula>
C10H20N2O5S

> <ID>
EN300-33051227

> <name>
Sulfonamides

> <LogP>
-0,62

> <ROCS_ShapeQuery>
x0310_0A_x0719_0A_x1080_0A_x0739_0A_x0929_0A_x0526_0A_x0911_0A

> <ROCS_TanimotoCombo>
0.311 

> <ROCS_ShapeTanimoto>
0.192 

> <ROCS_ColorTanimoto>
0.119 

> <ROCS_RefTversky>
0.184 

> <ROCS_RefColorTversky>
0.136 

> <ROCS_RefTverskyCombo>
0.320 

> <ROCS_FitTversky>
1.298 

> <ROCS_FitColorTversky>
0.485 

> <ROCS_FitTverskyCombo>
1.783 

> <ROCS_ColorScore>
-3.962

> <ROCS_Overlap>
1475.394

> <ROCS_Rank>
280                 

$$$$
untitled-dbase-721_7
  -OEChem-02092407103D

 25 25  0     1  0  0  0  0  0999 V2000
    9.6924   10.9168   24.3090 C   0  0  0  0  0  0  0  0  0  0  0  0
   10.0041   11.4669   22.9292 C   0  0  0  0  0  0  0  0  0  0  0  0
    7.3911   11.1256   23.9049 C   0  0  0  0  0  0  0  0  0  0  0  0
    7.6537   11.7028   22.5071 C   0  0  1  0  0  0  0  0  0  0  0  0
    7.5481   10.6246   21.4187 C   0  0  0  0  0  0  0  0  0  0  0  0
    6.6399   12.8118   22.2081 C   0  0  0  0  0  0  0  0  0  0  0  0
    5.8258   15.3231   22.4943 N   0  0  0  0  0  0  0  0  0  0  0  0
    7.0105   14.1237   24.4371 O   0  0  0  0  0  0  0  0  0  0  0  0
    8.3398   14.7877   22.3932 O   0  0  0  0  0  0  0  0  0  0  0  0
    8.4403   10.2310   24.2824 O   0  0  0  0  0  0  0  0  0  0  0  0
    8.9511   12.3213   22.4821 O   0  0  0  0  0  0  0  0  0  0  0  0
    7.1040   14.3097   22.9962 S   0  0  0  0  0  0  0  0  0  0  0  0
   10.4709   10.2219   24.6445 H   0  0  0  0  0  0  0  0  0  0  0  0
    9.6233   11.7291   25.0386 H   0  0  0  0  0  0  0  0  0  0  0  0
   10.9477   12.0215   22.9246 H   0  0  0  0  0  0  0  0  0  0  0  0
   10.1022   10.6479   22.2098 H   0  0  0  0  0  0  0  0  0  0  0  0
    7.3374   11.9206   24.6563 H   0  0  0  0  0  0  0  0  0  0  0  0
    6.4431   10.5739   23.9376 H   0  0  0  0  0  0  0  0  0  0  0  0
    7.7397   11.0695   20.4454 H   0  0  0  0  0  0  0  0  0  0  0  0
    6.5498   10.1943   21.4280 H   0  0  0  0  0  0  0  0  0  0  0  0
    8.2796    9.8429   21.6081 H   0  0  0  0  0  0  0  0  0  0  0  0
    5.6608   12.5251   22.5783 H   0  0  0  0  0  0  0  0  0  0  0  0
    6.5966   12.9925   21.1388 H   0  0  0  0  0  0  0  0  0  0  0  0
    5.8019   15.6064   21.5070 H   0  0  0  0  0  0  0  0  0  0  0  0
    4.8968   15.1543   22.8992 H   0  0  0  0  0  0  0  0  0  0  0  0
  1  2  1  0  0  0  0
  1 10  1  0  0  0  0
  2 11  1  0  0  0  0
  3  4  1  0  0  0  0
  3 10  1  0  0  0  0
  4  5  1  0  0  0  0
  4  6  1  0  0  0  0
  4 11  1  0  0  0  0
  6 12  1  0  0  0  0
  7 12  1  0  0  0  0
  8 12  2  0  0  0  0
  9 12  2  0  0  0  0
  1 13  1  0  0  0  0
  1 14  1  0  0  0  0
  2 15  1  0  0  0  0
  2 16  1  0  0  0  0
  3 17  1  0  0  0  0
  3 18  1  0  0  0  0
  5 19  1  0  0  0  0
  5 20  1  0  0  0  0
  5 21  1  0  0  0  0
  6 22  1  0  0  0  0
  6 23  1  0  0  0  0
  7 24  1  0  0  0  0
  7 25  1  0  0  0  0
M  END
> <Mol Weight>
195,23

> <Formula>
C6H13NO4S

> <ID>
EN300-761136

> <name>
Sulfonamides

> <LogP>
-1,31

> <ROCS_ShapeQuery>
x0310_0A_x0719_0A_x1080_0A_x0739_0A_x0929_0A_x0526_0A_x0911_0A

> <ROCS_TanimotoCombo>
0.311 

> <ROCS_ShapeTanimoto>
0.143 

> <ROCS_ColorTanimoto>
0.168 

> <ROCS_RefTversky>
0.139 

> <ROCS_RefColorTversky>
0.179 

> <ROCS_RefTverskyCombo>
0.319 

> <ROCS_FitTversky>
1.256 

> <ROCS_FitColorTversky>
0.722 

> <ROCS_FitTverskyCombo>
1.978 

> <ROCS_ColorScore>
-5.212

> <ROCS_Overlap>
1114.288

> <ROCS_Rank>
281                 

$$$$
untitled-dbase-1472_299
  -OEChem-02092407103D

 22 22  0     0  0  0  0  0  0999 V2000
    9.0346   11.2812   22.3414 C   0  0  0  0  0  0  0  0  0  0  0  0
    8.6283   10.2414   23.1955 C   0  0  0  0  0  0  0  0  0  0  0  0
    9.0339   12.3864   23.1505 C   0  0  0  0  0  0  0  0  0  0  0  0
    8.4557    8.8554   22.8702 C   0  0  0  0  0  0  0  0  0  0  0  0
    6.8696    7.0527   22.8007 C   0  0  0  0  0  0  0  0  0  0  0  0
    9.3554   13.8324   22.9303 C   0  0  0  0  0  0  0  0  0  0  0  0
    8.3936   10.6690   24.4392 N   0  0  0  0  0  0  0  0  0  0  0  0
    7.0518   14.5351   21.8119 N   0  0  0  0  0  0  0  0  0  0  0  0
    9.3523    8.0998   22.4378 O   0  0  0  0  0  0  0  0  0  0  0  0
    7.1745   14.1000   24.3442 O   0  0  0  0  0  0  0  0  0  0  0  0
    8.2700   16.1653   23.3852 O   0  0  0  0  0  0  0  0  0  0  0  0
    8.6530   12.0339   24.4050 O   0  0  0  0  0  0  0  0  0  0  0  0
    7.1679    8.4231   23.0879 O   0  0  0  0  0  0  0  0  0  0  0  0
    7.8886   14.7713   23.2764 S   0  0  0  0  0  0  0  0  0  0  0  0
    9.2908   11.2368   21.2929 H   0  0  0  0  0  0  0  0  0  0  0  0
    5.8175    6.8544   23.0197 H   0  0  0  0  0  0  0  0  0  0  0  0
    7.5074    6.4051   23.4075 H   0  0  0  0  0  0  0  0  0  0  0  0
    7.0613    6.8614   21.7422 H   0  0  0  0  0  0  0  0  0  0  0  0
    9.6529   14.0333   21.8973 H   0  0  0  0  0  0  0  0  0  0  0  0
   10.1489   14.1819   23.5969 H   0  0  0  0  0  0  0  0  0  0  0  0
    6.2230   13.9281   21.8251 H   0  0  0  0  0  0  0  0  0  0  0  0
    6.9693   15.3346   21.1719 H   0  0  0  0  0  0  0  0  0  0  0  0
  1  2  1  0  0  0  0
  1  3  2  0  0  0  0
  2  4  1  0  0  0  0
  2  7  2  0  0  0  0
  3  6  1  0  0  0  0
  3 12  1  0  0  0  0
  4  9  2  0  0  0  0
  4 13  1  0  0  0  0
  5 13  1  0  0  0  0
  6 14  1  0  0  0  0
  7 12  1  0  0  0  0
  8 14  1  0  0  0  0
 10 14  2  0  0  0  0
 11 14  2  0  0  0  0
  1 15  1  0  0  0  0
  5 16  1  0  0  0  0
  5 17  1  0  0  0  0
  5 18  1  0  0  0  0
  6 19  1  0  0  0  0
  6 20  1  0  0  0  0
  8 21  1  0  0  0  0
  8 22  1  0  0  0  0
M  END
> <Mol Weight>
220,20

> <Formula>
C6H8N2O5S

> <ID>
EN300-1697869

> <name>
Sulfonamides

> <LogP>
-1,18

> <ROCS_ShapeQuery>
x0310_0A_x0719_0A_x1080_0A_x0739_0A_x0929_0A_x0526_0A_x0911_0A

> <ROCS_TanimotoCombo>
0.311 

> <ROCS_ShapeTanimoto>
0.162 

> <ROCS_ColorTanimoto>
0.149 

> <ROCS_RefTversky>
0.156 

> <ROCS_RefColorTversky>
0.162 

> <ROCS_RefTverskyCombo>
0.319 

> <ROCS_FitTversky>
1.269 

> <ROCS_FitColorTversky>
0.653 

> <ROCS_FitTverskyCombo>
1.922 

> <ROCS_ColorScore>
-4.712

> <ROCS_Overlap>
1252.340

> <ROCS_Rank>
282                 

$$$$
untitled-dbase-340_5
  -OEChem-02092407103D

 20 20  0     0  0  0  0  0  0999 V2000
    7.5988   10.8311   23.6721 C   0  0  0  0  0  0  0  0  0  0  0  0
    9.3043   12.0047   22.9311 C   0  0  0  0  0  0  0  0  0  0  0  0
    7.9324   11.9520   22.8884 C   0  0  0  0  0  0  0  0  0  0  0  0
   11.0504   10.5937   24.0440 C   0  0  0  0  0  0  0  0  0  0  0  0
    7.0028   12.8784   22.1670 C   0  0  0  0  0  0  0  0  0  0  0  0
    8.6722   10.2161   24.1756 N   0  0  0  0  0  0  0  0  0  0  0  0
    9.6938   10.9530   23.7072 N   0  0  0  0  0  0  0  0  0  0  0  0
    6.1041   15.3620   21.8929 N   0  0  0  0  0  0  0  0  0  0  0  0
    6.7770   14.4847   24.2154 O   0  0  0  0  0  0  0  0  0  0  0  0
    8.5698   14.9436   22.4947 O   0  0  0  0  0  0  0  0  0  0  0  0
    7.2318   14.5058   22.8394 S   0  0  0  0  0  0  0  0  0  0  0  0
    6.6191   10.4344   23.8980 H   0  0  0  0  0  0  0  0  0  0  0  0
   10.0187   12.6834   22.4852 H   0  0  0  0  0  0  0  0  0  0  0  0
   11.3180   11.1145   24.9671 H   0  0  0  0  0  0  0  0  0  0  0  0
   11.1165    9.5110   24.1830 H   0  0  0  0  0  0  0  0  0  0  0  0
   11.7161   10.8914   23.2290 H   0  0  0  0  0  0  0  0  0  0  0  0
    5.9551   12.5970   22.3049 H   0  0  0  0  0  0  0  0  0  0  0  0
    7.2157   12.9197   21.0950 H   0  0  0  0  0  0  0  0  0  0  0  0
    6.3264   15.5136   20.9013 H   0  0  0  0  0  0  0  0  0  0  0  0
    5.1056   15.2011   22.0734 H   0  0  0  0  0  0  0  0  0  0  0  0
  1  3  1  0  0  0  0
  1  6  2  0  0  0  0
  2  3  2  0  0  0  0
  2  7  1  0  0  0  0
  3  5  1  0  0  0  0
  4  7  1  0  0  0  0
  5 11  1  0  0  0  0
  6  7  1  0  0  0  0
  8 11  1  0  0  0  0
  9 11  2  0  0  0  0
 10 11  2  0  0  0  0
  1 12  1  0  0  0  0
  2 13  1  0  0  0  0
  4 14  1  0  0  0  0
  4 15  1  0  0  0  0
  4 16  1  0  0  0  0
  5 17  1  0  0  0  0
  5 18  1  0  0  0  0
  8 19  1  0  0  0  0
  8 20  1  0  0  0  0
M  END
> <Mol Weight>
175,21

> <Formula>
C5H9N3O2S

> <ID>
EN300-90207

> <name>
Sulfonamides

> <LogP>
-1,23

> <ROCS_ShapeQuery>
x0310_0A_x0719_0A_x1080_0A_x0739_0A_x0929_0A_x0526_0A_x0911_0A

> <ROCS_TanimotoCombo>
0.311 

> <ROCS_ShapeTanimoto>
0.142 

> <ROCS_ColorTanimoto>
0.169 

> <ROCS_RefTversky>
0.137 

> <ROCS_RefColorTversky>
0.176 

> <ROCS_RefTverskyCombo>
0.313 

> <ROCS_FitTversky>
1.284 

> <ROCS_FitColorTversky>
0.814 

> <ROCS_FitTverskyCombo>
2.098 

> <ROCS_ColorScore>
-5.103

> <ROCS_Overlap>
1099.011

> <ROCS_Rank>
283                 

$$$$
untitled-dbase-2143_417
  -OEChem-02092407103D

 37 38  0     1  0  0  0  0  0999 V2000
    8.7737   10.8459   27.7878 C   0  0  0  0  0  0  0  0  0  0  0  0
    7.3632   10.8264   27.2136 C   0  0  0  0  0  0  0  0  0  0  0  0
    9.6915   11.8180   27.0528 C   0  0  0  0  0  0  0  0  0  0  0  0
    7.1589    9.9093   26.0135 C   0  0  0  0  0  0  0  0  0  0  0  0
    8.6889   11.2641   22.3127 C   0  0  0  0  0  0  0  0  0  0  0  0
   10.1843   11.3486   25.6858 C   0  0  0  0  0  0  0  0  0  0  0  0
    8.3252    9.7310   25.0423 C   0  0  0  0  0  0  0  0  0  0  0  0
    9.7652   10.8035   23.2673 C   0  0  0  0  0  0  0  0  0  0  0  0
    8.0167   12.3864   23.0840 C   0  0  2  0  0  0  0  0  0  0  0  0
    9.1078   10.9995   24.6429 C   0  0  0  0  0  0  0  0  0  0  0  0
    8.6231   13.7524   22.7924 C   0  0  0  0  0  0  0  0  0  0  0  0
    6.4990   15.0237   21.8316 N   0  0  0  0  0  0  0  0  0  0  0  0
    6.7328   14.6378   24.3640 O   0  0  0  0  0  0  0  0  0  0  0  0
    8.2482   16.3032   23.2172 O   0  0  0  0  0  0  0  0  0  0  0  0
    8.2007   12.1038   24.4805 O   0  0  0  0  0  0  0  0  0  0  0  0
    7.5080   15.0523   23.2063 S   0  0  0  0  0  0  0  0  0  0  0  0
    8.7627   11.0479   28.8635 H   0  0  0  0  0  0  0  0  0  0  0  0
    9.1968    9.8418   27.6637 H   0  0  0  0  0  0  0  0  0  0  0  0
    6.6449   10.5711   28.0006 H   0  0  0  0  0  0  0  0  0  0  0  0
    7.0996   11.8440   26.8996 H   0  0  0  0  0  0  0  0  0  0  0  0
    9.1375   12.7541   26.8976 H   0  0  0  0  0  0  0  0  0  0  0  0
   10.5451   12.0849   27.6885 H   0  0  0  0  0  0  0  0  0  0  0  0
    6.8460    8.9258   26.3846 H   0  0  0  0  0  0  0  0  0  0  0  0
    6.3057   10.2827   25.4326 H   0  0  0  0  0  0  0  0  0  0  0  0
    9.1464   11.6369   21.3836 H   0  0  0  0  0  0  0  0  0  0  0  0
    7.9875   10.4651   22.0358 H   0  0  0  0  0  0  0  0  0  0  0  0
   10.8434   12.1186   25.2698 H   0  0  0  0  0  0  0  0  0  0  0  0
   10.8385   10.4844   25.8404 H   0  0  0  0  0  0  0  0  0  0  0  0
    9.0203    9.0103   25.4864 H   0  0  0  0  0  0  0  0  0  0  0  0
    7.9652    9.2362   24.1347 H   0  0  0  0  0  0  0  0  0  0  0  0
    9.9639    9.7413   23.0858 H   0  0  0  0  0  0  0  0  0  0  0  0
   10.7020   11.3449   23.1334 H   0  0  0  0  0  0  0  0  0  0  0  0
    6.9484   12.4091   22.8887 H   0  0  0  0  0  0  0  0  0  0  0  0
    8.8595   13.8527   21.7309 H   0  0  0  0  0  0  0  0  0  0  0  0
    9.5324   13.9056   23.3774 H   0  0  0  0  0  0  0  0  0  0  0  0
    6.8914   15.3611   20.9439 H   0  0  0  0  0  0  0  0  0  0  0  0
    5.8592   14.2269   21.7252 H   0  0  0  0  0  0  0  0  0  0  0  0
  1  2  1  0  0  0  0
  1  3  1  0  0  0  0
  2  4  1  0  0  0  0
  3  6  1  0  0  0  0
  4  7  1  0  0  0  0
  5  8  1  0  0  0  0
  5  9  1  0  0  0  0
  6 10  1  0  0  0  0
  7 10  1  0  0  0  0
  8 10  1  0  0  0  0
  9 11  1  0  0  0  0
  9 15  1  0  0  0  0
 10 15  1  0  0  0  0
 11 16  1  0  0  0  0
 12 16  1  0  0  0  0
 13 16  2  0  0  0  0
 14 16  2  0  0  0  0
  1 17  1  0  0  0  0
  1 18  1  0  0  0  0
  2 19  1  0  0  0  0
  2 20  1  0  0  0  0
  3 21  1  0  0  0  0
  3 22  1  0  0  0  0
  4 23  1  0  0  0  0
  4 24  1  0  0  0  0
  5 25  1  0  0  0  0
  5 26  1  0  0  0  0
  6 27  1  0  0  0  0
  6 28  1  0  0  0  0
  7 29  1  0  0  0  0
  7 30  1  0  0  0  0
  8 31  1  0  0  0  0
  8 32  1  0  0  0  0
  9 33  1  0  0  0  0
 11 34  1  0  0  0  0
 11 35  1  0  0  0  0
 12 36  1  0  0  0  0
 12 37  1  0  0  0  0
M  END
> <Mol Weight>
247,35

> <Formula>
C11H21NO3S

> <ID>
EN300-781743

> <name>
Sulfonamides

> <LogP>
1,20

> <ROCS_ShapeQuery>
x0310_0A_x0719_0A_x1080_0A_x0739_0A_x0929_0A_x0526_0A_x0911_0A

> <ROCS_TanimotoCombo>
0.310 

> <ROCS_ShapeTanimoto>
0.157 

> <ROCS_ColorTanimoto>
0.153 

> <ROCS_RefTversky>
0.154 

> <ROCS_RefColorTversky>
0.166 

> <ROCS_RefTverskyCombo>
0.320 

> <ROCS_FitTversky>
1.175 

> <ROCS_FitColorTversky>
0.668 

> <ROCS_FitTverskyCombo>
1.843 

> <ROCS_ColorScore>
-4.822

> <ROCS_Overlap>
1230.460

> <ROCS_Rank>
284                 

$$$$
untitled-dbase-1446_79
  -OEChem-02092407103D

 31 32  0     1  0  0  0  0  0999 V2000
    9.6653   10.3152   22.7954 C   0  0  0  0  0  0  0  0  0  0  0  0
    6.7175    9.1154   26.2674 C   0  0  0  0  0  0  0  0  0  0  0  0
    6.6177   10.4879   26.8628 C   0  0  0  0  0  0  0  0  0  0  0  0
    8.3811    9.8634   23.4834 C   0  0  0  0  0  0  0  0  0  0  0  0
    9.6501   11.8240   22.5722 C   0  0  0  0  0  0  0  0  0  0  0  0
    6.8116   10.3280   25.3759 C   0  0  0  0  0  0  0  0  0  0  0  0
    8.1197   10.6971   24.7394 C   0  0  2  0  0  0  0  0  0  0  0  0
    9.3261   12.5582   23.8747 C   0  0  1  0  0  0  0  0  0  0  0  0
    9.1946   14.0569   23.6402 C   0  0  0  0  0  0  0  0  0  0  0  0
    7.9713   15.9892   22.2910 N   0  0  0  0  0  0  0  0  0  0  0  0
    7.3402   13.5302   21.8764 O   0  0  0  0  0  0  0  0  0  0  0  0
    6.6792   14.6314   24.0527 O   0  0  0  0  0  0  0  0  0  0  0  0
    8.0839   12.0898   24.4100 O   0  0  0  0  0  0  0  0  0  0  0  0
    7.6226   14.4590   22.9594 S   0  0  0  0  0  0  0  0  0  0  0  0
   10.5276   10.0463   23.4177 H   0  0  0  0  0  0  0  0  0  0  0  0
    9.7826    9.7947   21.8386 H   0  0  0  0  0  0  0  0  0  0  0  0
    7.6173    8.5460   26.4648 H   0  0  0  0  0  0  0  0  0  0  0  0
    5.8135    8.5210   26.2152 H   0  0  0  0  0  0  0  0  0  0  0  0
    5.6466   10.8185   27.2101 H   0  0  0  0  0  0  0  0  0  0  0  0
    7.4509   10.8410   27.4577 H   0  0  0  0  0  0  0  0  0  0  0  0
    7.5475    9.9847   22.7793 H   0  0  0  0  0  0  0  0  0  0  0  0
    8.4407    8.7976   23.7314 H   0  0  0  0  0  0  0  0  0  0  0  0
   10.6161   12.1536   22.1737 H   0  0  0  0  0  0  0  0  0  0  0  0
    8.8863   12.0541   21.8184 H   0  0  0  0  0  0  0  0  0  0  0  0
    5.9683   10.5453   24.7320 H   0  0  0  0  0  0  0  0  0  0  0  0
    8.9170   10.5312   25.4758 H   0  0  0  0  0  0  0  0  0  0  0  0
   10.1172   12.3876   24.6159 H   0  0  0  0  0  0  0  0  0  0  0  0
    9.9547   14.4010   22.9389 H   0  0  0  0  0  0  0  0  0  0  0  0
    9.2951   14.6000   24.5796 H   0  0  0  0  0  0  0  0  0  0  0  0
    8.0152   16.0642   21.2672 H   0  0  0  0  0  0  0  0  0  0  0  0
    7.5651   16.8141   22.7495 H   0  0  0  0  0  0  0  0  0  0  0  0
  1  4  1  0  0  0  0
  1  5  1  0  0  0  0
  2  3  1  0  0  0  0
  2  6  1  0  0  0  0
  3  6  1  0  0  0  0
  4  7  1  0  0  0  0
  5  8  1  0  0  0  0
  6  7  1  0  0  0  0
  7 13  1  0  0  0  0
  8  9  1  0  0  0  0
  8 13  1  0  0  0  0
  9 14  1  0  0  0  0
 10 14  1  0  0  0  0
 11 14  2  0  0  0  0
 12 14  2  0  0  0  0
  1 15  1  0  0  0  0
  1 16  1  0  0  0  0
  2 17  1  0  0  0  0
  2 18  1  0  0  0  0
  3 19  1  0  0  0  0
  3 20  1  0  0  0  0
  4 21  1  0  0  0  0
  4 22  1  0  0  0  0
  5 23  1  0  0  0  0
  5 24  1  0  0  0  0
  6 25  1  0  0  0  0
  7 26  1  0  0  0  0
  8 27  1  0  0  0  0
  9 28  1  0  0  0  0
  9 29  1  0  0  0  0
 10 30  1  0  0  0  0
 10 31  1  0  0  0  0
M  END
> <Mol Weight>
219,30

> <Formula>
C9H17NO3S

> <ID>
EN300-1718173

> <name>
Sulfonamides

> <LogP>
0,32

> <ROCS_ShapeQuery>
x0310_0A_x0719_0A_x1080_0A_x0739_0A_x0929_0A_x0526_0A_x0911_0A

> <ROCS_TanimotoCombo>
0.310 

> <ROCS_ShapeTanimoto>
0.175 

> <ROCS_ColorTanimoto>
0.135 

> <ROCS_RefTversky>
0.167 

> <ROCS_RefColorTversky>
0.145 

> <ROCS_RefTverskyCombo>
0.312 

> <ROCS_FitTversky>
1.388 

> <ROCS_FitColorTversky>
0.672 

> <ROCS_FitTverskyCombo>
2.060 

> <ROCS_ColorScore>
-4.208

> <ROCS_Overlap>
1335.247

> <ROCS_Rank>
285                 

$$$$
untitled-dbase-1905_2
  -OEChem-02092407103D

 20 21  0     0  0  0  0  0  0999 V2000
    6.2431   11.0469   21.3183 C   0  0  0  0  0  0  0  0  0  0  0  0
    7.0581   10.1783   22.0483 C   0  0  0  0  0  0  0  0  0  0  0  0
    6.3103   12.4360   21.5253 C   0  0  0  0  0  0  0  0  0  0  0  0
    7.9215   10.7336   22.9701 C   0  0  0  0  0  0  0  0  0  0  0  0
    7.9876   12.0949   23.1728 C   0  0  0  0  0  0  0  0  0  0  0  0
    7.1936   12.9735   22.4648 C   0  0  0  0  0  0  0  0  0  0  0  0
    9.3923   11.1341   24.4831 C   0  0  0  0  0  0  0  0  0  0  0  0
    6.1091   15.2518   21.6056 N   0  0  0  0  0  0  0  0  0  0  0  0
    6.8114   14.9849   24.0716 O   0  0  0  0  0  0  0  0  0  0  0  0
    8.5896   15.1660   22.2959 O   0  0  0  0  0  0  0  0  0  0  0  0
    8.7864   10.0478   23.7679 O   0  0  0  0  0  0  0  0  0  0  0  0
    8.9023   12.4338   24.1232 O   0  0  0  0  0  0  0  0  0  0  0  0
   10.7313   11.1011   24.2682 F   0  0  0  0  0  0  0  0  0  0  0  0
    9.1870   10.9464   25.8109 F   0  0  0  0  0  0  0  0  0  0  0  0
    7.2778   14.6938   22.7215 S   0  0  0  0  0  0  0  0  0  0  0  0
    5.5501   10.6468   20.5831 H   0  0  0  0  0  0  0  0  0  0  0  0
    7.0091    9.1068   21.8913 H   0  0  0  0  0  0  0  0  0  0  0  0
    5.6639   13.0877   20.9426 H   0  0  0  0  0  0  0  0  0  0  0  0
    5.2236   15.6175   21.9764 H   0  0  0  0  0  0  0  0  0  0  0  0
    6.4394   15.7391   20.7637 H   0  0  0  0  0  0  0  0  0  0  0  0
  1  2  1  0  0  0  0
  1  3  2  0  0  0  0
  2  4  2  0  0  0  0
  3  6  1  0  0  0  0
  4  5  1  0  0  0  0
  4 11  1  0  0  0  0
  5  6  2  0  0  0  0
  5 12  1  0  0  0  0
  6 15  1  0  0  0  0
  7 11  1  0  0  0  0
  7 12  1  0  0  0  0
  7 13  1  0  0  0  0
  7 14  1  0  0  0  0
  8 15  1  0  0  0  0
  9 15  2  0  0  0  0
 10 15  2  0  0  0  0
  1 16  1  0  0  0  0
  2 17  1  0  0  0  0
  3 18  1  0  0  0  0
  8 19  1  0  0  0  0
  8 20  1  0  0  0  0
M  END
> <Mol Weight>
237,18

> <Formula>
C7H5F2NO4S

> <ID>
EN300-253636

> <name>
Sulfonamides

> <LogP>
1,60

> <ROCS_ShapeQuery>
x0310_0A_x0719_0A_x1080_0A_x0739_0A_x0929_0A_x0526_0A_x0911_0A

> <ROCS_TanimotoCombo>
0.310 

> <ROCS_ShapeTanimoto>
0.152 

> <ROCS_ColorTanimoto>
0.159 

> <ROCS_RefTversky>
0.149 

> <ROCS_RefColorTversky>
0.176 

> <ROCS_RefTverskyCombo>
0.325 

> <ROCS_FitTversky>
1.119 

> <ROCS_FitColorTversky>
0.623 

> <ROCS_FitTverskyCombo>
1.742 

> <ROCS_ColorScore>
-5.110

> <ROCS_Overlap>
1195.645

> <ROCS_Rank>
286                 

$$$$
untitled-dbase-2103_27
  -OEChem-02092407103D

 32 33  0     1  0  0  0  0  0999 V2000
    5.3277   14.6932   21.6805 C   0  0  0  0  0  0  0  0  0  0  0  0
    5.9831   13.5124   21.4304 C   0  0  0  0  0  0  0  0  0  0  0  0
    6.7781   13.3023   22.5731 C   0  0  0  0  0  0  0  0  0  0  0  0
    8.2751   10.1957   24.3431 C   0  0  0  0  0  0  0  0  0  0  0  0
    7.2818   11.3242   24.0774 C   0  0  0  0  0  0  0  0  0  0  0  0
    9.7045   10.7248   24.4313 C   0  0  0  0  0  0  0  0  0  0  0  0
    9.1815   12.6035   22.9987 C   0  0  0  0  0  0  0  0  0  0  0  0
    7.7166   12.1483   22.8530 C   0  0  2  0  0  0  0  0  0  0  0  0
    3.6984   11.1738   20.6600 C   0  0  0  0  0  0  0  0  0  0  0  0
    6.6418   14.2720   23.4814 N   0  0  0  0  0  0  0  0  0  0  0  0
    5.7536   15.1028   22.9097 N   0  0  0  0  0  0  0  0  0  0  0  0
   10.0760   11.4658   23.2259 N   0  0  0  0  0  0  0  0  0  0  0  0
    5.8918   12.6927   20.3016 N   0  0  0  0  0  0  0  0  0  0  0  0
    3.5138   13.6079   19.7607 O   0  0  0  0  0  0  0  0  0  0  0  0
    4.4935   11.8400   18.2575 O   0  0  0  0  0  0  0  0  0  0  0  0
    4.3379   12.4284   19.5730 S   0  0  0  0  0  0  0  0  0  0  0  0
    4.6120   15.2673   21.1090 H   0  0  0  0  0  0  0  0  0  0  0  0
    8.0113    9.6835   25.2752 H   0  0  0  0  0  0  0  0  0  0  0  0
    8.2063    9.4521   23.5388 H   0  0  0  0  0  0  0  0  0  0  0  0
    6.2793   10.9075   23.9218 H   0  0  0  0  0  0  0  0  0  0  0  0
    7.2198   11.9690   24.9642 H   0  0  0  0  0  0  0  0  0  0  0  0
    9.8198   11.3623   25.3167 H   0  0  0  0  0  0  0  0  0  0  0  0
   10.3917    9.8806   24.5533 H   0  0  0  0  0  0  0  0  0  0  0  0
    9.4981   13.1183   22.0833 H   0  0  0  0  0  0  0  0  0  0  0  0
    9.2845   13.3295   23.8163 H   0  0  0  0  0  0  0  0  0  0  0  0
    7.6564   11.4814   21.9609 H   0  0  0  0  0  0  0  0  0  0  0  0
    2.6992   10.8990   20.3185 H   0  0  0  0  0  0  0  0  0  0  0  0
    4.3663   10.3119   20.6216 H   0  0  0  0  0  0  0  0  0  0  0  0
    3.6582   11.5821   21.6709 H   0  0  0  0  0  0  0  0  0  0  0  0
    5.4811   15.9359   23.4163 H   0  0  0  0  0  0  0  0  0  0  0  0
   11.0325   11.8058   23.3216 H   0  0  0  0  0  0  0  0  0  0  0  0
    6.4839   11.8305   20.3175 H   0  0  0  0  0  0  0  0  0  0  0  0
  1  2  2  0  0  0  0
  1 11  1  0  0  0  0
  2  3  1  0  0  0  0
  2 13  1  0  0  0  0
  3  8  1  0  0  0  0
  3 10  2  0  0  0  0
  4  5  1  0  0  0  0
  4  6  1  0  0  0  0
  5  8  1  0  0  0  0
  6 12  1  0  0  0  0
  7  8  1  0  0  0  0
  7 12  1  0  0  0  0
  9 16  1  0  0  0  0
 10 11  1  0  0  0  0
 13 16  1  0  0  0  0
 14 16  2  0  0  0  0
 15 16  2  0  0  0  0
  1 17  1  0  0  0  0
  4 18  1  0  0  0  0
  4 19  1  0  0  0  0
  5 20  1  0  0  0  0
  5 21  1  0  0  0  0
  6 22  1  0  0  0  0
  6 23  1  0  0  0  0
  7 24  1  0  0  0  0
  7 25  1  0  0  0  0
  8 26  1  0  0  0  0
  9 27  1  0  0  0  0
  9 28  1  0  0  0  0
  9 29  1  0  0  0  0
 11 30  1  0  0  0  0
 12 31  1  0  0  0  0
 13 32  1  0  0  0  0
M  END
> <Mol Weight>
244,31

> <Formula>
C9H16N4O2S

> <ID>
EN300-129897

> <name>
Sulfonamides

> <LogP>
-1,87

> <ROCS_ShapeQuery>
x0310_0A_x0719_0A_x1080_0A_x0739_0A_x0929_0A_x0526_0A_x0911_0A

> <ROCS_TanimotoCombo>
0.310 

> <ROCS_ShapeTanimoto>
0.185 

> <ROCS_ColorTanimoto>
0.125 

> <ROCS_RefTversky>
0.177 

> <ROCS_RefColorTversky>
0.149 

> <ROCS_RefTverskyCombo>
0.326 

> <ROCS_FitTversky>
1.330 

> <ROCS_FitColorTversky>
0.433 

> <ROCS_FitTverskyCombo>
1.764 

> <ROCS_ColorScore>
-4.361

> <ROCS_Overlap>
1419.624

> <ROCS_Rank>
287                 

$$$$
untitled-dbase-1925_6
  -OEChem-02092407103D

 26 27  0     0  0  0  0  0  0999 V2000
    9.7286   10.6017   24.5229 C   0  0  0  0  0  0  0  0  0  0  0  0
    8.7488    9.8363   23.8906 C   0  0  0  0  0  0  0  0  0  0  0  0
    9.7797   11.9799   24.3139 C   0  0  0  0  0  0  0  0  0  0  0  0
    7.8202   10.4490   23.0493 C   0  0  0  0  0  0  0  0  0  0  0  0
    8.8511   12.5926   23.4725 C   0  0  0  0  0  0  0  0  0  0  0  0
    5.5941   12.0458   21.7303 C   0  0  0  0  0  0  0  0  0  0  0  0
    7.8713   11.8272   22.8402 C   0  0  0  0  0  0  0  0  0  0  0  0
    6.9155   12.4582   21.9738 C   0  0  0  0  0  0  0  0  0  0  0  0
    5.1210   12.9757   20.8429 C   0  0  0  0  0  0  0  0  0  0  0  0
    3.8339   13.1692   20.1636 C   0  0  0  0  0  0  0  0  0  0  0  0
    7.2374   13.5597   21.2897 N   0  0  0  0  0  0  0  0  0  0  0  0
    2.0079   12.2119   18.4902 N   0  0  0  0  0  0  0  0  0  0  0  0
    4.5020   11.7258   18.0905 O   0  0  0  0  0  0  0  0  0  0  0  0
    3.3146   10.6122   20.0232 O   0  0  0  0  0  0  0  0  0  0  0  0
    6.0925   13.8845   20.5721 O   0  0  0  0  0  0  0  0  0  0  0  0
    3.5107   11.7537   19.1495 S   0  0  0  0  0  0  0  0  0  0  0  0
   10.4511   10.1249   25.1789 H   0  0  0  0  0  0  0  0  0  0  0  0
    8.7081    8.7634   24.0542 H   0  0  0  0  0  0  0  0  0  0  0  0
   10.5419   12.5758   24.8073 H   0  0  0  0  0  0  0  0  0  0  0  0
    7.0624    9.8386   22.5635 H   0  0  0  0  0  0  0  0  0  0  0  0
    8.9044   13.6681   23.3199 H   0  0  0  0  0  0  0  0  0  0  0  0
    5.0597   11.1992   22.1367 H   0  0  0  0  0  0  0  0  0  0  0  0
    3.8158   14.0526   19.5000 H   0  0  0  0  0  0  0  0  0  0  0  0
    2.9809   13.2695   20.8589 H   0  0  0  0  0  0  0  0  0  0  0  0
    1.1911   12.2121   19.1134 H   0  0  0  0  0  0  0  0  0  0  0  0
    1.9999   12.9703   17.7971 H   0  0  0  0  0  0  0  0  0  0  0  0
  1  2  1  0  0  0  0
  1  3  2  0  0  0  0
  2  4  2  0  0  0  0
  3  5  1  0  0  0  0
  4  7  1  0  0  0  0
  5  7  2  0  0  0  0
  6  8  1  0  0  0  0
  6  9  2  0  0  0  0
  7  8  1  0  0  0  0
  8 11  2  0  0  0  0
  9 10  1  0  0  0  0
  9 15  1  0  0  0  0
 10 16  1  0  0  0  0
 11 15  1  0  0  0  0
 12 16  1  0  0  0  0
 13 16  2  0  0  0  0
 14 16  2  0  0  0  0
  1 17  1  0  0  0  0
  2 18  1  0  0  0  0
  3 19  1  0  0  0  0
  4 20  1  0  0  0  0
  5 21  1  0  0  0  0
  6 22  1  0  0  0  0
 10 23  1  0  0  0  0
 10 24  1  0  0  0  0
 12 25  1  0  0  0  0
 12 26  1  0  0  0  0
M  END
> <Mol Weight>
238,26

> <Formula>
C10H10N2O3S

> <ID>
EN300-59810

> <name>
Sulfonamides

> <LogP>
0,66

> <ROCS_ShapeQuery>
x0310_0A_x0719_0A_x1080_0A_x0739_0A_x0929_0A_x0526_0A_x0911_0A

> <ROCS_TanimotoCombo>
0.310 

> <ROCS_ShapeTanimoto>
0.184 

> <ROCS_ColorTanimoto>
0.126 

> <ROCS_RefTversky>
0.177 

> <ROCS_RefColorTversky>
0.140 

> <ROCS_RefTverskyCombo>
0.316 

> <ROCS_FitTversky>
1.303 

> <ROCS_FitColorTversky>
0.562 

> <ROCS_FitTverskyCombo>
1.865 

> <ROCS_ColorScore>
-4.057

> <ROCS_Overlap>
1415.889

> <ROCS_Rank>
288                 

$$$$
untitled-dbase-2287_174
  -OEChem-02092407103D

 36 37  0     0  0  0  0  0  0999 V2000
    6.9763   13.8207   21.3257 C   0  0  0  0  0  0  0  0  0  0  0  0
    6.0095   11.9072   22.4397 C   0  0  0  0  0  0  0  0  0  0  0  0
    5.8213   13.9558   20.5554 C   0  0  0  0  0  0  0  0  0  0  0  0
    4.8544   12.0424   21.6695 C   0  0  0  0  0  0  0  0  0  0  0  0
    7.0704   12.7963   22.2678 C   0  0  0  0  0  0  0  0  0  0  0  0
    4.7604   13.0667   20.7273 C   0  0  0  0  0  0  0  0  0  0  0  0
    9.2478    9.9877   24.1085 C   0  0  0  0  0  0  0  0  0  0  0  0
    9.3980   10.3442   22.6351 C   0  0  0  0  0  0  0  0  0  0  0  0
    8.0335   10.6622   24.7335 C   0  0  0  0  0  0  0  0  0  0  0  0
    9.4513   11.8540   22.4151 C   0  0  0  0  0  0  0  0  0  0  0  0
    8.0644   12.1774   24.5495 C   0  0  0  0  0  0  0  0  0  0  0  0
    8.3289   12.6483   23.1078 C   0  0  0  0  0  0  0  0  0  0  0  0
    3.5251   13.2129   19.9045 C   0  0  0  0  0  0  0  0  0  0  0  0
    1.8936   12.1219   18.1158 N   0  0  0  0  0  0  0  0  0  0  0  0
    4.4221   11.6627   18.0020 O   0  0  0  0  0  0  0  0  0  0  0  0
    3.0581   10.6422   19.8684 O   0  0  0  0  0  0  0  0  0  0  0  0
    3.3279   11.7396   18.9550 S   0  0  0  0  0  0  0  0  0  0  0  0
    7.7982   14.5176   21.1845 H   0  0  0  0  0  0  0  0  0  0  0  0
    6.0740   11.1070   23.1724 H   0  0  0  0  0  0  0  0  0  0  0  0
    5.7561   14.7577   19.8249 H   0  0  0  0  0  0  0  0  0  0  0  0
    4.0326   11.3452   21.8097 H   0  0  0  0  0  0  0  0  0  0  0  0
    9.1538    8.8983   24.2125 H   0  0  0  0  0  0  0  0  0  0  0  0
   10.1540   10.2802   24.6533 H   0  0  0  0  0  0  0  0  0  0  0  0
   10.3148    9.8856   22.2397 H   0  0  0  0  0  0  0  0  0  0  0  0
    8.5613    9.9195   22.0657 H   0  0  0  0  0  0  0  0  0  0  0  0
    7.1161   10.2570   24.2878 H   0  0  0  0  0  0  0  0  0  0  0  0
    7.9955   10.4259   25.8057 H   0  0  0  0  0  0  0  0  0  0  0  0
   10.4406   12.2347   22.7510 H   0  0  0  0  0  0  0  0  0  0  0  0
    9.4327   12.0567   21.3208 H   0  0  0  0  0  0  0  0  0  0  0  0
    7.1006   12.6010   24.9107 H   0  0  0  0  0  0  0  0  0  0  0  0
    8.8299   12.6097   25.2304 H   0  0  0  0  0  0  0  0  0  0  0  0
    8.7279   13.7357   23.2022 H   0  0  0  0  0  0  0  0  0  0  0  0
    3.5865   14.0570   19.2082 H   0  0  0  0  0  0  0  0  0  0  0  0
    2.6274   13.3394   20.5206 H   0  0  0  0  0  0  0  0  0  0  0  0
    1.9658   12.3154   17.1094 H   0  0  0  0  0  0  0  0  0  0  0  0
    1.0369   11.6205   18.3807 H   0  0  0  0  0  0  0  0  0  0  0  0
  1  3  2  0  0  0  0
  1  5  1  0  0  0  0
  2  4  1  0  0  0  0
  2  5  2  0  0  0  0
  3  6  1  0  0  0  0
  4  6  2  0  0  0  0
  5 12  1  0  0  0  0
  6 13  1  0  0  0  0
  7  8  1  0  0  0  0
  7  9  1  0  0  0  0
  8 10  1  0  0  0  0
  9 11  1  0  0  0  0
 10 12  1  0  0  0  0
 11 12  1  0  0  0  0
 13 17  1  0  0  0  0
 14 17  1  0  0  0  0
 15 17  2  0  0  0  0
 16 17  2  0  0  0  0
  1 18  1  0  0  0  0
  2 19  1  0  0  0  0
  3 20  1  0  0  0  0
  4 21  1  0  0  0  0
  7 22  1  0  0  0  0
  7 23  1  0  0  0  0
  8 24  1  0  0  0  0
  8 25  1  0  0  0  0
  9 26  1  0  0  0  0
  9 27  1  0  0  0  0
 10 28  1  0  0  0  0
 10 29  1  0  0  0  0
 11 30  1  0  0  0  0
 11 31  1  0  0  0  0
 12 32  1  0  0  0  0
 13 33  1  0  0  0  0
 13 34  1  0  0  0  0
 14 35  1  0  0  0  0
 14 36  1  0  0  0  0
M  END
> <Mol Weight>
253,36

> <Formula>
C13H19NO2S

> <ID>
EN300-343941

> <name>
Sulfonamides

> <LogP>
2,46

> <ROCS_ShapeQuery>
x0310_0A_x0719_0A_x1080_0A_x0739_0A_x0929_0A_x0526_0A_x0911_0A

> <ROCS_TanimotoCombo>
0.310 

> <ROCS_ShapeTanimoto>
0.210 

> <ROCS_ColorTanimoto>
0.100 

> <ROCS_RefTversky>
0.197 

> <ROCS_RefColorTversky>
0.110 

> <ROCS_RefTverskyCombo>
0.308 

> <ROCS_FitTversky>
1.445 

> <ROCS_FitColorTversky>
0.511 

> <ROCS_FitTverskyCombo>
1.956 

> <ROCS_ColorScore>
-3.200

> <ROCS_Overlap>
1582.188

> <ROCS_Rank>
289                 

$$$$
untitled-dbase-369_6
  -OEChem-02092407103D

 18 18  0     0  0  0  0  0  0999 V2000
    9.5100   11.1973   22.7315 C   0  0  0  0  0  0  0  0  0  0  0  0
    9.3233   13.5020   23.7841 C   0  0  0  0  0  0  0  0  0  0  0  0
    8.5563   14.3544   22.7832 C   0  0  0  0  0  0  0  0  0  0  0  0
    9.0168   10.0097   22.9972 N   0  0  0  0  0  0  0  0  0  0  0  0
    8.2379   10.1740   24.1203 N   0  0  0  0  0  0  0  0  0  0  0  0
    8.2556   11.4357   24.5327 N   0  0  0  0  0  0  0  0  0  0  0  0
    9.0513   12.0733   23.6629 N   0  0  0  0  0  0  0  0  0  0  0  0
    6.2988   15.2806   21.7357 N   0  0  0  0  0  0  0  0  0  0  0  0
    6.4064   12.8761   22.6432 O   0  0  0  0  0  0  0  0  0  0  0  0
    6.4516   14.8166   24.2612 O   0  0  0  0  0  0  0  0  0  0  0  0
    6.8067   14.2314   22.9799 S   0  0  0  0  0  0  0  0  0  0  0  0
   10.1701   11.4631   21.9189 H   0  0  0  0  0  0  0  0  0  0  0  0
   10.4025   13.6290   23.6358 H   0  0  0  0  0  0  0  0  0  0  0  0
    9.1017   13.8066   24.8135 H   0  0  0  0  0  0  0  0  0  0  0  0
    8.8033   15.4111   22.9257 H   0  0  0  0  0  0  0  0  0  0  0  0
    8.7814   14.0821   21.7478 H   0  0  0  0  0  0  0  0  0  0  0  0
    5.8603   14.8619   20.9062 H   0  0  0  0  0  0  0  0  0  0  0  0
    5.8913   16.1835   22.0083 H   0  0  0  0  0  0  0  0  0  0  0  0
  1  4  2  0  0  0  0
  1  7  1  0  0  0  0
  2  3  1  0  0  0  0
  2  7  1  0  0  0  0
  3 11  1  0  0  0  0
  4  5  1  0  0  0  0
  5  6  2  0  0  0  0
  6  7  1  0  0  0  0
  8 11  1  0  0  0  0
  9 11  2  0  0  0  0
 10 11  2  0  0  0  0
  1 12  1  0  0  0  0
  2 13  1  0  0  0  0
  2 14  1  0  0  0  0
  3 15  1  0  0  0  0
  3 16  1  0  0  0  0
  8 17  1  0  0  0  0
  8 18  1  0  0  0  0
M  END
> <Mol Weight>
177,18

> <Formula>
C3H7N5O2S

> <ID>
EN300-291909

> <name>
Sulfonamides

> <LogP>
-2,20

> <ROCS_ShapeQuery>
x0310_0A_x0719_0A_x1080_0A_x0739_0A_x0929_0A_x0526_0A_x0911_0A

> <ROCS_TanimotoCombo>
0.310 

> <ROCS_ShapeTanimoto>
0.161 

> <ROCS_ColorTanimoto>
0.149 

> <ROCS_RefTversky>
0.153 

> <ROCS_RefColorTversky>
0.169 

> <ROCS_RefTverskyCombo>
0.322 

> <ROCS_FitTversky>
1.431 

> <ROCS_FitColorTversky>
0.560 

> <ROCS_FitTverskyCombo>
1.991 

> <ROCS_ColorScore>
-4.922

> <ROCS_Overlap>
1227.053

> <ROCS_Rank>
290                 

$$$$
untitled-dbase-1074_24
  -OEChem-02092407103D

 19 19  0     0  0  0  0  0  0999 V2000
    9.1516   12.1620   22.5486 C   0  0  0  0  0  0  0  0  0  0  0  0
   10.1256   11.3064   23.0511 C   0  0  0  0  0  0  0  0  0  0  0  0
    7.5154   10.9177   23.7449 C   0  0  0  0  0  0  0  0  0  0  0  0
    7.8192   11.9708   22.8973 C   0  0  0  0  0  0  0  0  0  0  0  0
    9.7186   10.2832   23.8920 C   0  0  0  0  0  0  0  0  0  0  0  0
    6.7542   12.8690   22.3766 C   0  0  0  0  0  0  0  0  0  0  0  0
    8.4340   10.0659   24.2530 N   0  0  0  0  0  0  0  0  0  0  0  0
    6.1769   15.3994   21.8155 N   0  0  0  0  0  0  0  0  0  0  0  0
    6.5075   14.6648   24.2585 O   0  0  0  0  0  0  0  0  0  0  0  0
    8.5054   14.7785   22.7154 O   0  0  0  0  0  0  0  0  0  0  0  0
    7.0962   14.5063   22.9399 S   0  0  0  0  0  0  0  0  0  0  0  0
   10.8504    9.1801   24.5589 Cl  0  0  0  0  0  0  0  0  0  0  0  0
    9.4394   12.9740   21.8866 H   0  0  0  0  0  0  0  0  0  0  0  0
   11.1678   11.4475   22.7845 H   0  0  0  0  0  0  0  0  0  0  0  0
    6.4931   10.7193   24.0525 H   0  0  0  0  0  0  0  0  0  0  0  0
    5.7563   12.5918   22.7396 H   0  0  0  0  0  0  0  0  0  0  0  0
    6.7234   12.8922   21.2797 H   0  0  0  0  0  0  0  0  0  0  0  0
    6.5140   15.4385   20.8458 H   0  0  0  0  0  0  0  0  0  0  0  0
    5.1534   15.3611   21.8969 H   0  0  0  0  0  0  0  0  0  0  0  0
  1  2  2  0  0  0  0
  1  4  1  0  0  0  0
  2  5  1  0  0  0  0
  3  4  2  0  0  0  0
  3  7  1  0  0  0  0
  4  6  1  0  0  0  0
  5  7  2  0  0  0  0
  5 12  1  0  0  0  0
  6 11  1  0  0  0  0
  8 11  1  0  0  0  0
  9 11  2  0  0  0  0
 10 11  2  0  0  0  0
  1 13  1  0  0  0  0
  2 14  1  0  0  0  0
  3 15  1  0  0  0  0
  6 16  1  0  0  0  0
  6 17  1  0  0  0  0
  8 18  1  0  0  0  0
  8 19  1  0  0  0  0
M  END
> <Mol Weight>
206,64

> <Formula>
C6H7ClN2O2S

> <ID>
EN300-59815

> <name>
Sulfonamides

> <LogP>
-0,05

> <ROCS_ShapeQuery>
x0310_0A_x0719_0A_x1080_0A_x0739_0A_x0929_0A_x0526_0A_x0911_0A

> <ROCS_TanimotoCombo>
0.310 

> <ROCS_ShapeTanimoto>
0.146 

> <ROCS_ColorTanimoto>
0.164 

> <ROCS_RefTversky>
0.142 

> <ROCS_RefColorTversky>
0.171 

> <ROCS_RefTverskyCombo>
0.313 

> <ROCS_FitTversky>
1.279 

> <ROCS_FitColorTversky>
0.791 

> <ROCS_FitTverskyCombo>
2.070 

> <ROCS_ColorScore>
-4.959

> <ROCS_Overlap>
1134.576

> <ROCS_Rank>
291                 

$$$$
untitled-dbase-2733_53
  -OEChem-02092407103D

 31 32  0     1  0  0  0  0  0999 V2000
    2.9342   14.0372   20.2366 C   0  0  0  0  0  0  0  0  0  0  0  0
    4.0020   14.3485   21.0849 C   0  0  0  0  0  0  0  0  0  0  0  0
    5.0011   12.1698   20.7057 C   0  0  0  0  0  0  0  0  0  0  0  0
    3.9341   11.8664   19.8745 C   0  0  0  0  0  0  0  0  0  0  0  0
    2.9073   12.7851   19.6403 C   0  0  0  0  0  0  0  0  0  0  0  0
    5.0271   13.4214   21.3197 C   0  0  0  0  0  0  0  0  0  0  0  0
    0.9054   12.9281   18.1707 C   0  0  0  0  0  0  0  0  0  0  0  0
    3.7483   10.6269   19.0584 C   0  0  0  0  0  0  0  0  0  0  0  0
    2.2896   10.7837   18.5796 C   0  0  1  0  0  0  0  0  0  0  0  0
    1.3588    9.8945   19.4122 C   0  0  0  0  0  0  0  0  0  0  0  0
    0.4791   12.4529   16.8024 C   0  0  0  0  0  0  0  0  0  0  0  0
    1.9529   12.2282   18.7548 N   0  0  0  0  0  0  0  0  0  0  0  0
    5.9121   15.4305   22.8314 N   0  0  0  0  0  0  0  0  0  0  0  0
    0.3263   13.8962   18.6671 O   0  0  0  0  0  0  0  0  0  0  0  0
    6.2917   12.9847   23.5520 O   0  0  0  0  0  0  0  0  0  0  0  0
    7.5727   13.9039   21.5870 O   0  0  0  0  0  0  0  0  0  0  0  0
    6.3515   13.8431   22.3776 S   0  0  0  0  0  0  0  0  0  0  0  0
   -0.7404   11.2112   17.0602 Cl  0  0  0  0  0  0  0  0  0  0  0  0
    2.1574   14.7761   20.0843 H   0  0  0  0  0  0  0  0  0  0  0  0
    4.0284   15.3250   21.5630 H   0  0  0  0  0  0  0  0  0  0  0  0
    5.7991   11.4513   20.8631 H   0  0  0  0  0  0  0  0  0  0  0  0
    4.4385   10.6445   18.2079 H   0  0  0  0  0  0  0  0  0  0  0  0
    3.9114    9.7216   19.6505 H   0  0  0  0  0  0  0  0  0  0  0  0
    2.2029   10.5019   17.5254 H   0  0  0  0  0  0  0  0  0  0  0  0
    1.4382   10.1673   20.4612 H   0  0  0  0  0  0  0  0  0  0  0  0
    1.6436    8.8532   19.2872 H   0  0  0  0  0  0  0  0  0  0  0  0
    0.3330   10.0311   19.0800 H   0  0  0  0  0  0  0  0  0  0  0  0
    1.3390   12.0322   16.2952 H   0  0  0  0  0  0  0  0  0  0  0  0
    0.0530   13.2881   16.2598 H   0  0  0  0  0  0  0  0  0  0  0  0
    5.9896   16.1724   22.1250 H   0  0  0  0  0  0  0  0  0  0  0  0
    5.1152   15.5462   23.4692 H   0  0  0  0  0  0  0  0  0  0  0  0
  1  2  2  0  0  0  0
  1  5  1  0  0  0  0
  2  6  1  0  0  0  0
  3  4  1  0  0  0  0
  3  6  2  0  0  0  0
  4  5  2  0  0  0  0
  4  8  1  0  0  0  0
  5 12  1  0  0  0  0
  6 17  1  0  0  0  0
  7 11  1  0  0  0  0
  7 12  1  0  0  0  0
  7 14  2  0  0  0  0
  8  9  1  0  0  0  0
  9 10  1  0  0  0  0
  9 12  1  0  0  0  0
 11 18  1  0  0  0  0
 13 17  1  0  0  0  0
 15 17  2  0  0  0  0
 16 17  2  0  0  0  0
  1 19  1  0  0  0  0
  2 20  1  0  0  0  0
  3 21  1  0  0  0  0
  8 22  1  0  0  0  0
  8 23  1  0  0  0  0
  9 24  1  0  0  0  0
 10 25  1  0  0  0  0
 10 26  1  0  0  0  0
 10 27  1  0  0  0  0
 11 28  1  0  0  0  0
 11 29  1  0  0  0  0
 13 30  1  0  0  0  0
 13 31  1  0  0  0  0
M  END
> <Mol Weight>
288,75

> <Formula>
C11H13ClN2O3S

> <ID>
EN300-23819

> <name>
Sulfonamides

> <LogP>
0,67

> <ROCS_ShapeQuery>
x0310_0A_x0719_0A_x1080_0A_x0739_0A_x0929_0A_x0526_0A_x0911_0A

> <ROCS_TanimotoCombo>
0.310 

> <ROCS_ShapeTanimoto>
0.189 

> <ROCS_ColorTanimoto>
0.121 

> <ROCS_RefTversky>
0.182 

> <ROCS_RefColorTversky>
0.135 

> <ROCS_RefTverskyCombo>
0.316 

> <ROCS_FitTversky>
1.263 

> <ROCS_FitColorTversky>
0.541 

> <ROCS_FitTverskyCombo>
1.803 

> <ROCS_ColorScore>
-3.910

> <ROCS_Overlap>
1458.089

> <ROCS_Rank>
292                 

$$$$
untitled-dbase-354_28
  -OEChem-02092407103D

 19 19  0     0  0  0  0  0  0999 V2000
    9.3428   12.3316   23.1853 C   0  0  0  0  0  0  0  0  0  0  0  0
    9.8606   11.0668   23.2762 C   0  0  0  0  0  0  0  0  0  0  0  0
    8.0833   12.2221   23.7994 C   0  0  0  0  0  0  0  0  0  0  0  0
    4.9291   15.3126   21.4706 C   0  0  0  0  0  0  0  0  0  0  0  0
    7.0601   13.2985   23.9927 C   0  0  0  0  0  0  0  0  0  0  0  0
    7.8385   10.9840   24.2377 N   0  0  0  0  0  0  0  0  0  0  0  0
    5.7268   15.2378   22.7078 N   0  0  0  0  0  0  0  0  0  0  0  0
    8.2846   15.4135   23.0558 O   0  0  0  0  0  0  0  0  0  0  0  0
    7.3583   13.7186   21.4353 O   0  0  0  0  0  0  0  0  0  0  0  0
    8.9721   10.2534   23.9024 O   0  0  0  0  0  0  0  0  0  0  0  0
    7.2520   14.4717   22.6703 S   0  0  0  0  0  0  0  0  0  0  0  0
    9.8091   13.1985   22.7413 H   0  0  0  0  0  0  0  0  0  0  0  0
   10.7864   10.6053   22.9668 H   0  0  0  0  0  0  0  0  0  0  0  0
    5.0792   14.3962   20.8809 H   0  0  0  0  0  0  0  0  0  0  0  0
    3.8640   15.4132   21.7268 H   0  0  0  0  0  0  0  0  0  0  0  0
    5.2483   16.1845   20.8808 H   0  0  0  0  0  0  0  0  0  0  0  0
    7.1959   13.8276   24.9401 H   0  0  0  0  0  0  0  0  0  0  0  0
    6.0400   12.9059   23.9545 H   0  0  0  0  0  0  0  0  0  0  0  0
    5.6364   16.0641   23.3131 H   0  0  0  0  0  0  0  0  0  0  0  0
  1  2  2  0  0  0  0
  1  3  1  0  0  0  0
  2 10  1  0  0  0  0
  3  5  1  0  0  0  0
  3  6  2  0  0  0  0
  4  7  1  0  0  0  0
  5 11  1  0  0  0  0
  6 10  1  0  0  0  0
  7 11  1  0  0  0  0
  8 11  2  0  0  0  0
  9 11  2  0  0  0  0
  1 12  1  0  0  0  0
  2 13  1  0  0  0  0
  4 14  1  0  0  0  0
  4 15  1  0  0  0  0
  4 16  1  0  0  0  0
  5 17  1  0  0  0  0
  5 18  1  0  0  0  0
  7 19  1  0  0  0  0
M  END
> <Mol Weight>
176,19

> <Formula>
C5H8N2O3S

> <ID>
EN300-321464

> <name>
Sulfonamides

> <LogP>
-0,68

> <ROCS_ShapeQuery>
x0310_0A_x0719_0A_x1080_0A_x0739_0A_x0929_0A_x0526_0A_x0911_0A

> <ROCS_TanimotoCombo>
0.310 

> <ROCS_ShapeTanimoto>
0.157 

> <ROCS_ColorTanimoto>
0.153 

> <ROCS_RefTversky>
0.150 

> <ROCS_RefColorTversky>
0.161 

> <ROCS_RefTverskyCombo>
0.311 

> <ROCS_FitTversky>
1.413 

> <ROCS_FitColorTversky>
0.745 

> <ROCS_FitTverskyCombo>
2.158 

> <ROCS_ColorScore>
-4.670

> <ROCS_Overlap>
1202.277

> <ROCS_Rank>
293                 

$$$$
untitled-dbase-1529_0
  -OEChem-02092407103D

 25 26  0     0  0  0  0  0  0999 V2000
    6.9554   11.6965   20.5794 C   0  0  0  0  0  0  0  0  0  0  0  0
    7.7154   10.7657   21.2817 C   0  0  0  0  0  0  0  0  0  0  0  0
    6.7709   12.9688   21.1061 C   0  0  0  0  0  0  0  0  0  0  0  0
    9.6222   10.5561   24.4599 C   0  0  0  0  0  0  0  0  0  0  0  0
    9.3877   11.8403   24.9079 C   0  0  0  0  0  0  0  0  0  0  0  0
    8.2943   11.1064   22.5160 C   0  0  0  0  0  0  0  0  0  0  0  0
    9.0640   10.1890   23.2439 C   0  0  0  0  0  0  0  0  0  0  0  0
    8.1111   12.3963   23.0569 C   0  0  0  0  0  0  0  0  0  0  0  0
    7.3466   13.3073   22.3332 C   0  0  0  0  0  0  0  0  0  0  0  0
    9.3167    8.7965   22.7578 C   0  0  0  0  0  0  0  0  0  0  0  0
    8.6516   12.7554   24.2367 N   0  0  0  0  0  0  0  0  0  0  0  0
    6.1063   15.5796   21.6982 N   0  0  0  0  0  0  0  0  0  0  0  0
    6.2791   14.8259   24.1574 O   0  0  0  0  0  0  0  0  0  0  0  0
    8.3490   15.6269   22.9651 O   0  0  0  0  0  0  0  0  0  0  0  0
    7.0739   14.9299   22.9452 S   0  0  0  0  0  0  0  0  0  0  0  0
    6.5108   11.4294   19.6256 H   0  0  0  0  0  0  0  0  0  0  0  0
    7.8456    9.7779   20.8464 H   0  0  0  0  0  0  0  0  0  0  0  0
    6.1764   13.6923   20.5544 H   0  0  0  0  0  0  0  0  0  0  0  0
   10.2217    9.8672   25.0445 H   0  0  0  0  0  0  0  0  0  0  0  0
    9.7986   12.1843   25.8514 H   0  0  0  0  0  0  0  0  0  0  0  0
    8.5339    8.1224   23.1215 H   0  0  0  0  0  0  0  0  0  0  0  0
    9.3327    8.7589   21.6626 H   0  0  0  0  0  0  0  0  0  0  0  0
   10.2883    8.4283   23.1066 H   0  0  0  0  0  0  0  0  0  0  0  0
    5.1114   15.7412   21.8969 H   0  0  0  0  0  0  0  0  0  0  0  0
    6.5268   16.2863   21.0825 H   0  0  0  0  0  0  0  0  0  0  0  0
  1  2  2  0  0  0  0
  1  3  1  0  0  0  0
  2  6  1  0  0  0  0
  3  9  2  0  0  0  0
  4  5  2  0  0  0  0
  4  7  1  0  0  0  0
  5 11  1  0  0  0  0
  6  7  2  0  0  0  0
  6  8  1  0  0  0  0
  7 10  1  0  0  0  0
  8  9  1  0  0  0  0
  8 11  2  0  0  0  0
  9 15  1  0  0  0  0
 12 15  1  0  0  0  0
 13 15  2  0  0  0  0
 14 15  2  0  0  0  0
  1 16  1  0  0  0  0
  2 17  1  0  0  0  0
  3 18  1  0  0  0  0
  4 19  1  0  0  0  0
  5 20  1  0  0  0  0
 10 21  1  0  0  0  0
 10 22  1  0  0  0  0
 10 23  1  0  0  0  0
 12 24  1  0  0  0  0
 12 25  1  0  0  0  0
M  END
> <Mol Weight>
222,26

> <Formula>
C10H10N2O2S

> <ID>
EN300-79491

> <name>
Sulfonamides

> <LogP>
1,25

> <ROCS_ShapeQuery>
x0310_0A_x0719_0A_x1080_0A_x0739_0A_x0929_0A_x0526_0A_x0911_0A

> <ROCS_TanimotoCombo>
0.310 

> <ROCS_ShapeTanimoto>
0.160 

> <ROCS_ColorTanimoto>
0.149 

> <ROCS_RefTversky>
0.156 

> <ROCS_RefColorTversky>
0.162 

> <ROCS_RefTverskyCombo>
0.319 

> <ROCS_FitTversky>
1.193 

> <ROCS_FitColorTversky>
0.653 

> <ROCS_FitTverskyCombo>
1.846 

> <ROCS_ColorScore>
-4.717

> <ROCS_Overlap>
1251.859

> <ROCS_Rank>
294                 

$$$$
untitled-dbase-2739_5
  -OEChem-02092407103D

 34 35  0     0  0  0  0  0  0999 V2000
    5.6579   12.9404   21.1078 B   0  0  0  0  0  0  0  0  0  0  0  0
    4.8115   11.8927   18.8057 C   0  0  0  0  0  0  0  0  0  0  0  0
    3.6205   11.8251   18.0265 C   0  0  0  0  0  0  0  0  0  0  0  0
    4.6306   12.6126   19.9661 C   0  0  0  0  0  0  0  0  0  0  0  0
    2.5745   12.4959   18.6213 C   0  0  0  0  0  0  0  0  0  0  0  0
    7.6546   13.1701   22.2055 C   0  0  0  0  0  0  0  0  0  0  0  0
    6.4774   13.6100   23.1388 C   0  0  0  0  0  0  0  0  0  0  0  0
    8.4838   14.3323   21.6139 C   0  0  0  0  0  0  0  0  0  0  0  0
    8.6317   12.1677   22.8357 C   0  0  0  0  0  0  0  0  0  0  0  0
    6.6620   14.9836   23.7990 C   0  0  0  0  0  0  0  0  0  0  0  0
    6.1135   12.5965   24.2470 C   0  0  0  0  0  0  0  0  0  0  0  0
    0.1553   11.4070   18.8791 N   0  0  0  0  0  0  0  0  0  0  0  0
    0.4387   13.9687   18.8281 O   0  0  0  0  0  0  0  0  0  0  0  0
    0.8051   12.6455   16.7157 O   0  0  0  0  0  0  0  0  0  0  0  0
    6.9840   12.5086   21.0847 O   0  0  0  0  0  0  0  0  0  0  0  0
    5.3270   13.6898   22.2367 O   0  0  0  0  0  0  0  0  0  0  0  0
    3.0300   13.2033   20.1127 S   0  0  0  0  0  0  0  0  0  0  0  0
    0.9000   12.7638   18.1604 S   0  0  0  0  0  0  0  0  0  0  0  0
    5.7475   11.4305   18.5139 H   0  0  0  0  0  0  0  0  0  0  0  0
    3.5373   11.3109   17.0781 H   0  0  0  0  0  0  0  0  0  0  0  0
    9.2665   13.9222   20.9881 H   0  0  0  0  0  0  0  0  0  0  0  0
    8.9186   14.9020   22.4256 H   0  0  0  0  0  0  0  0  0  0  0  0
    7.8314   14.9648   21.0249 H   0  0  0  0  0  0  0  0  0  0  0  0
    9.4097   11.9223   22.1187 H   0  0  0  0  0  0  0  0  0  0  0  0
    8.0947   11.2648   23.1115 H   0  0  0  0  0  0  0  0  0  0  0  0
    9.0800   12.6084   23.7213 H   0  0  0  0  0  0  0  0  0  0  0  0
    5.8012   15.2026   24.4240 H   0  0  0  0  0  0  0  0  0  0  0  0
    6.7547   15.7446   23.0296 H   0  0  0  0  0  0  0  0  0  0  0  0
    7.5604   14.9732   24.4093 H   0  0  0  0  0  0  0  0  0  0  0  0
    5.2936   12.9949   24.8314 H   0  0  0  0  0  0  0  0  0  0  0  0
    6.9787   12.4423   24.8794 H   0  0  0  0  0  0  0  0  0  0  0  0
    5.8201   11.6620   23.7854 H   0  0  0  0  0  0  0  0  0  0  0  0
    0.3293   10.4855   18.4596 H   0  0  0  0  0  0  0  0  0  0  0  0
    0.0766   11.3887   19.9032 H   0  0  0  0  0  0  0  0  0  0  0  0
  1  4  1  0  0  0  0
  1 15  1  0  0  0  0
  1 16  1  0  0  0  0
  2  3  1  0  0  0  0
  2  4  2  0  0  0  0
  3  5  2  0  0  0  0
  4 17  1  0  0  0  0
  5 17  1  0  0  0  0
  5 18  1  0  0  0  0
  6  7  1  0  0  0  0
  6  8  1  0  0  0  0
  6  9  1  0  0  0  0
  6 15  1  0  0  0  0
  7 10  1  0  0  0  0
  7 11  1  0  0  0  0
  7 16  1  0  0  0  0
 12 18  1  0  0  0  0
 13 18  2  0  0  0  0
 14 18  2  0  0  0  0
  2 19  1  0  0  0  0
  3 20  1  0  0  0  0
  8 21  1  0  0  0  0
  8 22  1  0  0  0  0
  8 23  1  0  0  0  0
  9 24  1  0  0  0  0
  9 25  1  0  0  0  0
  9 26  1  0  0  0  0
 10 27  1  0  0  0  0
 10 28  1  0  0  0  0
 10 29  1  0  0  0  0
 11 30  1  0  0  0  0
 11 31  1  0  0  0  0
 11 32  1  0  0  0  0
 12 33  1  0  0  0  0
 12 34  1  0  0  0  0
M  END
> <Mol Weight>
289,17

> <Formula>
C10H16BNO4S2

> <ID>
EN300-1989420

> <name>
Sulfonamides

> <LogP>
2,05

> <ROCS_ShapeQuery>
x0310_0A_x0719_0A_x1080_0A_x0739_0A_x0929_0A_x0526_0A_x0911_0A

> <ROCS_TanimotoCombo>
0.310 

> <ROCS_ShapeTanimoto>
0.203 

> <ROCS_ColorTanimoto>
0.106 

> <ROCS_RefTversky>
0.193 

> <ROCS_RefColorTversky>
0.123 

> <ROCS_RefTverskyCombo>
0.316 

> <ROCS_FitTversky>
1.364 

> <ROCS_FitColorTversky>
0.438 

> <ROCS_FitTverskyCombo>
1.802 

> <ROCS_ColorScore>
-3.579

> <ROCS_Overlap>
1547.328

> <ROCS_Rank>
295                 

$$$$
untitled-dbase-2456_428
  -OEChem-02092407103D

 37 37  0     1  0  0  0  0  0999 V2000
    6.0072   12.2020   20.8788 C   0  0  0  0  0  0  0  0  0  0  0  0
    2.9695   12.0969   20.1338 C   0  0  0  0  0  0  0  0  0  0  0  0
    3.5306   11.4740   18.1595 C   0  0  0  0  0  0  0  0  0  0  0  0
    4.1201   11.2414   19.5656 C   0  0  1  0  0  0  0  0  0  0  0  0
    2.7687   12.6963   18.7225 C   0  0  1  0  0  0  0  0  0  0  0  0
    8.3638   11.9244   22.4661 C   0  0  0  0  0  0  0  0  0  0  0  0
    9.1353   14.0428   21.3588 C   0  0  0  0  0  0  0  0  0  0  0  0
    7.0658   14.0575   22.7818 C   0  0  0  0  0  0  0  0  0  0  0  0
   -0.4442   11.4156   19.9763 C   0  0  0  0  0  0  0  0  0  0  0  0
    7.9228   13.2366   21.8193 C   0  0  0  0  0  0  0  0  0  0  0  0
    5.3700   11.9918   19.6842 N   0  0  0  0  0  0  0  0  0  0  0  0
    0.4323   11.3809   18.7919 N   0  0  0  0  0  0  0  0  0  0  0  0
    5.6364   11.8066   21.9791 O   0  0  0  0  0  0  0  0  0  0  0  0
    0.4856   13.9655   18.8995 O   0  0  0  0  0  0  0  0  0  0  0  0
    1.0687   12.7930   16.7450 O   0  0  0  0  0  0  0  0  0  0  0  0
    7.1410   12.9325   20.6587 O   0  0  0  0  0  0  0  0  0  0  0  0
    1.0831   12.8442   18.1965 S   0  0  0  0  0  0  0  0  0  0  0  0
    2.1282   11.4954   20.4988 H   0  0  0  0  0  0  0  0  0  0  0  0
    3.2377   12.8185   20.9114 H   0  0  0  0  0  0  0  0  0  0  0  0
    4.2469   11.6983   17.3633 H   0  0  0  0  0  0  0  0  0  0  0  0
    2.8887   10.6512   17.8224 H   0  0  0  0  0  0  0  0  0  0  0  0
    4.2006   10.2591   19.8989 H   0  0  0  0  0  0  0  0  0  0  0  0
    3.3082   13.6395   18.5791 H   0  0  0  0  0  0  0  0  0  0  0  0
    7.4963   11.3428   22.7980 H   0  0  0  0  0  0  0  0  0  0  0  0
    8.9499   11.3107   21.7743 H   0  0  0  0  0  0  0  0  0  0  0  0
    8.9696   12.1131   23.3597 H   0  0  0  0  0  0  0  0  0  0  0  0
    8.8236   14.9852   20.8941 H   0  0  0  0  0  0  0  0  0  0  0  0
    9.7015   13.4953   20.5966 H   0  0  0  0  0  0  0  0  0  0  0  0
    9.8077   14.2727   22.1917 H   0  0  0  0  0  0  0  0  0  0  0  0
    6.7494   14.9988   22.3181 H   0  0  0  0  0  0  0  0  0  0  0  0
    6.1716   13.5084   23.0941 H   0  0  0  0  0  0  0  0  0  0  0  0
    7.6371   14.3303   23.6765 H   0  0  0  0  0  0  0  0  0  0  0  0
   -1.0565   12.3292   19.9534 H   0  0  0  0  0  0  0  0  0  0  0  0
   -1.1016   10.5337   19.9718 H   0  0  0  0  0  0  0  0  0  0  0  0
    0.1711   11.4096   20.8881 H   0  0  0  0  0  0  0  0  0  0  0  0
    5.7822   12.3725   18.8472 H   0  0  0  0  0  0  0  0  0  0  0  0
    1.0375   10.5508   18.7448 H   0  0  0  0  0  0  0  0  0  0  0  0
  1 11  1  0  0  0  0
  1 13  2  0  0  0  0
  1 16  1  0  0  0  0
  2  4  1  0  0  0  0
  2  5  1  0  0  0  0
  3  4  1  0  0  0  0
  3  5  1  0  0  0  0
  4 11  1  6  0  0  0
  5 17  1  1  0  0  0
  6 10  1  0  0  0  0
  7 10  1  0  0  0  0
  8 10  1  0  0  0  0
  9 12  1  0  0  0  0
 10 16  1  0  0  0  0
 12 17  1  0  0  0  0
 14 17  2  0  0  0  0
 15 17  2  0  0  0  0
  2 18  1  0  0  0  0
  2 19  1  0  0  0  0
  3 20  1  0  0  0  0
  3 21  1  0  0  0  0
  4 22  1  0  0  0  0
  5 23  1  0  0  0  0
  6 24  1  0  0  0  0
  6 25  1  0  0  0  0
  6 26  1  0  0  0  0
  7 27  1  0  0  0  0
  7 28  1  0  0  0  0
  7 29  1  0  0  0  0
  8 30  1  0  0  0  0
  8 31  1  0  0  0  0
  8 32  1  0  0  0  0
  9 33  1  0  0  0  0
  9 34  1  0  0  0  0
  9 35  1  0  0  0  0
 11 36  1  0  0  0  0
 12 37  1  0  0  0  0
M  END
> <Mol Weight>
264,34

> <Formula>
C10H20N2O4S

> <ID>
EN300-27718000

> <name>
Sulfonamides

> <LogP>
-0,24

> <ROCS_ShapeQuery>
x0310_0A_x0719_0A_x1080_0A_x0739_0A_x0929_0A_x0526_0A_x0911_0A

> <ROCS_TanimotoCombo>
0.310 

> <ROCS_ShapeTanimoto>
0.186 

> <ROCS_ColorTanimoto>
0.123 

> <ROCS_RefTversky>
0.178 

> <ROCS_RefColorTversky>
0.141 

> <ROCS_RefTverskyCombo>
0.319 

> <ROCS_FitTversky>
1.314 

> <ROCS_FitColorTversky>
0.501 

> <ROCS_FitTverskyCombo>
1.815 

> <ROCS_ColorScore>
-4.091

> <ROCS_Overlap>
1429.428

> <ROCS_Rank>
296                 

$$$$
untitled-dbase-2316_101
  -OEChem-02092407103D

 24 24  0     0  0  0  0  0  0999 V2000
    8.2949   12.0065   22.4168 C   0  0  0  0  0  0  0  0  0  0  0  0
    9.5043   12.2213   24.4972 C   0  0  0  0  0  0  0  0  0  0  0  0
    8.0432   10.6645   22.7016 C   0  0  0  0  0  0  0  0  0  0  0  0
    9.2526   10.8792   24.7821 C   0  0  0  0  0  0  0  0  0  0  0  0
    9.0255   12.7850   23.3146 C   0  0  0  0  0  0  0  0  0  0  0  0
    8.5221   10.1008   23.8842 C   0  0  0  0  0  0  0  0  0  0  0  0
    9.2941   14.2200   23.0105 C   0  0  0  0  0  0  0  0  0  0  0  0
    7.5484    8.4796   25.3457 C   0  0  0  0  0  0  0  0  0  0  0  0
    7.0031   14.7575   21.7803 N   0  0  0  0  0  0  0  0  0  0  0  0
    7.0606   14.4940   24.3385 O   0  0  0  0  0  0  0  0  0  0  0  0
    8.1090   16.5335   23.2770 O   0  0  0  0  0  0  0  0  0  0  0  0
    8.2753    8.7916   24.1626 O   0  0  0  0  0  0  0  0  0  0  0  0
    6.6857    9.4689   25.6609 F   0  0  0  0  0  0  0  0  0  0  0  0
    8.4209    8.3457   26.3704 F   0  0  0  0  0  0  0  0  0  0  0  0
    6.8812    7.3136   25.2129 F   0  0  0  0  0  0  0  0  0  0  0  0
    7.7933   15.1154   23.2483 S   0  0  0  0  0  0  0  0  0  0  0  0
    7.9181   12.4374   21.4931 H   0  0  0  0  0  0  0  0  0  0  0  0
   10.0746   12.8203   25.2026 H   0  0  0  0  0  0  0  0  0  0  0  0
    7.4732   10.0633   21.9983 H   0  0  0  0  0  0  0  0  0  0  0  0
    9.6280   10.4462   25.7050 H   0  0  0  0  0  0  0  0  0  0  0  0
    9.6170   14.3725   21.9743 H   0  0  0  0  0  0  0  0  0  0  0  0
   10.0524   14.6511   23.6743 H   0  0  0  0  0  0  0  0  0  0  0  0
    6.1940   14.1252   21.8147 H   0  0  0  0  0  0  0  0  0  0  0  0
    6.9083   15.5141   21.0917 H   0  0  0  0  0  0  0  0  0  0  0  0
  1  3  2  0  0  0  0
  1  5  1  0  0  0  0
  2  4  1  0  0  0  0
  2  5  2  0  0  0  0
  3  6  1  0  0  0  0
  4  6  2  0  0  0  0
  5  7  1  0  0  0  0
  6 12  1  0  0  0  0
  7 16  1  0  0  0  0
  8 12  1  0  0  0  0
  8 13  1  0  0  0  0
  8 14  1  0  0  0  0
  8 15  1  0  0  0  0
  9 16  1  0  0  0  0
 10 16  2  0  0  0  0
 11 16  2  0  0  0  0
  1 17  1  0  0  0  0
  2 18  1  0  0  0  0
  3 19  1  0  0  0  0
  4 20  1  0  0  0  0
  7 21  1  0  0  0  0
  7 22  1  0  0  0  0
  9 23  1  0  0  0  0
  9 24  1  0  0  0  0
M  END
> <Mol Weight>
255,21

> <Formula>
C8H8F3NO3S

> <ID>
EN300-321187

> <name>
Sulfonamides

> <LogP>
1,77

> <ROCS_ShapeQuery>
x0310_0A_x0719_0A_x1080_0A_x0739_0A_x0929_0A_x0526_0A_x0911_0A

> <ROCS_TanimotoCombo>
0.309 

> <ROCS_ShapeTanimoto>
0.151 

> <ROCS_ColorTanimoto>
0.158 

> <ROCS_RefTversky>
0.149 

> <ROCS_RefColorTversky>
0.166 

> <ROCS_RefTverskyCombo>
0.315 

> <ROCS_FitTversky>
1.110 

> <ROCS_FitColorTversky>
0.768 

> <ROCS_FitTverskyCombo>
1.878 

> <ROCS_ColorScore>
-4.814

> <ROCS_Overlap>
1194.903

> <ROCS_Rank>
297                 

$$$$
untitled-dbase-1927_17
  -OEChem-02092407103D

 26 27  0     0  0  0  0  0  0999 V2000
    2.1197   11.5628   17.4307 C   0  0  0  0  0  0  0  0  0  0  0  0
    2.8710   12.5587   19.4869 C   0  0  0  0  0  0  0  0  0  0  0  0
    3.4487   11.3125   17.1292 C   0  0  0  0  0  0  0  0  0  0  0  0
    7.0787   12.5364   20.8810 C   0  0  0  0  0  0  0  0  0  0  0  0
    5.2030   13.6810   20.7978 C   0  0  0  0  0  0  0  0  0  0  0  0
    1.8338   12.1982   18.6340 C   0  0  0  0  0  0  0  0  0  0  0  0
    6.4214   13.6532   21.4311 C   0  0  0  0  0  0  0  0  0  0  0  0
    4.1664   12.2637   19.0934 C   0  0  0  0  0  0  0  0  0  0  0  0
    0.4206   12.4920   19.0075 C   0  0  0  0  0  0  0  0  0  0  0  0
    4.4831   11.6478   17.9324 N   0  0  0  0  0  0  0  0  0  0  0  0
    6.3390   11.9007   19.9685 N   0  0  0  0  0  0  0  0  0  0  0  0
    5.2044   12.6203   19.9404 N   0  0  0  0  0  0  0  0  0  0  0  0
    5.6913   15.8239   22.7949 N   0  0  0  0  0  0  0  0  0  0  0  0
    7.1752   14.0252   23.8942 O   0  0  0  0  0  0  0  0  0  0  0  0
    8.1465   15.4904   22.0894 O   0  0  0  0  0  0  0  0  0  0  0  0
    7.0013   14.7267   22.6118 S   0  0  0  0  0  0  0  0  0  0  0  0
    1.3329   11.2685   16.7447 H   0  0  0  0  0  0  0  0  0  0  0  0
    2.6636   13.0551   20.4305 H   0  0  0  0  0  0  0  0  0  0  0  0
    3.7245   10.8189   16.2030 H   0  0  0  0  0  0  0  0  0  0  0  0
    8.0656   12.1571   21.1052 H   0  0  0  0  0  0  0  0  0  0  0  0
    4.3586   14.3520   20.8862 H   0  0  0  0  0  0  0  0  0  0  0  0
   -0.0085   11.6536   19.5700 H   0  0  0  0  0  0  0  0  0  0  0  0
    0.3512   13.3968   19.6254 H   0  0  0  0  0  0  0  0  0  0  0  0
   -0.1989   12.6671   18.1180 H   0  0  0  0  0  0  0  0  0  0  0  0
    5.5082   16.4979   22.0416 H   0  0  0  0  0  0  0  0  0  0  0  0
    4.8440   15.4989   23.2762 H   0  0  0  0  0  0  0  0  0  0  0  0
  1  3  2  0  0  0  0
  1  6  1  0  0  0  0
  2  6  2  0  0  0  0
  2  8  1  0  0  0  0
  3 10  1  0  0  0  0
  4  7  1  0  0  0  0
  4 11  2  0  0  0  0
  5  7  2  0  0  0  0
  5 12  1  0  0  0  0
  6  9  1  0  0  0  0
  7 16  1  0  0  0  0
  8 10  2  0  0  0  0
  8 12  1  0  0  0  0
 11 12  1  0  0  0  0
 13 16  1  0  0  0  0
 14 16  2  0  0  0  0
 15 16  2  0  0  0  0
  1 17  1  0  0  0  0
  2 18  1  0  0  0  0
  3 19  1  0  0  0  0
  4 20  1  0  0  0  0
  5 21  1  0  0  0  0
  9 22  1  0  0  0  0
  9 23  1  0  0  0  0
  9 24  1  0  0  0  0
 13 25  1  0  0  0  0
 13 26  1  0  0  0  0
M  END
> <Mol Weight>
238,27

> <Formula>
C9H10N4O2S

> <ID>
EN300-114864

> <name>
Sulfonamides

> <LogP>
0,56

> <ROCS_ShapeQuery>
x0310_0A_x0719_0A_x1080_0A_x0739_0A_x0929_0A_x0526_0A_x0911_0A

> <ROCS_TanimotoCombo>
0.309 

> <ROCS_ShapeTanimoto>
0.171 

> <ROCS_ColorTanimoto>
0.138 

> <ROCS_RefTversky>
0.166 

> <ROCS_RefColorTversky>
0.155 

> <ROCS_RefTverskyCombo>
0.321 

> <ROCS_FitTversky>
1.215 

> <ROCS_FitColorTversky>
0.554 

> <ROCS_FitTverskyCombo>
1.768 

> <ROCS_ColorScore>
-4.521

> <ROCS_Overlap>
1331.896

> <ROCS_Rank>
298                 

$$$$
untitled-dbase-1831_1278
  -OEChem-02092407103D

 33 33  0     1  0  0  0  0  0999 V2000
    0.8190   12.9652   18.3404 C   0  0  0  0  0  0  0  0  0  0  0  0
    3.8224   10.8699   18.7751 C   0  0  0  0  0  0  0  0  0  0  0  0
    4.5715   11.4683   19.9677 C   0  0  0  0  0  0  0  0  0  0  0  0
    2.3170   11.0748   18.8745 C   0  0  0  0  0  0  0  0  0  0  0  0
    2.9014   13.3555   19.7206 C   0  0  0  0  0  0  0  0  0  0  0  0
    3.7710   12.5579   20.6978 C   0  0  2  0  0  0  0  0  0  0  0  0
    0.3910   12.2306   17.0934 C   0  0  0  0  0  0  0  0  0  0  0  0
    7.6392   11.5974   23.4676 C   0  0  0  0  0  0  0  0  0  0  0  0
    4.6968   13.4765   21.4913 C   0  0  0  0  0  0  0  0  0  0  0  0
    1.9759   12.4968   18.9666 N   0  0  0  0  0  0  0  0  0  0  0  0
    5.4116   12.7187   22.4624 N   0  0  0  0  0  0  0  0  0  0  0  0
    0.1537   13.9232   18.7411 O   0  0  0  0  0  0  0  0  0  0  0  0
    6.9360   14.0400   24.0914 O   0  0  0  0  0  0  0  0  0  0  0  0
    7.7795   13.5672   21.7630 O   0  0  0  0  0  0  0  0  0  0  0  0
    7.0156   13.1740   22.9314 S   0  0  0  0  0  0  0  0  0  0  0  0
    4.1973   11.3230   17.8442 H   0  0  0  0  0  0  0  0  0  0  0  0
    4.0443    9.7924   18.7055 H   0  0  0  0  0  0  0  0  0  0  0  0
    4.8350   10.6592   20.6733 H   0  0  0  0  0  0  0  0  0  0  0  0
    5.5347   11.8842   19.6157 H   0  0  0  0  0  0  0  0  0  0  0  0
    1.8136   10.6766   17.9822 H   0  0  0  0  0  0  0  0  0  0  0  0
    1.9236   10.5231   19.7377 H   0  0  0  0  0  0  0  0  0  0  0  0
    2.3629   14.1441   20.2654 H   0  0  0  0  0  0  0  0  0  0  0  0
    3.5287   13.8758   18.9756 H   0  0  0  0  0  0  0  0  0  0  0  0
    3.0998   12.0597   21.4245 H   0  0  0  0  0  0  0  0  0  0  0  0
   -0.2760   11.4207   17.3699 H   0  0  0  0  0  0  0  0  0  0  0  0
    1.2699   11.8336   16.5954 H   0  0  0  0  0  0  0  0  0  0  0  0
   -0.1199   12.9224   16.4314 H   0  0  0  0  0  0  0  0  0  0  0  0
    8.6696   11.7300   23.8011 H   0  0  0  0  0  0  0  0  0  0  0  0
    7.0146   11.2409   24.2880 H   0  0  0  0  0  0  0  0  0  0  0  0
    7.5960   10.9055   22.6251 H   0  0  0  0  0  0  0  0  0  0  0  0
    5.3831   13.9348   20.7812 H   0  0  0  0  0  0  0  0  0  0  0  0
    4.0718   14.2261   21.9738 H   0  0  0  0  0  0  0  0  0  0  0  0
    4.8447   12.3088   23.2448 H   0  0  0  0  0  0  0  0  0  0  0  0
  1  7  1  0  0  0  0
  1 10  1  0  0  0  0
  1 12  2  0  0  0  0
  2  3  1  0  0  0  0
  2  4  1  0  0  0  0
  3  6  1  0  0  0  0
  4 10  1  0  0  0  0
  5  6  1  0  0  0  0
  5 10  1  0  0  0  0
  6  9  1  0  0  0  0
  8 15  1  0  0  0  0
  9 11  1  0  0  0  0
 11 15  1  0  0  0  0
 13 15  2  0  0  0  0
 14 15  2  0  0  0  0
  2 16  1  0  0  0  0
  2 17  1  0  0  0  0
  3 18  1  0  0  0  0
  3 19  1  0  0  0  0
  4 20  1  0  0  0  0
  4 21  1  0  0  0  0
  5 22  1  0  0  0  0
  5 23  1  0  0  0  0
  6 24  1  0  0  0  0
  7 25  1  0  0  0  0
  7 26  1  0  0  0  0
  7 27  1  0  0  0  0
  8 28  1  0  0  0  0
  8 29  1  0  0  0  0
  8 30  1  0  0  0  0
  9 31  1  0  0  0  0
  9 32  1  0  0  0  0
 11 33  1  0  0  0  0
M  END
> <Mol Weight>
234,31

> <Formula>
C9H18N2O3S

> <ID>
EN300-7530327

> <name>
Sulfonamides

> <LogP>
-1,56

> <ROCS_ShapeQuery>
x0310_0A_x0719_0A_x1080_0A_x0739_0A_x0929_0A_x0526_0A_x0911_0A

> <ROCS_TanimotoCombo>
0.309 

> <ROCS_ShapeTanimoto>
0.186 

> <ROCS_ColorTanimoto>
0.123 

> <ROCS_RefTversky>
0.176 

> <ROCS_RefColorTversky>
0.133 

> <ROCS_RefTverskyCombo>
0.309 

> <ROCS_FitTversky>
1.420 

> <ROCS_FitColorTversky>
0.616 

> <ROCS_FitTverskyCombo>
2.036 

> <ROCS_ColorScore>
-3.860

> <ROCS_Overlap>
1412.574

> <ROCS_Rank>
299                 

$$$$
untitled-dbase-2416_207
  -OEChem-02092407103D

 27 27  0     0  0  0  0  0  0999 V2000
    4.5276   11.2296   18.7256 C   0  0  0  0  0  0  0  0  0  0  0  0
    3.8638   12.2934   20.7907 C   0  0  0  0  0  0  0  0  0  0  0  0
    3.3174   11.6057   18.1429 C   0  0  0  0  0  0  0  0  0  0  0  0
    2.6536   12.6694   20.2080 C   0  0  0  0  0  0  0  0  0  0  0  0
    4.8008   11.5734   20.0495 C   0  0  0  0  0  0  0  0  0  0  0  0
    2.3804   12.3256   18.8841 C   0  0  0  0  0  0  0  0  0  0  0  0
    7.0079   12.0244   21.1757 C   0  0  0  0  0  0  0  0  0  0  0  0
    8.1746   11.2025   21.7118 C   0  0  0  0  0  0  0  0  0  0  0  0
    8.8966   11.8474   22.8861 C   0  0  0  0  0  0  0  0  0  0  0  0
   -0.1120   11.4472   18.5357 N   0  0  0  0  0  0  0  0  0  0  0  0
    6.0113   11.1973   20.6324 N   0  0  0  0  0  0  0  0  0  0  0  0
    6.9831   13.2483   21.2518 O   0  0  0  0  0  0  0  0  0  0  0  0
    0.3558   13.9608   18.8647 O   0  0  0  0  0  0  0  0  0  0  0  0
    1.0443   12.8503   16.7106 O   0  0  0  0  0  0  0  0  0  0  0  0
    0.8654   12.7960   18.1548 S   0  0  0  0  0  0  0  0  0  0  0  0
    7.7891   12.1179   24.2548 Cl  0  0  0  0  0  0  0  0  0  0  0  0
    5.2504   10.6687   18.1385 H   0  0  0  0  0  0  0  0  0  0  0  0
    4.0662   12.5669   21.8232 H   0  0  0  0  0  0  0  0  0  0  0  0
    3.1146   11.3324   17.1108 H   0  0  0  0  0  0  0  0  0  0  0  0
    1.9307   13.2302   20.7945 H   0  0  0  0  0  0  0  0  0  0  0  0
    7.7631   10.2393   22.0380 H   0  0  0  0  0  0  0  0  0  0  0  0
    8.8791   10.9994   20.8961 H   0  0  0  0  0  0  0  0  0  0  0  0
    9.7263   11.2302   23.2435 H   0  0  0  0  0  0  0  0  0  0  0  0
    9.2930   12.8247   22.5955 H   0  0  0  0  0  0  0  0  0  0  0  0
   -0.8456   11.5684   19.2446 H   0  0  0  0  0  0  0  0  0  0  0  0
   -0.3728   10.8102   17.7731 H   0  0  0  0  0  0  0  0  0  0  0  0
    6.2017   10.1894   20.6742 H   0  0  0  0  0  0  0  0  0  0  0  0
  1  3  2  0  0  0  0
  1  5  1  0  0  0  0
  2  4  1  0  0  0  0
  2  5  2  0  0  0  0
  3  6  1  0  0  0  0
  4  6  2  0  0  0  0
  5 11  1  0  0  0  0
  6 15  1  0  0  0  0
  7  8  1  0  0  0  0
  7 11  1  0  0  0  0
  7 12  2  0  0  0  0
  8  9  1  0  0  0  0
  9 16  1  0  0  0  0
 10 15  1  0  0  0  0
 13 15  2  0  0  0  0
 14 15  2  0  0  0  0
  1 17  1  0  0  0  0
  2 18  1  0  0  0  0
  3 19  1  0  0  0  0
  4 20  1  0  0  0  0
  8 21  1  0  0  0  0
  8 22  1  0  0  0  0
  9 23  1  0  0  0  0
  9 24  1  0  0  0  0
 10 25  1  0  0  0  0
 10 26  1  0  0  0  0
 11 27  1  0  0  0  0
M  END
> <Mol Weight>
262,71

> <Formula>
C9H11ClN2O3S

> <ID>
EN300-25807

> <name>
Sulfonamides

> <LogP>
0,59

> <ROCS_ShapeQuery>
x0310_0A_x0719_0A_x1080_0A_x0739_0A_x0929_0A_x0526_0A_x0911_0A

> <ROCS_TanimotoCombo>
0.309 

> <ROCS_ShapeTanimoto>
0.195 

> <ROCS_ColorTanimoto>
0.114 

> <ROCS_RefTversky>
0.184 

> <ROCS_RefColorTversky>
0.128 

> <ROCS_RefTverskyCombo>
0.312 

> <ROCS_FitTversky>
1.412 

> <ROCS_FitColorTversky>
0.515 

> <ROCS_FitTverskyCombo>
1.927 

> <ROCS_ColorScore>
-3.718

> <ROCS_Overlap>
1476.352

> <ROCS_Rank>
300                 

$$$$
untitled-dbase-982_69
  -OEChem-02092407103D

 23 23  0     0  0  0  0  0  0999 V2000
    9.9182   11.8297   23.7243 C   0  0  0  0  0  0  0  0  0  0  0  0
   10.1006   10.5347   23.2392 C   0  0  0  0  0  0  0  0  0  0  0  0
    8.6433   12.2668   24.0838 C   0  0  0  0  0  0  0  0  0  0  0  0
    9.0079    9.6768   23.1134 C   0  0  0  0  0  0  0  0  0  0  0  0
    7.5507   11.4089   23.9579 C   0  0  0  0  0  0  0  0  0  0  0  0
    7.7330   10.1139   23.4728 C   0  0  0  0  0  0  0  0  0  0  0  0
    6.1889   11.8799   24.3434 C   0  0  0  0  0  0  0  0  0  0  0  0
    5.5556   12.8282   23.3218 C   0  0  0  0  0  0  0  0  0  0  0  0
    5.3434   15.2997   22.3743 N   0  0  0  0  0  0  0  0  0  0  0  0
    6.9529   14.7988   24.3174 O   0  0  0  0  0  0  0  0  0  0  0  0
    7.5058   13.9578   21.9995 O   0  0  0  0  0  0  0  0  0  0  0  0
    6.6892    9.2823   23.3486 F   0  0  0  0  0  0  0  0  0  0  0  0
    6.5325   14.2698   23.0316 S   0  0  0  0  0  0  0  0  0  0  0  0
   10.7690   12.4981   23.8218 H   0  0  0  0  0  0  0  0  0  0  0  0
   11.0931   10.1947   22.9588 H   0  0  0  0  0  0  0  0  0  0  0  0
    8.5107   13.2777   24.4601 H   0  0  0  0  0  0  0  0  0  0  0  0
    9.1496    8.6683   22.7360 H   0  0  0  0  0  0  0  0  0  0  0  0
    6.2442   12.4093   25.3104 H   0  0  0  0  0  0  0  0  0  0  0  0
    5.5076   11.0289   24.5170 H   0  0  0  0  0  0  0  0  0  0  0  0
    5.4559   12.3333   22.3504 H   0  0  0  0  0  0  0  0  0  0  0  0
    4.5650   13.1692   23.6377 H   0  0  0  0  0  0  0  0  0  0  0  0
    4.9974   15.0894   21.4300 H   0  0  0  0  0  0  0  0  0  0  0  0
    4.6212   15.6623   23.0087 H   0  0  0  0  0  0  0  0  0  0  0  0
  1  2  1  0  0  0  0
  1  3  2  0  0  0  0
  2  4  2  0  0  0  0
  3  5  1  0  0  0  0
  4  6  1  0  0  0  0
  5  6  2  0  0  0  0
  5  7  1  0  0  0  0
  6 12  1  0  0  0  0
  7  8  1  0  0  0  0
  8 13  1  0  0  0  0
  9 13  1  0  0  0  0
 10 13  2  0  0  0  0
 11 13  2  0  0  0  0
  1 14  1  0  0  0  0
  2 15  1  0  0  0  0
  3 16  1  0  0  0  0
  4 17  1  0  0  0  0
  7 18  1  0  0  0  0
  7 19  1  0  0  0  0
  8 20  1  0  0  0  0
  8 21  1  0  0  0  0
  9 22  1  0  0  0  0
  9 23  1  0  0  0  0
M  END
> <Mol Weight>
203,23

> <Formula>
C8H10FNO2S

> <ID>
EN300-283831

> <name>
Sulfonamides

> <LogP>
0,77

> <ROCS_ShapeQuery>
x0310_0A_x0719_0A_x1080_0A_x0739_0A_x0929_0A_x0526_0A_x0911_0A

> <ROCS_TanimotoCombo>
0.309 

> <ROCS_ShapeTanimoto>
0.156 

> <ROCS_ColorTanimoto>
0.153 

> <ROCS_RefTversky>
0.150 

> <ROCS_RefColorTversky>
0.157 

> <ROCS_RefTverskyCombo>
0.308 

> <ROCS_FitTversky>
1.295 

> <ROCS_FitColorTversky>
0.857 

> <ROCS_FitTverskyCombo>
2.152 

> <ROCS_ColorScore>
-4.557

> <ROCS_Overlap>
1202.931

> <ROCS_Rank>
301                 

$$$$
untitled-dbase-2630_186
  -OEChem-02092407103D

 40 40  0     1  0  0  0  0  0999 V2000
    6.5743   12.8670   21.3946 C   0  0  0  0  0  0  0  0  0  0  0  0
    9.5341   10.0683   23.6697 C   0  0  0  0  0  0  0  0  0  0  0  0
    8.4105   10.2817   24.6751 C   0  0  0  0  0  0  0  0  0  0  0  0
    9.3717   10.9345   22.4142 C   0  0  0  0  0  0  0  0  0  0  0  0
    8.3157   11.7385   25.1374 C   0  0  0  0  0  0  0  0  0  0  0  0
    8.6785   12.2826   22.6709 C   0  0  2  0  0  0  0  0  0  0  0  0
    8.8822   12.7347   24.1191 C   0  0  1  0  0  0  0  0  0  0  0  0
    5.5817   10.7105   19.8090 C   0  0  0  0  0  0  0  0  0  0  0  0
    3.3014   11.6396   20.3055 C   0  0  0  0  0  0  0  0  0  0  0  0
    4.9664   13.0245   19.0335 C   0  0  0  0  0  0  0  0  0  0  0  0
    4.7810   11.9727   20.1262 C   0  0  0  0  0  0  0  0  0  0  0  0
    8.8518   14.6065   26.0003 N   0  0  0  0  0  0  0  0  0  0  0  0
    7.2238   12.1433   22.3700 N   0  0  0  0  0  0  0  0  0  0  0  0
    7.0880   13.7031   20.6587 O   0  0  0  0  0  0  0  0  0  0  0  0
    8.9577   15.2749   23.5186 O   0  0  0  0  0  0  0  0  0  0  0  0
    6.8203   14.3023   24.4519 O   0  0  0  0  0  0  0  0  0  0  0  0
    5.2546   12.5136   21.3647 O   0  0  0  0  0  0  0  0  0  0  0  0
    8.2686   14.3691   24.4174 S   0  0  0  0  0  0  0  0  0  0  0  0
   10.4992   10.2923   24.1437 H   0  0  0  0  0  0  0  0  0  0  0  0
    9.5694    9.0089   23.3793 H   0  0  0  0  0  0  0  0  0  0  0  0
    7.4544    9.9763   24.2332 H   0  0  0  0  0  0  0  0  0  0  0  0
    8.5752    9.6373   25.5486 H   0  0  0  0  0  0  0  0  0  0  0  0
   10.3712   11.1319   21.9953 H   0  0  0  0  0  0  0  0  0  0  0  0
    8.8317   10.3679   21.6401 H   0  0  0  0  0  0  0  0  0  0  0  0
    7.2614   11.9813   25.3616 H   0  0  0  0  0  0  0  0  0  0  0  0
    8.8470   11.8457   26.0997 H   0  0  0  0  0  0  0  0  0  0  0  0
    9.0378   13.0266   21.9859 H   0  0  0  0  0  0  0  0  0  0  0  0
    9.9671   12.8179   24.2973 H   0  0  0  0  0  0  0  0  0  0  0  0
    6.6443   10.9454   19.6796 H   0  0  0  0  0  0  0  0  0  0  0  0
    5.4852    9.9617   20.6019 H   0  0  0  0  0  0  0  0  0  0  0  0
    5.2473   10.2618   18.8666 H   0  0  0  0  0  0  0  0  0  0  0  0
    2.7231   12.5423   20.5332 H   0  0  0  0  0  0  0  0  0  0  0  0
    3.1545   10.9575   21.1507 H   0  0  0  0  0  0  0  0  0  0  0  0
    2.8802   11.1753   19.4080 H   0  0  0  0  0  0  0  0  0  0  0  0
    4.3922   13.9300   19.2607 H   0  0  0  0  0  0  0  0  0  0  0  0
    6.0187   13.3030   18.9162 H   0  0  0  0  0  0  0  0  0  0  0  0
    4.5943   12.6559   18.0707 H   0  0  0  0  0  0  0  0  0  0  0  0
    9.6244   15.2708   26.1322 H   0  0  0  0  0  0  0  0  0  0  0  0
    8.1688   14.6082   26.7678 H   0  0  0  0  0  0  0  0  0  0  0  0
    6.6836   11.4794   22.9134 H   0  0  0  0  0  0  0  0  0  0  0  0
  1 13  1  0  0  0  0
  1 14  2  0  0  0  0
  1 17  1  0  0  0  0
  2  3  1  0  0  0  0
  2  4  1  0  0  0  0
  3  5  1  0  0  0  0
  4  6  1  0  0  0  0
  5  7  1  0  0  0  0
  6  7  1  0  0  0  0
  6 13  1  6  0  0  0
  7 18  1  6  0  0  0
  8 11  1  0  0  0  0
  9 11  1  0  0  0  0
 10 11  1  0  0  0  0
 11 17  1  0  0  0  0
 12 18  1  0  0  0  0
 15 18  2  0  0  0  0
 16 18  2  0  0  0  0
  2 19  1  0  0  0  0
  2 20  1  0  0  0  0
  3 21  1  0  0  0  0
  3 22  1  0  0  0  0
  4 23  1  0  0  0  0
  4 24  1  0  0  0  0
  5 25  1  0  0  0  0
  5 26  1  0  0  0  0
  6 27  1  0  0  0  0
  7 28  1  0  0  0  0
  8 29  1  0  0  0  0
  8 30  1  0  0  0  0
  8 31  1  0  0  0  0
  9 32  1  0  0  0  0
  9 33  1  0  0  0  0
  9 34  1  0  0  0  0
 10 35  1  0  0  0  0
 10 36  1  0  0  0  0
 10 37  1  0  0  0  0
 12 38  1  0  0  0  0
 12 39  1  0  0  0  0
 13 40  1  0  0  0  0
M  END
> <Mol Weight>
278,37

> <Formula>
C11H22N2O4S

> <ID>
EN300-37325491

> <name>
Sulfonamides

> <LogP>
0,88

> <ROCS_ShapeQuery>
x0310_0A_x0719_0A_x1080_0A_x0739_0A_x0929_0A_x0526_0A_x0911_0A

> <ROCS_TanimotoCombo>
0.309 

> <ROCS_ShapeTanimoto>
0.193 

> <ROCS_ColorTanimoto>
0.116 

> <ROCS_RefTversky>
0.184 

> <ROCS_RefColorTversky>
0.133 

> <ROCS_RefTverskyCombo>
0.318 

> <ROCS_FitTversky>
1.310 

> <ROCS_FitColorTversky>
0.475 

> <ROCS_FitTverskyCombo>
1.785 

> <ROCS_ColorScore>
-3.879

> <ROCS_Overlap>
1477.482

> <ROCS_Rank>
302                 

$$$$
untitled-dbase-2360_3
  -OEChem-02092407103D

 24 25  0     0  0  0  0  0  0999 V2000
    9.2954   10.1974   23.0466 C   0  0  0  0  0  0  0  0  0  0  0  0
    9.3282   10.4642   24.4072 C   0  0  0  0  0  0  0  0  0  0  0  0
    8.7170   11.1217   22.1785 C   0  0  0  0  0  0  0  0  0  0  0  0
    8.7819   11.6529   24.8880 C   0  0  0  0  0  0  0  0  0  0  0  0
    8.1684   12.3126   22.6487 C   0  0  0  0  0  0  0  0  0  0  0  0
    8.2015   12.5832   24.0290 C   0  0  0  0  0  0  0  0  0  0  0  0
    7.1010   14.3227   22.2994 C   0  0  0  0  0  0  0  0  0  0  0  0
    7.1331   14.5860   23.6430 C   0  0  0  0  0  0  0  0  0  0  0  0
    4.3395   13.9560   20.4500 C   0  0  0  0  0  0  0  0  0  0  0  0
    7.6160   13.1886   21.7913 N   0  0  0  0  0  0  0  0  0  0  0  0
    7.6812   13.7228   24.5171 N   0  0  0  0  0  0  0  0  0  0  0  0
    6.5247   15.2269   21.3571 N   0  0  0  0  0  0  0  0  0  0  0  0
    4.3279   15.2472   22.7083 O   0  0  0  0  0  0  0  0  0  0  0  0
    4.4211   16.5689   20.5660 O   0  0  0  0  0  0  0  0  0  0  0  0
    4.8127   15.4150   21.3510 S   0  0  0  0  0  0  0  0  0  0  0  0
    6.4953   16.0115   24.3499 Cl  0  0  0  0  0  0  0  0  0  0  0  0
    9.7172    9.2754   22.6587 H   0  0  0  0  0  0  0  0  0  0  0  0
    9.7759    9.7526   25.0939 H   0  0  0  0  0  0  0  0  0  0  0  0
    8.6990   10.9002   21.1130 H   0  0  0  0  0  0  0  0  0  0  0  0
    8.8147   11.8490   25.9579 H   0  0  0  0  0  0  0  0  0  0  0  0
    3.2517   13.9408   20.3659 H   0  0  0  0  0  0  0  0  0  0  0  0
    4.7989   13.9977   19.4613 H   0  0  0  0  0  0  0  0  0  0  0  0
    4.6929   13.0823   20.9996 H   0  0  0  0  0  0  0  0  0  0  0  0
    6.9570   15.1947   20.4188 H   0  0  0  0  0  0  0  0  0  0  0  0
  1  2  1  0  0  0  0
  1  3  2  0  0  0  0
  2  4  2  0  0  0  0
  3  5  1  0  0  0  0
  4  6  1  0  0  0  0
  5  6  1  0  0  0  0
  5 10  2  0  0  0  0
  6 11  2  0  0  0  0
  7  8  2  0  0  0  0
  7 10  1  0  0  0  0
  7 12  1  0  0  0  0
  8 11  1  0  0  0  0
  8 16  1  0  0  0  0
  9 15  1  0  0  0  0
 12 15  1  0  0  0  0
 13 15  2  0  0  0  0
 14 15  2  0  0  0  0
  1 17  1  0  0  0  0
  2 18  1  0  0  0  0
  3 19  1  0  0  0  0
  4 20  1  0  0  0  0
  9 21  1  0  0  0  0
  9 22  1  0  0  0  0
  9 23  1  0  0  0  0
 12 24  1  0  0  0  0
M  END
> <Mol Weight>
257,69

> <Formula>
C9H8ClN3O2S

> <ID>
EN300-24567939

> <name>
Sulfonamides

> <LogP>
1,09

> <ROCS_ShapeQuery>
x0310_0A_x0719_0A_x1080_0A_x0739_0A_x0929_0A_x0526_0A_x0911_0A

> <ROCS_TanimotoCombo>
0.309 

> <ROCS_ShapeTanimoto>
0.183 

> <ROCS_ColorTanimoto>
0.126 

> <ROCS_RefTversky>
0.176 

> <ROCS_RefColorTversky>
0.143 

> <ROCS_RefTverskyCombo>
0.319 

> <ROCS_FitTversky>
1.297 

> <ROCS_FitColorTversky>
0.509 

> <ROCS_FitTverskyCombo>
1.806 

> <ROCS_ColorScore>
-4.160

> <ROCS_Overlap>
1409.546

> <ROCS_Rank>
303                 

$$$$
untitled-dbase-1130_80
  -OEChem-02092407103D

 28 28  0     0  0  0  0  0  0999 V2000
    9.9944   11.7048   24.2616 C   0  0  0  0  0  0  0  0  0  0  0  0
    7.7798   11.3729   25.3998 C   0  0  0  0  0  0  0  0  0  0  0  0
    9.5747   10.6108   23.2844 C   0  0  0  0  0  0  0  0  0  0  0  0
    7.4879   10.2951   24.3597 C   0  0  0  0  0  0  0  0  0  0  0  0
    8.7755   12.4005   24.8659 C   0  0  0  0  0  0  0  0  0  0  0  0
    7.2986   14.1854   24.4510 C   0  0  0  0  0  0  0  0  0  0  0  0
    7.0034   15.2815   23.4458 C   0  0  0  0  0  0  0  0  0  0  0  0
    6.0162   16.0914   21.1175 N   0  0  0  0  0  0  0  0  0  0  0  0
    7.1263   13.7791   21.3116 O   0  0  0  0  0  0  0  0  0  0  0  0
    4.8804   14.1730   22.4007 O   0  0  0  0  0  0  0  0  0  0  0  0
    8.6966    9.6793   23.9157 O   0  0  0  0  0  0  0  0  0  0  0  0
    8.1279   13.1887   23.8695 O   0  0  0  0  0  0  0  0  0  0  0  0
    6.1951   14.6489   22.0082 S   0  0  0  0  0  0  0  0  0  0  0  0
   10.6302   11.2927   25.0551 H   0  0  0  0  0  0  0  0  0  0  0  0
   10.6066   12.4508   23.7357 H   0  0  0  0  0  0  0  0  0  0  0  0
    6.8454   11.8869   25.6678 H   0  0  0  0  0  0  0  0  0  0  0  0
    8.1561   10.9219   26.3271 H   0  0  0  0  0  0  0  0  0  0  0  0
    9.0399   11.0541   22.4389 H   0  0  0  0  0  0  0  0  0  0  0  0
   10.4457   10.0791   22.8846 H   0  0  0  0  0  0  0  0  0  0  0  0
    6.8135    9.5294   24.7601 H   0  0  0  0  0  0  0  0  0  0  0  0
    7.0005   10.7428   23.4881 H   0  0  0  0  0  0  0  0  0  0  0  0
    9.0886   13.0684   25.6721 H   0  0  0  0  0  0  0  0  0  0  0  0
    7.8242   14.5947   25.3194 H   0  0  0  0  0  0  0  0  0  0  0  0
    6.3808   13.7036   24.8015 H   0  0  0  0  0  0  0  0  0  0  0  0
    7.9185   15.7692   23.0976 H   0  0  0  0  0  0  0  0  0  0  0  0
    6.3318   16.0306   23.8744 H   0  0  0  0  0  0  0  0  0  0  0  0
    5.3323   16.7801   21.4544 H   0  0  0  0  0  0  0  0  0  0  0  0
    6.8618   16.5116   20.7126 H   0  0  0  0  0  0  0  0  0  0  0  0
  1  3  1  0  0  0  0
  1  5  1  0  0  0  0
  2  4  1  0  0  0  0
  2  5  1  0  0  0  0
  3 11  1  0  0  0  0
  4 11  1  0  0  0  0
  5 12  1  0  0  0  0
  6  7  1  0  0  0  0
  6 12  1  0  0  0  0
  7 13  1  0  0  0  0
  8 13  1  0  0  0  0
  9 13  2  0  0  0  0
 10 13  2  0  0  0  0
  1 14  1  0  0  0  0
  1 15  1  0  0  0  0
  2 16  1  0  0  0  0
  2 17  1  0  0  0  0
  3 18  1  0  0  0  0
  3 19  1  0  0  0  0
  4 20  1  0  0  0  0
  4 21  1  0  0  0  0
  5 22  1  0  0  0  0
  6 23  1  0  0  0  0
  6 24  1  0  0  0  0
  7 25  1  0  0  0  0
  7 26  1  0  0  0  0
  8 27  1  0  0  0  0
  8 28  1  0  0  0  0
M  END
> <Mol Weight>
209,26

> <Formula>
C7H15NO4S

> <ID>
EN300-1120849

> <name>
Sulfonamides

> <LogP>
-1,47

> <ROCS_ShapeQuery>
x0310_0A_x0719_0A_x1080_0A_x0739_0A_x0929_0A_x0526_0A_x0911_0A

> <ROCS_TanimotoCombo>
0.309 

> <ROCS_ShapeTanimoto>
0.166 

> <ROCS_ColorTanimoto>
0.142 

> <ROCS_RefTversky>
0.159 

> <ROCS_RefColorTversky>
0.155 

> <ROCS_RefTverskyCombo>
0.314 

> <ROCS_FitTversky>
1.395 

> <ROCS_FitColorTversky>
0.626 

> <ROCS_FitTverskyCombo>
2.021 

> <ROCS_ColorScore>
-4.516

> <ROCS_Overlap>
1272.547

> <ROCS_Rank>
304                 

$$$$
untitled-dbase-900_262
  -OEChem-02092407103D

 24 24  0     0  0  0  0  0  0999 V2000
    9.8616   11.0931   24.7714 C   0  0  0  0  0  0  0  0  0  0  0  0
    8.0326   11.1864   22.8288 C   0  0  0  0  0  0  0  0  0  0  0  0
    8.8578   10.1529   24.6945 C   0  0  0  0  0  0  0  0  0  0  0  0
    9.0359   12.1271   22.9061 C   0  0  0  0  0  0  0  0  0  0  0  0
    8.7701    9.0569   25.6982 C   0  0  0  0  0  0  0  0  0  0  0  0
    5.7303   15.1358   23.0185 C   0  0  0  0  0  0  0  0  0  0  0  0
    9.1245   13.2321   21.8936 C   0  0  0  0  0  0  0  0  0  0  0  0
    7.9255   10.1824   23.7217 N   0  0  0  0  0  0  0  0  0  0  0  0
    9.9684   12.0973   23.8787 N   0  0  0  0  0  0  0  0  0  0  0  0
    7.9092   14.0659   21.8793 N   0  0  0  0  0  0  0  0  0  0  0  0
    8.0881   16.2457   23.2617 O   0  0  0  0  0  0  0  0  0  0  0  0
    7.6398   14.0581   24.4320 O   0  0  0  0  0  0  0  0  0  0  0  0
    7.4764   14.9315   23.2858 S   0  0  0  0  0  0  0  0  0  0  0  0
   10.6151   11.0758   25.5500 H   0  0  0  0  0  0  0  0  0  0  0  0
    7.2795   11.2033   22.0498 H   0  0  0  0  0  0  0  0  0  0  0  0
    8.1492    9.3641   26.5498 H   0  0  0  0  0  0  0  0  0  0  0  0
    8.3337    8.1477   25.2622 H   0  0  0  0  0  0  0  0  0  0  0  0
    9.7636    8.7795   26.0768 H   0  0  0  0  0  0  0  0  0  0  0  0
    5.3148   15.6871   23.8634 H   0  0  0  0  0  0  0  0  0  0  0  0
    5.5867   15.6921   22.0910 H   0  0  0  0  0  0  0  0  0  0  0  0
    5.2751   14.1469   22.9460 H   0  0  0  0  0  0  0  0  0  0  0  0
    9.9784   13.8842   22.1075 H   0  0  0  0  0  0  0  0  0  0  0  0
    9.2667   12.8304   20.8848 H   0  0  0  0  0  0  0  0  0  0  0  0
    7.7286   14.5249   20.9770 H   0  0  0  0  0  0  0  0  0  0  0  0
  1  3  1  0  0  0  0
  1  9  2  0  0  0  0
  2  4  2  0  0  0  0
  2  8  1  0  0  0  0
  3  5  1  0  0  0  0
  3  8  2  0  0  0  0
  4  7  1  0  0  0  0
  4  9  1  0  0  0  0
  6 13  1  0  0  0  0
  7 10  1  0  0  0  0
 10 13  1  0  0  0  0
 11 13  2  0  0  0  0
 12 13  2  0  0  0  0
  1 14  1  0  0  0  0
  2 15  1  0  0  0  0
  5 16  1  0  0  0  0
  5 17  1  0  0  0  0
  5 18  1  0  0  0  0
  6 19  1  0  0  0  0
  6 20  1  0  0  0  0
  6 21  1  0  0  0  0
  7 22  1  0  0  0  0
  7 23  1  0  0  0  0
 10 24  1  0  0  0  0
M  END
> <Mol Weight>
201,24

> <Formula>
C7H11N3O2S

> <ID>
EN300-748970

> <name>
Sulfonamides

> <LogP>
-1,81

> <ROCS_ShapeQuery>
x0310_0A_x0719_0A_x1080_0A_x0739_0A_x0929_0A_x0526_0A_x0911_0A

> <ROCS_TanimotoCombo>
0.309 

> <ROCS_ShapeTanimoto>
0.158 

> <ROCS_ColorTanimoto>
0.150 

> <ROCS_RefTversky>
0.153 

> <ROCS_RefColorTversky>
0.163 

> <ROCS_RefTverskyCombo>
0.316 

> <ROCS_FitTversky>
1.308 

> <ROCS_FitColorTversky>
0.657 

> <ROCS_FitTverskyCombo>
1.965 

> <ROCS_ColorScore>
-4.743

> <ROCS_Overlap>
1221.051

> <ROCS_Rank>
305                 

$$$$
untitled-dbase-1112_628
  -OEChem-02092407103D

 25 25  0     0  0  0  0  0  0999 V2000
    8.3310   12.4029   24.0521 C   0  0  0  0  0  0  0  0  0  0  0  0
    8.5960   10.6232   22.5932 C   0  0  0  0  0  0  0  0  0  0  0  0
    9.4525   10.4278   23.8195 C   0  0  0  0  0  0  0  0  0  0  0  0
    2.9229   12.9410   19.6478 C   0  0  0  0  0  0  0  0  0  0  0  0
    7.3812   12.6518   21.7305 C   0  0  0  0  0  0  0  0  0  0  0  0
    6.2518   11.7983   21.1787 C   0  0  0  0  0  0  0  0  0  0  0  0
    8.1302   11.9663   22.7610 N   0  0  0  0  0  0  0  0  0  0  0  0
    5.5226   12.4754   20.1407 N   0  0  0  0  0  0  0  0  0  0  0  0
    7.9590   13.4549   24.5535 O   0  0  0  0  0  0  0  0  0  0  0  0
    3.8117   10.5292   20.1413 O   0  0  0  0  0  0  0  0  0  0  0  0
    4.4076   11.6279   17.9517 O   0  0  0  0  0  0  0  0  0  0  0  0
    9.0283   11.4425   24.7445 O   0  0  0  0  0  0  0  0  0  0  0  0
    4.1768   11.7086   19.3813 S   0  0  0  0  0  0  0  0  0  0  0  0
    9.1560   10.5041   21.6617 H   0  0  0  0  0  0  0  0  0  0  0  0
    7.7301    9.9533   22.5934 H   0  0  0  0  0  0  0  0  0  0  0  0
    9.3070    9.4426   24.2714 H   0  0  0  0  0  0  0  0  0  0  0  0
   10.5169   10.5772   23.6113 H   0  0  0  0  0  0  0  0  0  0  0  0
    1.9901   12.5838   19.2086 H   0  0  0  0  0  0  0  0  0  0  0  0
    2.8078   13.0882   20.7227 H   0  0  0  0  0  0  0  0  0  0  0  0
    3.2423   13.8667   19.1668 H   0  0  0  0  0  0  0  0  0  0  0  0
    7.0029   13.5824   22.1654 H   0  0  0  0  0  0  0  0  0  0  0  0
    8.0876   12.9020   20.9328 H   0  0  0  0  0  0  0  0  0  0  0  0
    6.6510   10.8775   20.7426 H   0  0  0  0  0  0  0  0  0  0  0  0
    5.5358   11.5294   21.9620 H   0  0  0  0  0  0  0  0  0  0  0  0
    6.0908   13.0802   19.5081 H   0  0  0  0  0  0  0  0  0  0  0  0
  1  7  1  0  0  0  0
  1  9  2  0  0  0  0
  1 12  1  0  0  0  0
  2  3  1  0  0  0  0
  2  7  1  0  0  0  0
  3 12  1  0  0  0  0
  4 13  1  0  0  0  0
  5  6  1  0  0  0  0
  5  7  1  0  0  0  0
  6  8  1  0  0  0  0
  8 13  1  0  0  0  0
 10 13  2  0  0  0  0
 11 13  2  0  0  0  0
  2 14  1  0  0  0  0
  2 15  1  0  0  0  0
  3 16  1  0  0  0  0
  3 17  1  0  0  0  0
  4 18  1  0  0  0  0
  4 19  1  0  0  0  0
  4 20  1  0  0  0  0
  5 21  1  0  0  0  0
  5 22  1  0  0  0  0
  6 23  1  0  0  0  0
  6 24  1  0  0  0  0
  8 25  1  0  0  0  0
M  END
> <Mol Weight>
208,23

> <Formula>
C6H12N2O4S

> <ID>
EN300-7433955

> <name>
Sulfonamides

> <LogP>
-1,62

> <ROCS_ShapeQuery>
x0310_0A_x0719_0A_x1080_0A_x0739_0A_x0929_0A_x0526_0A_x0911_0A

> <ROCS_TanimotoCombo>
0.309 

> <ROCS_ShapeTanimoto>
0.171 

> <ROCS_ColorTanimoto>
0.137 

> <ROCS_RefTversky>
0.163 

> <ROCS_RefColorTversky>
0.147 

> <ROCS_RefTverskyCombo>
0.310 

> <ROCS_FitTversky>
1.404 

> <ROCS_FitColorTversky>
0.680 

> <ROCS_FitTverskyCombo>
2.084 

> <ROCS_ColorScore>
-4.261

> <ROCS_Overlap>
1306.144

> <ROCS_Rank>
306                 

$$$$
untitled-dbase-707_16
  -OEChem-02092407103D

 27 27  0     1  0  0  0  0  0999 V2000
    8.1246   11.9294   24.5413 C   0  0  0  0  0  0  0  0  0  0  0  0
    9.4351   11.1804   24.5913 C   0  0  0  0  0  0  0  0  0  0  0  0
    8.0218   12.3296   23.0785 C   0  0  1  0  0  0  0  0  0  0  0  0
    9.4811   10.4929   23.2285 C   0  0  0  0  0  0  0  0  0  0  0  0
   10.9093   10.3446   22.7126 C   0  0  0  0  0  0  0  0  0  0  0  0
    8.7832    9.1302   23.2491 C   0  0  0  0  0  0  0  0  0  0  0  0
    8.6296   13.6965   22.7940 C   0  0  0  0  0  0  0  0  0  0  0  0
    6.5034   14.9791   21.8531 N   0  0  0  0  0  0  0  0  0  0  0  0
    6.7489   14.5739   24.3814 O   0  0  0  0  0  0  0  0  0  0  0  0
    8.2621   16.2448   23.2396 O   0  0  0  0  0  0  0  0  0  0  0  0
    8.7523   11.3464   22.3246 O   0  0  0  0  0  0  0  0  0  0  0  0
    7.5192   14.9955   23.2230 S   0  0  0  0  0  0  0  0  0  0  0  0
    7.2692   11.3254   24.8739 H   0  0  0  0  0  0  0  0  0  0  0  0
    8.1743   12.8155   25.1926 H   0  0  0  0  0  0  0  0  0  0  0  0
   10.2942   11.8310   24.7848 H   0  0  0  0  0  0  0  0  0  0  0  0
    9.3914   10.4406   25.4014 H   0  0  0  0  0  0  0  0  0  0  0  0
    6.9900   12.3078   22.7395 H   0  0  0  0  0  0  0  0  0  0  0  0
   10.8988    9.8520   21.7429 H   0  0  0  0  0  0  0  0  0  0  0  0
   11.4908    9.7482   23.4121 H   0  0  0  0  0  0  0  0  0  0  0  0
   11.3658   11.3267   22.6118 H   0  0  0  0  0  0  0  0  0  0  0  0
    8.8365    8.6718   22.2624 H   0  0  0  0  0  0  0  0  0  0  0  0
    7.7375    9.2537   23.5277 H   0  0  0  0  0  0  0  0  0  0  0  0
    9.2691    8.4760   23.9719 H   0  0  0  0  0  0  0  0  0  0  0  0
    8.8609   13.8042   21.7321 H   0  0  0  0  0  0  0  0  0  0  0  0
    9.5421   13.8434   23.3755 H   0  0  0  0  0  0  0  0  0  0  0  0
    6.8920   15.3223   20.9661 H   0  0  0  0  0  0  0  0  0  0  0  0
    5.8615   14.1845   21.7440 H   0  0  0  0  0  0  0  0  0  0  0  0
  1  2  1  0  0  0  0
  1  3  1  0  0  0  0
  2  4  1  0  0  0  0
  3  7  1  0  0  0  0
  3 11  1  0  0  0  0
  4  5  1  0  0  0  0
  4  6  1  0  0  0  0
  4 11  1  0  0  0  0
  7 12  1  0  0  0  0
  8 12  1  0  0  0  0
  9 12  2  0  0  0  0
 10 12  2  0  0  0  0
  1 13  1  0  0  0  0
  1 14  1  0  0  0  0
  2 15  1  0  0  0  0
  2 16  1  0  0  0  0
  3 17  1  0  0  0  0
  5 18  1  0  0  0  0
  5 19  1  0  0  0  0
  5 20  1  0  0  0  0
  6 21  1  0  0  0  0
  6 22  1  0  0  0  0
  6 23  1  0  0  0  0
  7 24  1  0  0  0  0
  7 25  1  0  0  0  0
  8 26  1  0  0  0  0
  8 27  1  0  0  0  0
M  END
> <Mol Weight>
193,26

> <Formula>
C7H15NO3S

> <ID>
EN300-139058

> <name>
Sulfonamides

> <LogP>
-0,27

> <ROCS_ShapeQuery>
x0310_0A_x0719_0A_x1080_0A_x0739_0A_x0929_0A_x0526_0A_x0911_0A

> <ROCS_TanimotoCombo>
0.308 

> <ROCS_ShapeTanimoto>
0.160 

> <ROCS_ColorTanimoto>
0.149 

> <ROCS_RefTversky>
0.153 

> <ROCS_RefColorTversky>
0.162 

> <ROCS_RefTverskyCombo>
0.315 

> <ROCS_FitTversky>
1.391 

> <ROCS_FitColorTversky>
0.651 

> <ROCS_FitTverskyCombo>
2.042 

> <ROCS_ColorScore>
-4.698

> <ROCS_Overlap>
1223.391

> <ROCS_Rank>
307                 

$$$$
untitled-dbase-1946_112
  -OEChem-02092407103D

 23 23  0     0  0  0  0  0  0999 V2000
    8.3739   10.2913   24.4067 C   0  0  0  0  0  0  0  0  0  0  0  0
    7.4619   11.0969   23.7249 C   0  0  0  0  0  0  0  0  0  0  0  0
   10.2015   11.5333   23.4298 C   0  0  0  0  0  0  0  0  0  0  0  0
    9.7437   10.5095   24.2592 C   0  0  0  0  0  0  0  0  0  0  0  0
    7.9197   12.1207   22.8956 C   0  0  0  0  0  0  0  0  0  0  0  0
    9.2895   12.3390   22.7480 C   0  0  0  0  0  0  0  0  0  0  0  0
    6.9422   12.9799   22.1669 C   0  0  0  0  0  0  0  0  0  0  0  0
   10.7188    9.6480   24.9878 C   0  0  0  0  0  0  0  0  0  0  0  0
    5.9809   15.4232   21.7706 N   0  0  0  0  0  0  0  0  0  0  0  0
    6.7873   14.7200   24.1098 O   0  0  0  0  0  0  0  0  0  0  0  0
    8.4817   15.0886   22.2718 O   0  0  0  0  0  0  0  0  0  0  0  0
    9.7387   13.3198   21.9524 F   0  0  0  0  0  0  0  0  0  0  0  0
   11.5109   10.3949   25.8011 F   0  0  0  0  0  0  0  0  0  0  0  0
   11.5488    9.0151   24.1175 F   0  0  0  0  0  0  0  0  0  0  0  0
    7.1703   14.6422   22.7103 S   0  0  0  0  0  0  0  0  0  0  0  0
    8.0079    9.4966   25.0513 H   0  0  0  0  0  0  0  0  0  0  0  0
    6.3965   10.9204   23.8467 H   0  0  0  0  0  0  0  0  0  0  0  0
   11.2667   11.7104   23.3077 H   0  0  0  0  0  0  0  0  0  0  0  0
    5.9040   12.6968   22.3743 H   0  0  0  0  0  0  0  0  0  0  0  0
    7.0955   12.9560   21.0819 H   0  0  0  0  0  0  0  0  0  0  0  0
   10.2306    8.8873   25.6001 H   0  0  0  0  0  0  0  0  0  0  0  0
    6.1500   15.5096   20.7609 H   0  0  0  0  0  0  0  0  0  0  0  0
    4.9962   15.2586   22.0129 H   0  0  0  0  0  0  0  0  0  0  0  0
  1  2  2  0  0  0  0
  1  4  1  0  0  0  0
  2  5  1  0  0  0  0
  3  4  2  0  0  0  0
  3  6  1  0  0  0  0
  4  8  1  0  0  0  0
  5  6  2  0  0  0  0
  5  7  1  0  0  0  0
  6 12  1  0  0  0  0
  7 15  1  0  0  0  0
  8 13  1  0  0  0  0
  8 14  1  0  0  0  0
  9 15  1  0  0  0  0
 10 15  2  0  0  0  0
 11 15  2  0  0  0  0
  1 16  1  0  0  0  0
  2 17  1  0  0  0  0
  3 18  1  0  0  0  0
  7 19  1  0  0  0  0
  7 20  1  0  0  0  0
  8 21  1  0  0  0  0
  9 22  1  0  0  0  0
  9 23  1  0  0  0  0
M  END
> <Mol Weight>
239,21

> <Formula>
C8H8F3NO2S

> <ID>
EN300-37109158

> <name>
Sulfonamides

> <LogP>
0,87

> <ROCS_ShapeQuery>
x0310_0A_x0719_0A_x1080_0A_x0739_0A_x0929_0A_x0526_0A_x0911_0A

> <ROCS_TanimotoCombo>
0.308 

> <ROCS_ShapeTanimoto>
0.154 

> <ROCS_ColorTanimoto>
0.154 

> <ROCS_RefTversky>
0.151 

> <ROCS_RefColorTversky>
0.158 

> <ROCS_RefTverskyCombo>
0.309 

> <ROCS_FitTversky>
1.178 

> <ROCS_FitColorTversky>
0.861 

> <ROCS_FitTverskyCombo>
2.040 

> <ROCS_ColorScore>
-4.578

> <ROCS_Overlap>
1207.699

> <ROCS_Rank>
308                 

$$$$
untitled-dbase-1065_5
  -OEChem-02092407103D

 19 19  0     0  0  0  0  0  0999 V2000
    8.2934   10.2109   24.0476 C   0  0  0  0  0  0  0  0  0  0  0  0
    7.4874   11.0972   23.3419 C   0  0  0  0  0  0  0  0  0  0  0  0
   10.0834   11.7648   23.8529 C   0  0  0  0  0  0  0  0  0  0  0  0
    9.6173   10.5434   24.3122 C   0  0  0  0  0  0  0  0  0  0  0  0
    8.0488   12.2939   22.9262 C   0  0  0  0  0  0  0  0  0  0  0  0
    7.2127   13.2690   22.1666 C   0  0  0  0  0  0  0  0  0  0  0  0
    9.3306   12.6517   23.1643 N   0  0  0  0  0  0  0  0  0  0  0  0
    5.7403   15.4649   22.4139 N   0  0  0  0  0  0  0  0  0  0  0  0
    6.8387   14.4103   24.4871 O   0  0  0  0  0  0  0  0  0  0  0  0
    8.2852   15.5735   22.7724 O   0  0  0  0  0  0  0  0  0  0  0  0
    7.1292   14.7587   23.1065 S   0  0  0  0  0  0  0  0  0  0  0  0
   10.6404    9.4759   25.1806 Cl  0  0  0  0  0  0  0  0  0  0  0  0
    7.8775    9.2654   24.3855 H   0  0  0  0  0  0  0  0  0  0  0  0
    6.4530   10.8499   23.1289 H   0  0  0  0  0  0  0  0  0  0  0  0
   11.1070   12.0827   24.0272 H   0  0  0  0  0  0  0  0  0  0  0  0
    6.1895   12.9082   22.0141 H   0  0  0  0  0  0  0  0  0  0  0  0
    7.6427   13.5109   21.1883 H   0  0  0  0  0  0  0  0  0  0  0  0
    5.8157   15.8277   21.4556 H   0  0  0  0  0  0  0  0  0  0  0  0
    4.8307   15.0356   22.6236 H   0  0  0  0  0  0  0  0  0  0  0  0
  1  2  2  0  0  0  0
  1  4  1  0  0  0  0
  2  5  1  0  0  0  0
  3  4  2  0  0  0  0
  3  7  1  0  0  0  0
  4 12  1  0  0  0  0
  5  6  1  0  0  0  0
  5  7  2  0  0  0  0
  6 11  1  0  0  0  0
  8 11  1  0  0  0  0
  9 11  2  0  0  0  0
 10 11  2  0  0  0  0
  1 13  1  0  0  0  0
  2 14  1  0  0  0  0
  3 15  1  0  0  0  0
  6 16  1  0  0  0  0
  6 17  1  0  0  0  0
  8 18  1  0  0  0  0
  8 19  1  0  0  0  0
M  END
> <Mol Weight>
206,64

> <Formula>
C6H7ClN2O2S

> <ID>
EN300-283821

> <name>
Sulfonamides

> <LogP>
0,11

> <ROCS_ShapeQuery>
x0310_0A_x0719_0A_x1080_0A_x0739_0A_x0929_0A_x0526_0A_x0911_0A

> <ROCS_TanimotoCombo>
0.308 

> <ROCS_ShapeTanimoto>
0.150 

> <ROCS_ColorTanimoto>
0.158 

> <ROCS_RefTversky>
0.145 

> <ROCS_RefColorTversky>
0.166 

> <ROCS_RefTverskyCombo>
0.311 

> <ROCS_FitTversky>
1.311 

> <ROCS_FitColorTversky>
0.767 

> <ROCS_FitTverskyCombo>
2.078 

> <ROCS_ColorScore>
-4.807

> <ROCS_Overlap>
1162.735

> <ROCS_Rank>
309                 

$$$$
untitled-dbase-2055_0
  -OEChem-02092407103D

 22 23  0     0  0  0  0  0  0999 V2000
    6.9500   11.6949   20.5802 C   0  0  0  0  0  0  0  0  0  0  0  0
    7.7112   10.7642   21.2814 C   0  0  0  0  0  0  0  0  0  0  0  0
    6.7660   12.9671   21.1073 C   0  0  0  0  0  0  0  0  0  0  0  0
    9.6223   10.5547   24.4570 C   0  0  0  0  0  0  0  0  0  0  0  0
    9.3882   11.8388   24.9054 C   0  0  0  0  0  0  0  0  0  0  0  0
    8.2917   11.1049   22.5149 C   0  0  0  0  0  0  0  0  0  0  0  0
    8.1089   12.3947   23.0562 C   0  0  0  0  0  0  0  0  0  0  0  0
    7.3432   13.3056   22.3336 C   0  0  0  0  0  0  0  0  0  0  0  0
    9.0626   10.1876   23.2417 C   0  0  0  0  0  0  0  0  0  0  0  0
    8.6509   12.7538   24.2353 N   0  0  0  0  0  0  0  0  0  0  0  0
    6.1061   15.5795   21.6981 N   0  0  0  0  0  0  0  0  0  0  0  0
    6.2798   14.8273   24.1577 O   0  0  0  0  0  0  0  0  0  0  0  0
    8.3500   15.6240   22.9630 O   0  0  0  0  0  0  0  0  0  0  0  0
    7.0737   14.9290   22.9447 S   0  0  0  0  0  0  0  0  0  0  0  0
    9.3721    8.5686   22.7046 Cl  0  0  0  0  0  0  0  0  0  0  0  0
    6.5035   11.4284   19.6271 H   0  0  0  0  0  0  0  0  0  0  0  0
    7.8333    9.7811   20.8353 H   0  0  0  0  0  0  0  0  0  0  0  0
    6.1717   13.6908   20.5559 H   0  0  0  0  0  0  0  0  0  0  0  0
   10.2236    9.8719   25.0475 H   0  0  0  0  0  0  0  0  0  0  0  0
    9.8000   12.1820   25.8488 H   0  0  0  0  0  0  0  0  0  0  0  0
    5.1116   15.7428   21.8976 H   0  0  0  0  0  0  0  0  0  0  0  0
    6.5272   16.2850   21.0816 H   0  0  0  0  0  0  0  0  0  0  0  0
  1  2  1  0  0  0  0
  1  3  2  0  0  0  0
  2  6  2  0  0  0  0
  3  8  1  0  0  0  0
  4  5  1  0  0  0  0
  4  9  2  0  0  0  0
  5 10  2  0  0  0  0
  6  7  1  0  0  0  0
  6  9  1  0  0  0  0
  7  8  2  0  0  0  0
  7 10  1  0  0  0  0
  8 14  1  0  0  0  0
  9 15  1  0  0  0  0
 11 14  1  0  0  0  0
 12 14  2  0  0  0  0
 13 14  2  0  0  0  0
  1 16  1  0  0  0  0
  2 17  1  0  0  0  0
  3 18  1  0  0  0  0
  4 19  1  0  0  0  0
  5 20  1  0  0  0  0
 11 21  1  0  0  0  0
 11 22  1  0  0  0  0
M  END
> <Mol Weight>
242,68

> <Formula>
C9H7ClN2O2S

> <ID>
EN300-371993

> <name>
Sulfonamides

> <LogP>
1,34

> <ROCS_ShapeQuery>
x0310_0A_x0719_0A_x1080_0A_x0739_0A_x0929_0A_x0526_0A_x0911_0A

> <ROCS_TanimotoCombo>
0.308 

> <ROCS_ShapeTanimoto>
0.159 

> <ROCS_ColorTanimoto>
0.149 

> <ROCS_RefTversky>
0.155 

> <ROCS_RefColorTversky>
0.162 

> <ROCS_RefTverskyCombo>
0.317 

> <ROCS_FitTversky>
1.190 

> <ROCS_FitColorTversky>
0.653 

> <ROCS_FitTverskyCombo>
1.843 

> <ROCS_ColorScore>
-4.715

> <ROCS_Overlap>
1241.215

> <ROCS_Rank>
310                 

$$$$
untitled-dbase-950_22
  -OEChem-02092407103D

 23 23  0     0  0  0  0  0  0999 V2000
   10.2334   11.3129   23.9448 C   0  0  0  0  0  0  0  0  0  0  0  0
    9.6746   10.0605   24.1422 C   0  0  0  0  0  0  0  0  0  0  0  0
    7.5627   10.8290   23.6652 C   0  0  0  0  0  0  0  0  0  0  0  0
    9.3848   12.3556   23.5901 C   0  0  0  0  0  0  0  0  0  0  0  0
    8.0225   12.1174   23.4456 C   0  0  0  0  0  0  0  0  0  0  0  0
    9.5839   15.0119   25.2947 C   0  0  0  0  0  0  0  0  0  0  0  0
   10.5801   14.2037   24.4910 C   0  0  0  0  0  0  0  0  0  0  0  0
    8.3564    9.7907   24.0111 N   0  0  0  0  0  0  0  0  0  0  0  0
    5.4302   12.5259   22.9791 N   0  0  0  0  0  0  0  0  0  0  0  0
    6.8662   14.3601   24.0832 O   0  0  0  0  0  0  0  0  0  0  0  0
    7.2156   13.8201   21.6472 O   0  0  0  0  0  0  0  0  0  0  0  0
    9.9060   13.5977   23.3896 O   0  0  0  0  0  0  0  0  0  0  0  0
    6.9084   13.3834   23.0029 S   0  0  0  0  0  0  0  0  0  0  0  0
   11.2999   11.4688   24.0647 H   0  0  0  0  0  0  0  0  0  0  0  0
   10.2936    9.2138   24.4202 H   0  0  0  0  0  0  0  0  0  0  0  0
    6.5103   10.5809   23.5677 H   0  0  0  0  0  0  0  0  0  0  0  0
    9.1369   15.8003   24.6827 H   0  0  0  0  0  0  0  0  0  0  0  0
    8.7863   14.3685   25.6802 H   0  0  0  0  0  0  0  0  0  0  0  0
   10.0698   15.4709   26.1621 H   0  0  0  0  0  0  0  0  0  0  0  0
   11.0235   13.4171   25.1088 H   0  0  0  0  0  0  0  0  0  0  0  0
   11.3759   14.8482   24.1059 H   0  0  0  0  0  0  0  0  0  0  0  0
    4.7546   12.7083   23.7313 H   0  0  0  0  0  0  0  0  0  0  0  0
    4.9957   12.3386   22.0673 H   0  0  0  0  0  0  0  0  0  0  0  0
  1  2  2  0  0  0  0
  1  4  1  0  0  0  0
  2  8  1  0  0  0  0
  3  5  1  0  0  0  0
  3  8  2  0  0  0  0
  4  5  2  0  0  0  0
  4 12  1  0  0  0  0
  5 13  1  0  0  0  0
  6  7  1  0  0  0  0
  7 12  1  0  0  0  0
  9 13  1  0  0  0  0
 10 13  2  0  0  0  0
 11 13  2  0  0  0  0
  1 14  1  0  0  0  0
  2 15  1  0  0  0  0
  3 16  1  0  0  0  0
  6 17  1  0  0  0  0
  6 18  1  0  0  0  0
  6 19  1  0  0  0  0
  7 20  1  0  0  0  0
  7 21  1  0  0  0  0
  9 22  1  0  0  0  0
  9 23  1  0  0  0  0
M  END
> <Mol Weight>
202,23

> <Formula>
C7H10N2O3S

> <ID>
EN300-211042

> <name>
Sulfonamides

> <LogP>
-0,44

> <ROCS_ShapeQuery>
x0310_0A_x0719_0A_x1080_0A_x0739_0A_x0929_0A_x0526_0A_x0911_0A

> <ROCS_TanimotoCombo>
0.308 

> <ROCS_ShapeTanimoto>
0.146 

> <ROCS_ColorTanimoto>
0.162 

> <ROCS_RefTversky>
0.143 

> <ROCS_RefColorTversky>
0.174 

> <ROCS_RefTverskyCombo>
0.317 

> <ROCS_FitTversky>
1.217 

> <ROCS_FitColorTversky>
0.700 

> <ROCS_FitTverskyCombo>
1.917 

> <ROCS_ColorScore>
-5.053

> <ROCS_Overlap>
1141.982

> <ROCS_Rank>
311                 

$$$$
untitled-dbase-2584_60
  -OEChem-02092407103D

 28 29  0     0  0  0  0  0  0999 V2000
    2.9979   14.1144   20.1021 C   0  0  0  0  0  0  0  0  0  0  0  0
    4.0430   14.3992   20.9869 C   0  0  0  0  0  0  0  0  0  0  0  0
    4.9567   12.1701   20.6973 C   0  0  0  0  0  0  0  0  0  0  0  0
    3.9173   11.8960   19.8212 C   0  0  0  0  0  0  0  0  0  0  0  0
    2.9463   12.8544   19.5241 C   0  0  0  0  0  0  0  0  0  0  0  0
    5.0156   13.4343   21.2829 C   0  0  0  0  0  0  0  0  0  0  0  0
    0.9075   12.9951   18.0974 C   0  0  0  0  0  0  0  0  0  0  0  0
    3.6713   10.6161   19.0918 C   0  0  0  0  0  0  0  0  0  0  0  0
    2.3985   10.9343   18.2998 C   0  0  0  0  0  0  0  0  0  0  0  0
    0.4936   12.5615   16.7109 C   0  0  0  0  0  0  0  0  0  0  0  0
    2.0087   12.3252   18.6129 N   0  0  0  0  0  0  0  0  0  0  0  0
    5.9205   15.4320   22.7980 N   0  0  0  0  0  0  0  0  0  0  0  0
    0.2703   13.8815   18.6667 O   0  0  0  0  0  0  0  0  0  0  0  0
    6.1614   12.9862   23.5763 O   0  0  0  0  0  0  0  0  0  0  0  0
    7.5658   13.8125   21.6547 O   0  0  0  0  0  0  0  0  0  0  0  0
    6.3097   13.8189   22.3912 S   0  0  0  0  0  0  0  0  0  0  0  0
    1.3498   13.6055   15.5830 Cl  0  0  0  0  0  0  0  0  0  0  0  0
    2.2638   14.8836   19.8966 H   0  0  0  0  0  0  0  0  0  0  0  0
    4.0924   15.3839   21.4457 H   0  0  0  0  0  0  0  0  0  0  0  0
    5.7042   11.4147   20.9185 H   0  0  0  0  0  0  0  0  0  0  0  0
    4.5051   10.3813   18.4232 H   0  0  0  0  0  0  0  0  0  0  0  0
    3.5058    9.7926   19.7927 H   0  0  0  0  0  0  0  0  0  0  0  0
    2.5662   10.8441   17.2208 H   0  0  0  0  0  0  0  0  0  0  0  0
    1.5780   10.2620   18.5743 H   0  0  0  0  0  0  0  0  0  0  0  0
   -0.5760   12.6975   16.6077 H   0  0  0  0  0  0  0  0  0  0  0  0
    0.7906   11.5302   16.5649 H   0  0  0  0  0  0  0  0  0  0  0  0
    6.0609   16.1564   22.0832 H   0  0  0  0  0  0  0  0  0  0  0  0
    5.1023   15.5937   23.3978 H   0  0  0  0  0  0  0  0  0  0  0  0
  1  2  2  0  0  0  0
  1  5  1  0  0  0  0
  2  6  1  0  0  0  0
  3  4  1  0  0  0  0
  3  6  2  0  0  0  0
  4  5  2  0  0  0  0
  4  8  1  0  0  0  0
  5 11  1  0  0  0  0
  6 16  1  0  0  0  0
  7 10  1  0  0  0  0
  7 11  1  0  0  0  0
  7 13  2  0  0  0  0
  8  9  1  0  0  0  0
  9 11  1  0  0  0  0
 10 17  1  0  0  0  0
 12 16  1  0  0  0  0
 14 16  2  0  0  0  0
 15 16  2  0  0  0  0
  1 18  1  0  0  0  0
  2 19  1  0  0  0  0
  3 20  1  0  0  0  0
  8 21  1  0  0  0  0
  8 22  1  0  0  0  0
  9 23  1  0  0  0  0
  9 24  1  0  0  0  0
 10 25  1  0  0  0  0
 10 26  1  0  0  0  0
 12 27  1  0  0  0  0
 12 28  1  0  0  0  0
M  END
> <Mol Weight>
274,72

> <Formula>
C10H11ClN2O3S

> <ID>
EN300-23822

> <name>
Sulfonamides

> <LogP>
0,26

> <ROCS_ShapeQuery>
x0310_0A_x0719_0A_x1080_0A_x0739_0A_x0929_0A_x0526_0A_x0911_0A

> <ROCS_TanimotoCombo>
0.308 

> <ROCS_ShapeTanimoto>
0.186 

> <ROCS_ColorTanimoto>
0.122 

> <ROCS_RefTversky>
0.178 

> <ROCS_RefColorTversky>
0.136 

> <ROCS_RefTverskyCombo>
0.315 

> <ROCS_FitTversky>
1.282 

> <ROCS_FitColorTversky>
0.548 

> <ROCS_FitTverskyCombo>
1.830 

> <ROCS_ColorScore>
-3.961

> <ROCS_Overlap>
1429.524

> <ROCS_Rank>
312                 

$$$$
untitled-dbase-1271_15
  -OEChem-02092407103D

 28 28  0     0  0  0  0  0  0999 V2000
   10.1596   11.6094   23.7244 C   0  0  0  0  0  0  0  0  0  0  0  0
    8.2639   10.1824   24.1792 C   0  0  0  0  0  0  0  0  0  0  0  0
    9.3336   12.4804   23.0141 C   0  0  0  0  0  0  0  0  0  0  0  0
    7.4378   11.0535   23.4689 C   0  0  0  0  0  0  0  0  0  0  0  0
    9.6248   10.4603   24.3069 C   0  0  0  0  0  0  0  0  0  0  0  0
    7.9727   12.2025   22.8864 C   0  0  0  0  0  0  0  0  0  0  0  0
    5.4924   15.4916   20.8838 C   0  0  0  0  0  0  0  0  0  0  0  0
   10.5072    9.5285   25.0665 C   0  0  0  0  0  0  0  0  0  0  0  0
    7.0862   13.1391   22.1250 C   0  0  0  0  0  0  0  0  0  0  0  0
   10.5118    8.2003   24.5076 N   0  0  0  0  0  0  0  0  0  0  0  0
    5.7043   15.4268   22.3410 N   0  0  0  0  0  0  0  0  0  0  0  0
    7.0054   14.4839   24.3690 O   0  0  0  0  0  0  0  0  0  0  0  0
    8.2702   15.4459   22.4117 O   0  0  0  0  0  0  0  0  0  0  0  0
    7.1351   14.7168   22.9439 S   0  0  0  0  0  0  0  0  0  0  0  0
   11.2190   11.8335   23.8183 H   0  0  0  0  0  0  0  0  0  0  0  0
    7.8386    9.2899   24.6309 H   0  0  0  0  0  0  0  0  0  0  0  0
    9.7586   13.3740   22.5649 H   0  0  0  0  0  0  0  0  0  0  0  0
    6.3786   10.8293   23.3741 H   0  0  0  0  0  0  0  0  0  0  0  0
    6.4554   15.6615   20.3800 H   0  0  0  0  0  0  0  0  0  0  0  0
    5.0579   14.5435   20.5341 H   0  0  0  0  0  0  0  0  0  0  0  0
    4.8054   16.3182   20.6498 H   0  0  0  0  0  0  0  0  0  0  0  0
   11.5465    9.8861   25.0756 H   0  0  0  0  0  0  0  0  0  0  0  0
   10.1929    9.4410   26.1157 H   0  0  0  0  0  0  0  0  0  0  0  0
    6.0477   12.7967   22.1067 H   0  0  0  0  0  0  0  0  0  0  0  0
    7.4264   13.2792   21.0951 H   0  0  0  0  0  0  0  0  0  0  0  0
   10.8795    8.2340   23.5796 H   0  0  0  0  0  0  0  0  0  0  0  0
   11.0816    7.6066   25.0736 H   0  0  0  0  0  0  0  0  0  0  0  0
    4.8437   15.2691   22.8812 H   0  0  0  0  0  0  0  0  0  0  0  0
  1  3  2  0  0  0  0
  1  5  1  0  0  0  0
  2  4  1  0  0  0  0
  2  5  2  0  0  0  0
  3  6  1  0  0  0  0
  4  6  2  0  0  0  0
  5  8  1  0  0  0  0
  6  9  1  0  0  0  0
  7 11  1  0  0  0  0
  8 10  1  0  0  0  0
  9 14  1  0  0  0  0
 11 14  1  0  0  0  0
 12 14  2  0  0  0  0
 13 14  2  0  0  0  0
  1 15  1  0  0  0  0
  2 16  1  0  0  0  0
  3 17  1  0  0  0  0
  4 18  1  0  0  0  0
  7 19  1  0  0  0  0
  7 20  1  0  0  0  0
  7 21  1  0  0  0  0
  8 22  1  0  0  0  0
  8 23  1  0  0  0  0
  9 24  1  0  0  0  0
  9 25  1  0  0  0  0
 10 26  1  0  0  0  0
 10 27  1  0  0  0  0
 11 28  1  0  0  0  0
M  END
> <Mol Weight>
214,28

> <Formula>
C9H14N2O2S

> <ID>
EN300-24050

> <name>
Sulfonamides

> <LogP>
-0,41

> <ROCS_ShapeQuery>
x0310_0A_x0719_0A_x1080_0A_x0739_0A_x0929_0A_x0526_0A_x0911_0A

> <ROCS_TanimotoCombo>
0.308 

> <ROCS_ShapeTanimoto>
0.154 

> <ROCS_ColorTanimoto>
0.154 

> <ROCS_RefTversky>
0.150 

> <ROCS_RefColorTversky>
0.166 

> <ROCS_RefTverskyCombo>
0.316 

> <ROCS_FitTversky>
1.242 

> <ROCS_FitColorTversky>
0.669 

> <ROCS_FitTverskyCombo>
1.911 

> <ROCS_ColorScore>
-4.831

> <ROCS_Overlap>
1197.455

> <ROCS_Rank>
313                 

$$$$
untitled-dbase-2232_4
  -OEChem-02092407103D

 19 19  0     0  0  0  0  0  0999 V2000
    7.3160   11.0420   23.3518 C   0  0  0  0  0  0  0  0  0  0  0  0
    9.2708   12.4108   23.0522 C   0  0  0  0  0  0  0  0  0  0  0  0
    8.1134   10.1508   24.0515 C   0  0  0  0  0  0  0  0  0  0  0  0
    7.9134   12.1911   22.8459 C   0  0  0  0  0  0  0  0  0  0  0  0
    9.9807   11.4584   23.7655 C   0  0  0  0  0  0  0  0  0  0  0  0
    7.1012   13.1833   22.0853 C   0  0  0  0  0  0  0  0  0  0  0  0
    9.4351   10.3300   24.2721 N   0  0  0  0  0  0  0  0  0  0  0  0
    5.7802   15.4765   22.3022 N   0  0  0  0  0  0  0  0  0  0  0  0
    6.9181   14.4453   24.3658 O   0  0  0  0  0  0  0  0  0  0  0  0
    8.3421   15.4393   22.5302 O   0  0  0  0  0  0  0  0  0  0  0  0
    7.1575   14.7150   22.9583 S   0  0  0  0  0  0  0  0  0  0  0  0
   11.8364   11.7378   24.0595 Br  0  0  0  0  0  0  0  0  0  0  0  0
    6.2598   10.8419   23.2077 H   0  0  0  0  0  0  0  0  0  0  0  0
    9.7495   13.3039   22.6625 H   0  0  0  0  0  0  0  0  0  0  0  0
    7.6958    9.2393   24.4663 H   0  0  0  0  0  0  0  0  0  0  0  0
    6.0504   12.8832   21.9993 H   0  0  0  0  0  0  0  0  0  0  0  0
    7.4929   13.3564   21.0762 H   0  0  0  0  0  0  0  0  0  0  0  0
    5.8279   15.7920   21.3256 H   0  0  0  0  0  0  0  0  0  0  0  0
    4.8582   15.1151   22.5760 H   0  0  0  0  0  0  0  0  0  0  0  0
  1  3  2  0  0  0  0
  1  4  1  0  0  0  0
  2  4  2  0  0  0  0
  2  5  1  0  0  0  0
  3  7  1  0  0  0  0
  4  6  1  0  0  0  0
  5  7  2  0  0  0  0
  5 12  1  0  0  0  0
  6 11  1  0  0  0  0
  8 11  1  0  0  0  0
  9 11  2  0  0  0  0
 10 11  2  0  0  0  0
  1 13  1  0  0  0  0
  2 14  1  0  0  0  0
  3 15  1  0  0  0  0
  6 16  1  0  0  0  0
  6 17  1  0  0  0  0
  8 18  1  0  0  0  0
  8 19  1  0  0  0  0
M  END
> <Mol Weight>
251,10

> <Formula>
C6H7BrN2O2S

> <ID>
EN300-37468884

> <name>
Sulfonamides

> <LogP>
0,10

> <ROCS_ShapeQuery>
x0310_0A_x0719_0A_x1080_0A_x0739_0A_x0929_0A_x0526_0A_x0911_0A

> <ROCS_TanimotoCombo>
0.308 

> <ROCS_ShapeTanimoto>
0.149 

> <ROCS_ColorTanimoto>
0.159 

> <ROCS_RefTversky>
0.144 

> <ROCS_RefColorTversky>
0.171 

> <ROCS_RefTverskyCombo>
0.315 

> <ROCS_FitTversky>
1.303 

> <ROCS_FitColorTversky>
0.689 

> <ROCS_FitTverskyCombo>
1.992 

> <ROCS_ColorScore>
-4.973

> <ROCS_Overlap>
1150.610

> <ROCS_Rank>
314                 

$$$$
untitled-dbase-920_57
  -OEChem-02092407103D

 24 24  0     0  0  0  0  0  0999 V2000
    8.4535   10.2495   24.4198 C   0  0  0  0  0  0  0  0  0  0  0  0
    9.7995   10.4730   24.1300 C   0  0  0  0  0  0  0  0  0  0  0  0
    7.4733   11.0637   23.8524 C   0  0  0  0  0  0  0  0  0  0  0  0
   10.1653   11.5108   23.2728 C   0  0  0  0  0  0  0  0  0  0  0  0
    7.8392   12.1015   22.9952 C   0  0  0  0  0  0  0  0  0  0  0  0
    9.1852   12.3251   22.7054 C   0  0  0  0  0  0  0  0  0  0  0  0
   10.9563   13.4920   21.6296 C   0  0  0  0  0  0  0  0  0  0  0  0
    6.7767   12.9632   22.3973 C   0  0  0  0  0  0  0  0  0  0  0  0
    5.7580   15.4035   22.1564 N   0  0  0  0  0  0  0  0  0  0  0  0
    6.8328   14.6696   24.3752 O   0  0  0  0  0  0  0  0  0  0  0  0
    8.3022   15.0843   22.3617 O   0  0  0  0  0  0  0  0  0  0  0  0
    9.5595   13.3349   21.8708 O   0  0  0  0  0  0  0  0  0  0  0  0
    7.0531   14.6180   22.9397 S   0  0  0  0  0  0  0  0  0  0  0  0
    8.1681    9.4418   25.0878 H   0  0  0  0  0  0  0  0  0  0  0  0
   10.5623    9.8394   24.5727 H   0  0  0  0  0  0  0  0  0  0  0  0
    6.4275   10.8823   24.0857 H   0  0  0  0  0  0  0  0  0  0  0  0
   11.2155   11.6801   23.0509 H   0  0  0  0  0  0  0  0  0  0  0  0
   11.1171   14.3312   20.9485 H   0  0  0  0  0  0  0  0  0  0  0  0
   11.3574   12.5733   21.1941 H   0  0  0  0  0  0  0  0  0  0  0  0
   11.4603   13.6935   22.5779 H   0  0  0  0  0  0  0  0  0  0  0  0
    5.7725   12.6656   22.7180 H   0  0  0  0  0  0  0  0  0  0  0  0
    6.8057   12.9573   21.3022 H   0  0  0  0  0  0  0  0  0  0  0  0
    4.9805   15.7394   22.7381 H   0  0  0  0  0  0  0  0  0  0  0  0
    5.9813   16.0216   21.3667 H   0  0  0  0  0  0  0  0  0  0  0  0
  1  2  1  0  0  0  0
  1  3  2  0  0  0  0
  2  4  2  0  0  0  0
  3  5  1  0  0  0  0
  4  6  1  0  0  0  0
  5  6  2  0  0  0  0
  5  8  1  0  0  0  0
  6 12  1  0  0  0  0
  7 12  1  0  0  0  0
  8 13  1  0  0  0  0
  9 13  1  0  0  0  0
 10 13  2  0  0  0  0
 11 13  2  0  0  0  0
  1 14  1  0  0  0  0
  2 15  1  0  0  0  0
  3 16  1  0  0  0  0
  4 17  1  0  0  0  0
  7 18  1  0  0  0  0
  7 19  1  0  0  0  0
  7 20  1  0  0  0  0
  8 21  1  0  0  0  0
  8 22  1  0  0  0  0
  9 23  1  0  0  0  0
  9 24  1  0  0  0  0
M  END
> <Mol Weight>
201,24

> <Formula>
C8H11NO3S

> <ID>
EN300-135560

> <name>
Sulfonamides

> <LogP>
0,18

> <ROCS_ShapeQuery>
x0310_0A_x0719_0A_x1080_0A_x0739_0A_x0929_0A_x0526_0A_x0911_0A

> <ROCS_TanimotoCombo>
0.308 

> <ROCS_ShapeTanimoto>
0.158 

> <ROCS_ColorTanimoto>
0.149 

> <ROCS_RefTversky>
0.153 

> <ROCS_RefColorTversky>
0.158 

> <ROCS_RefTverskyCombo>
0.311 

> <ROCS_FitTversky>
1.308 

> <ROCS_FitColorTversky>
0.731 

> <ROCS_FitTverskyCombo>
2.038 

> <ROCS_ColorScore>
-4.578

> <ROCS_Overlap>
1222.851

> <ROCS_Rank>
315                 

$$$$
untitled-dbase-2716_0
  -OEChem-02092407103D

 22 23  0     0  0  0  0  0  0999 V2000
    5.7232   11.3653   21.6993 C   0  0  0  0  0  0  0  0  0  0  0  0
    9.0701   12.7001   23.8376 C   0  0  0  0  0  0  0  0  0  0  0  0
    6.5567   10.4615   22.3629 C   0  0  0  0  0  0  0  0  0  0  0  0
    5.9991   12.7262   21.7431 C   0  0  0  0  0  0  0  0  0  0  0  0
    9.8783   11.7772   24.4857 C   0  0  0  0  0  0  0  0  0  0  0  0
    7.9468   12.2707   23.1180 C   0  0  0  0  0  0  0  0  0  0  0  0
    7.6728   10.8875   23.0777 C   0  0  0  0  0  0  0  0  0  0  0  0
    7.1085   13.1799   22.4507 C   0  0  0  0  0  0  0  0  0  0  0  0
    9.5300   10.4453   24.3894 C   0  0  0  0  0  0  0  0  0  0  0  0
    8.4553    9.9896   23.7058 N   0  0  0  0  0  0  0  0  0  0  0  0
    6.0728   15.4476   21.5072 N   0  0  0  0  0  0  0  0  0  0  0  0
    7.2125   15.3914   23.8188 O   0  0  0  0  0  0  0  0  0  0  0  0
    8.6239   15.1767   21.7429 O   0  0  0  0  0  0  0  0  0  0  0  0
    7.3864   14.9144   22.4575 S   0  0  0  0  0  0  0  0  0  0  0  0
   10.6150    9.1547   25.2640 Br  0  0  0  0  0  0  0  0  0  0  0  0
    4.8603   11.0006   21.1496 H   0  0  0  0  0  0  0  0  0  0  0  0
    9.3411   13.7494   23.9131 H   0  0  0  0  0  0  0  0  0  0  0  0
    6.3188    9.4005   22.3132 H   0  0  0  0  0  0  0  0  0  0  0  0
    5.3444   13.4198   21.2227 H   0  0  0  0  0  0  0  0  0  0  0  0
   10.7470   12.1105   25.0432 H   0  0  0  0  0  0  0  0  0  0  0  0
    5.3091   15.9460   21.9802 H   0  0  0  0  0  0  0  0  0  0  0  0
    6.2742   15.7970   20.5625 H   0  0  0  0  0  0  0  0  0  0  0  0
  1  3  1  0  0  0  0
  1  4  2  0  0  0  0
  2  5  2  0  0  0  0
  2  6  1  0  0  0  0
  3  7  2  0  0  0  0
  4  8  1  0  0  0  0
  5  9  1  0  0  0  0
  6  7  1  0  0  0  0
  6  8  2  0  0  0  0
  7 10  1  0  0  0  0
  8 14  1  0  0  0  0
  9 10  2  0  0  0  0
  9 15  1  0  0  0  0
 11 14  1  0  0  0  0
 12 14  2  0  0  0  0
 13 14  2  0  0  0  0
  1 16  1  0  0  0  0
  2 17  1  0  0  0  0
  3 18  1  0  0  0  0
  4 19  1  0  0  0  0
  5 20  1  0  0  0  0
 11 21  1  0  0  0  0
 11 22  1  0  0  0  0
M  END
> <Mol Weight>
287,13

> <Formula>
C9H7BrN2O2S

> <ID>
EN300-6746303

> <name>
Sulfonamides

> <LogP>
1,71

> <ROCS_ShapeQuery>
x0310_0A_x0719_0A_x1080_0A_x0739_0A_x0929_0A_x0526_0A_x0911_0A

> <ROCS_TanimotoCombo>
0.308 

> <ROCS_ShapeTanimoto>
0.145 

> <ROCS_ColorTanimoto>
0.162 

> <ROCS_RefTversky>
0.143 

> <ROCS_RefColorTversky>
0.179 

> <ROCS_RefTverskyCombo>
0.322 

> <ROCS_FitTversky>
1.107 

> <ROCS_FitColorTversky>
0.636 

> <ROCS_FitTverskyCombo>
1.743 

> <ROCS_ColorScore>
-5.201

> <ROCS_Overlap>
1148.814

> <ROCS_Rank>
316                 

$$$$
untitled-dbase-1260_9
  -OEChem-02092407103D

 24 24  0     1  0  0  0  0  0999 V2000
    9.1730   10.0025   24.1733 C   0  0  0  0  0  0  0  0  0  0  0  0
    9.1470   10.1622   22.7879 C   0  0  0  0  0  0  0  0  0  0  0  0
    8.7440   11.0385   25.0031 C   0  0  0  0  0  0  0  0  0  0  0  0
    8.6921   11.3580   22.2322 C   0  0  0  0  0  0  0  0  0  0  0  0
    8.2891   12.2343   24.4473 C   0  0  0  0  0  0  0  0  0  0  0  0
    8.2631   12.3940   23.0618 C   0  0  0  0  0  0  0  0  0  0  0  0
    6.7277   14.3866   23.3082 C   0  0  0  0  0  0  0  0  0  0  0  0
    7.7769   13.6730   22.4682 C   0  0  1  0  0  0  0  0  0  0  0  0
    5.5599   14.6233   22.6142 N   0  0  0  0  0  0  0  0  0  0  0  0
   10.0713   13.7230   21.1325 N   0  0  0  0  0  0  0  0  0  0  0  0
    6.8917   14.7044   24.4834 O   0  0  0  0  0  0  0  0  0  0  0  0
    8.7391   15.8949   21.4862 O   0  0  0  0  0  0  0  0  0  0  0  0
    9.9075   14.8212   23.4529 O   0  0  0  0  0  0  0  0  0  0  0  0
    9.1872   14.7144   22.1990 S   0  0  0  0  0  0  0  0  0  0  0  0
    9.5259    9.0708   24.6059 H   0  0  0  0  0  0  0  0  0  0  0  0
    9.4799    9.3553   22.1417 H   0  0  0  0  0  0  0  0  0  0  0  0
    8.7630   10.9141   26.0817 H   0  0  0  0  0  0  0  0  0  0  0  0
    8.6756   11.4736   21.1516 H   0  0  0  0  0  0  0  0  0  0  0  0
    7.9569   13.0360   25.1015 H   0  0  0  0  0  0  0  0  0  0  0  0
    7.3524   13.5191   21.4613 H   0  0  0  0  0  0  0  0  0  0  0  0
    5.4340   14.3400   21.6477 H   0  0  0  0  0  0  0  0  0  0  0  0
    4.7760   15.0901   23.0579 H   0  0  0  0  0  0  0  0  0  0  0  0
   10.5085   12.8760   21.5160 H   0  0  0  0  0  0  0  0  0  0  0  0
    9.7127   13.6075   20.1766 H   0  0  0  0  0  0  0  0  0  0  0  0
  1  2  1  0  0  0  0
  1  3  2  0  0  0  0
  2  4  2  0  0  0  0
  3  5  1  0  0  0  0
  4  6  1  0  0  0  0
  5  6  2  0  0  0  0
  6  8  1  0  0  0  0
  7  8  1  0  0  0  0
  7  9  1  0  0  0  0
  7 11  2  0  0  0  0
  8 14  1  0  0  0  0
 10 14  1  0  0  0  0
 12 14  2  0  0  0  0
 13 14  2  0  0  0  0
  1 15  1  0  0  0  0
  2 16  1  0  0  0  0
  3 17  1  0  0  0  0
  4 18  1  0  0  0  0
  5 19  1  0  0  0  0
  8 20  1  0  0  0  0
  9 21  1  0  0  0  0
  9 22  1  0  0  0  0
 10 23  1  0  0  0  0
 10 24  1  0  0  0  0
M  END
> <Mol Weight>
214,24

> <Formula>
C8H10N2O3S

> <ID>
EN300-234192

> <name>
Sulfonamides

> <LogP>
-0,47

> <ROCS_ShapeQuery>
x0310_0A_x0719_0A_x1080_0A_x0739_0A_x0929_0A_x0526_0A_x0911_0A

> <ROCS_TanimotoCombo>
0.307 

> <ROCS_ShapeTanimoto>
0.161 

> <ROCS_ColorTanimoto>
0.146 

> <ROCS_RefTversky>
0.156 

> <ROCS_RefColorTversky>
0.159 

> <ROCS_RefTverskyCombo>
0.315 

> <ROCS_FitTversky>
1.273 

> <ROCS_FitColorTversky>
0.641 

> <ROCS_FitTverskyCombo>
1.914 

> <ROCS_ColorScore>
-4.628

> <ROCS_Overlap>
1247.877

> <ROCS_Rank>
317                 

$$$$
untitled-dbase-818_10
  -OEChem-02092407103D

 26 26  0     1  0  0  0  0  0999 V2000
    9.6344   10.4817   24.3058 C   0  0  0  0  0  0  0  0  0  0  0  0
    8.4701    9.9879   23.7177 C   0  0  0  0  0  0  0  0  0  0  0  0
    9.9577   11.8333   24.1851 C   0  0  0  0  0  0  0  0  0  0  0  0
    7.6289   10.8455   23.0088 C   0  0  0  0  0  0  0  0  0  0  0  0
    9.1165   12.6909   23.4761 C   0  0  0  0  0  0  0  0  0  0  0  0
    7.9521   12.1970   22.8880 C   0  0  0  0  0  0  0  0  0  0  0  0
    7.1371   11.9646   19.8583 C   0  0  0  0  0  0  0  0  0  0  0  0
    7.3393   13.2660   20.6223 C   0  0  0  0  0  0  0  0  0  0  0  0
    7.0415   13.1265   22.1200 C   0  0  2  0  0  0  0  0  0  0  0  0
    5.7038   15.4086   22.3516 N   0  0  0  0  0  0  0  0  0  0  0  0
    7.0230   14.4798   24.3550 O   0  0  0  0  0  0  0  0  0  0  0  0
    8.2760   15.4158   22.3703 O   0  0  0  0  0  0  0  0  0  0  0  0
    7.1433   14.7041   22.9281 S   0  0  0  0  0  0  0  0  0  0  0  0
   10.2886    9.8141   24.8589 H   0  0  0  0  0  0  0  0  0  0  0  0
    8.2177    8.9357   23.8126 H   0  0  0  0  0  0  0  0  0  0  0  0
   10.8636   12.2184   24.6437 H   0  0  0  0  0  0  0  0  0  0  0  0
    6.7238   10.4518   22.5537 H   0  0  0  0  0  0  0  0  0  0  0  0
    9.3764   13.7424   23.3871 H   0  0  0  0  0  0  0  0  0  0  0  0
    7.7922   11.1863   20.2624 H   0  0  0  0  0  0  0  0  0  0  0  0
    7.3773   12.0914   18.7979 H   0  0  0  0  0  0  0  0  0  0  0  0
    6.1060   11.6074   19.9385 H   0  0  0  0  0  0  0  0  0  0  0  0
    6.6702   14.0232   20.1939 H   0  0  0  0  0  0  0  0  0  0  0  0
    8.3575   13.6337   20.4505 H   0  0  0  0  0  0  0  0  0  0  0  0
    5.9965   12.8148   22.2409 H   0  0  0  0  0  0  0  0  0  0  0  0
    5.6667   15.6837   21.3624 H   0  0  0  0  0  0  0  0  0  0  0  0
    4.8134   15.0463   22.7143 H   0  0  0  0  0  0  0  0  0  0  0  0
  1  2  1  0  0  0  0
  1  3  2  0  0  0  0
  2  4  2  0  0  0  0
  3  5  1  0  0  0  0
  4  6  1  0  0  0  0
  5  6  2  0  0  0  0
  6  9  1  0  0  0  0
  7  8  1  0  0  0  0
  8  9  1  0  0  0  0
  9 13  1  0  0  0  0
 10 13  1  0  0  0  0
 11 13  2  0  0  0  0
 12 13  2  0  0  0  0
  1 14  1  0  0  0  0
  2 15  1  0  0  0  0
  3 16  1  0  0  0  0
  4 17  1  0  0  0  0
  5 18  1  0  0  0  0
  7 19  1  0  0  0  0
  7 20  1  0  0  0  0
  7 21  1  0  0  0  0
  8 22  1  0  0  0  0
  8 23  1  0  0  0  0
  9 24  1  0  0  0  0
 10 25  1  0  0  0  0
 10 26  1  0  0  0  0
M  END
> <Mol Weight>
199,27

> <Formula>
C9H13NO2S

> <ID>
EN300-219578

> <name>
Sulfonamides

> <LogP>
1,43

> <ROCS_ShapeQuery>
x0310_0A_x0719_0A_x1080_0A_x0739_0A_x0929_0A_x0526_0A_x0911_0A

> <ROCS_TanimotoCombo>
0.307 

> <ROCS_ShapeTanimoto>
0.148 

> <ROCS_ColorTanimoto>
0.159 

> <ROCS_RefTversky>
0.144 

> <ROCS_RefColorTversky>
0.167 

> <ROCS_RefTverskyCombo>
0.311 

> <ROCS_FitTversky>
1.248 

> <ROCS_FitColorTversky>
0.771 

> <ROCS_FitTverskyCombo>
2.019 

> <ROCS_ColorScore>
-4.833

> <ROCS_Overlap>
1154.562

> <ROCS_Rank>
318                 

$$$$
untitled-dbase-1999_20
  -OEChem-02092407103D

 25 25  0     0  0  0  0  0  0999 V2000
    8.4189   12.1675   23.4754 C   0  0  0  0  0  0  0  0  0  0  0  0
    7.6747   10.9850   23.6472 C   0  0  0  0  0  0  0  0  0  0  0  0
    9.7169   11.7960   23.7278 C   0  0  0  0  0  0  0  0  0  0  0  0
    6.2198   10.8014   23.5005 C   0  0  0  0  0  0  0  0  0  0  0  0
   10.7896    9.6134   24.3611 C   0  0  0  0  0  0  0  0  0  0  0  0
   10.9730   12.5699   23.7151 C   0  0  0  0  0  0  0  0  0  0  0  0
    8.4365    9.9404   23.9826 N   0  0  0  0  0  0  0  0  0  0  0  0
    9.6730   10.4653   24.0235 N   0  0  0  0  0  0  0  0  0  0  0  0
   11.4618   12.8730   25.0430 N   0  0  0  0  0  0  0  0  0  0  0  0
    9.2859   14.6475   23.0254 N   0  0  0  0  0  0  0  0  0  0  0  0
    7.3035   13.6905   21.6838 O   0  0  0  0  0  0  0  0  0  0  0  0
    6.9889   14.2467   24.1209 O   0  0  0  0  0  0  0  0  0  0  0  0
    7.8458   13.7111   23.0513 S   0  0  0  0  0  0  0  0  0  0  0  0
    5.9540   10.5260   22.4658 H   0  0  0  0  0  0  0  0  0  0  0  0
    5.8309   10.0106   24.1660 H   0  0  0  0  0  0  0  0  0  0  0  0
    5.6570   11.7164   23.7568 H   0  0  0  0  0  0  0  0  0  0  0  0
   10.9201    9.6424   25.4461 H   0  0  0  0  0  0  0  0  0  0  0  0
   10.5825    8.5926   24.0280 H   0  0  0  0  0  0  0  0  0  0  0  0
   11.6885    9.9791   23.8569 H   0  0  0  0  0  0  0  0  0  0  0  0
   11.7839   12.0306   23.1932 H   0  0  0  0  0  0  0  0  0  0  0  0
   10.8645   13.5361   23.1908 H   0  0  0  0  0  0  0  0  0  0  0  0
   11.6834   12.0202   25.5091 H   0  0  0  0  0  0  0  0  0  0  0  0
   12.2773   13.4409   24.9655 H   0  0  0  0  0  0  0  0  0  0  0  0
    9.6584   14.9470   22.1160 H   0  0  0  0  0  0  0  0  0  0  0  0
    9.4429   15.3247   23.7817 H   0  0  0  0  0  0  0  0  0  0  0  0
  1  2  1  0  0  0  0
  1  3  2  0  0  0  0
  1 13  1  0  0  0  0
  2  4  1  0  0  0  0
  2  7  2  0  0  0  0
  3  6  1  0  0  0  0
  3  8  1  0  0  0  0
  5  8  1  0  0  0  0
  6  9  1  0  0  0  0
  7  8  1  0  0  0  0
 10 13  1  0  0  0  0
 11 13  2  0  0  0  0
 12 13  2  0  0  0  0
  4 14  1  0  0  0  0
  4 15  1  0  0  0  0
  4 16  1  0  0  0  0
  5 17  1  0  0  0  0
  5 18  1  0  0  0  0
  5 19  1  0  0  0  0
  6 20  1  0  0  0  0
  6 21  1  0  0  0  0
  9 22  1  0  0  0  0
  9 23  1  0  0  0  0
 10 24  1  0  0  0  0
 10 25  1  0  0  0  0
M  END
> <Mol Weight>
240,71

> <Formula>
C6H13ClN4O2S

> <ID>
EN300-7463249

> <name>
Sulfonamides

> <LogP>
-2,03

> <ROCS_ShapeQuery>
x0310_0A_x0719_0A_x1080_0A_x0739_0A_x0929_0A_x0526_0A_x0911_0A

> <ROCS_TanimotoCombo>
0.307 

> <ROCS_ShapeTanimoto>
0.148 

> <ROCS_ColorTanimoto>
0.160 

> <ROCS_RefTversky>
0.144 

> <ROCS_RefColorTversky>
0.176 

> <ROCS_RefTverskyCombo>
0.320 

> <ROCS_FitTversky>
1.224 

> <ROCS_FitColorTversky>
0.628 

> <ROCS_FitTverskyCombo>
1.852 

> <ROCS_ColorScore>
-5.128

> <ROCS_Overlap>
1151.548

> <ROCS_Rank>
319                 

$$$$
untitled-dbase-2457_72
  -OEChem-02092407103D

 37 37  0     1  0  0  0  0  0999 V2000
    6.2337   12.4794   20.7498 C   0  0  0  0  0  0  0  0  0  0  0  0
    3.6873   12.7088   18.4041 C   0  0  0  0  0  0  0  0  0  0  0  0
    2.7157   11.4005   19.7765 C   0  0  0  0  0  0  0  0  0  0  0  0
    4.1965   11.7586   19.5124 C   0  0  2  0  0  0  0  0  0  0  0  0
    2.4321   11.8126   18.3147 C   0  0  1  0  0  0  0  0  0  0  0  0
    8.5977   14.0606   20.9969 C   0  0  0  0  0  0  0  0  0  0  0  0
    8.0860   14.1077   23.4557 C   0  0  0  0  0  0  0  0  0  0  0  0
    8.5597   11.9189   22.3185 C   0  0  0  0  0  0  0  0  0  0  0  0
   -0.8960   11.6875   19.8761 C   0  0  0  0  0  0  0  0  0  0  0  0
    7.9496   13.3109   22.1600 C   0  0  0  0  0  0  0  0  0  0  0  0
    4.8673   12.4221   20.6189 N   0  0  0  0  0  0  0  0  0  0  0  0
   -0.2172   11.4968   18.5818 N   0  0  0  0  0  0  0  0  0  0  0  0
    7.0540   11.9949   19.9772 O   0  0  0  0  0  0  0  0  0  0  0  0
    0.8701   13.8167   18.9427 O   0  0  0  0  0  0  0  0  0  0  0  0
    0.7402   12.8463   16.6193 O   0  0  0  0  0  0  0  0  0  0  0  0
    6.5512   13.1674   21.8870 O   0  0  0  0  0  0  0  0  0  0  0  0
    0.9060   12.6703   18.0518 S   0  0  0  0  0  0  0  0  0  0  0  0
    3.4936   13.7356   18.7379 H   0  0  0  0  0  0  0  0  0  0  0  0
    4.3011   12.7442   17.4996 H   0  0  0  0  0  0  0  0  0  0  0  0
    2.5230   10.3499   20.0112 H   0  0  0  0  0  0  0  0  0  0  0  0
    2.2236   12.0255   20.5317 H   0  0  0  0  0  0  0  0  0  0  0  0
    4.7856   10.9176   19.1277 H   0  0  0  0  0  0  0  0  0  0  0  0
    2.5451   10.9841   17.6049 H   0  0  0  0  0  0  0  0  0  0  0  0
    8.5019   13.4919   20.0651 H   0  0  0  0  0  0  0  0  0  0  0  0
    8.1451   15.0468   20.8506 H   0  0  0  0  0  0  0  0  0  0  0  0
    9.6719   14.1947   21.1682 H   0  0  0  0  0  0  0  0  0  0  0  0
    7.6224   13.5734   24.2929 H   0  0  0  0  0  0  0  0  0  0  0  0
    7.5673   15.0701   23.3785 H   0  0  0  0  0  0  0  0  0  0  0  0
    9.1351   14.2981   23.7043 H   0  0  0  0  0  0  0  0  0  0  0  0
    8.0950   11.3809   23.1527 H   0  0  0  0  0  0  0  0  0  0  0  0
    8.4382   11.3196   21.4103 H   0  0  0  0  0  0  0  0  0  0  0  0
    9.6286   11.9861   22.5510 H   0  0  0  0  0  0  0  0  0  0  0  0
   -1.0932   12.7583   20.0330 H   0  0  0  0  0  0  0  0  0  0  0  0
   -1.8477   11.1358   19.8757 H   0  0  0  0  0  0  0  0  0  0  0  0
   -0.2540   11.3105   20.6858 H   0  0  0  0  0  0  0  0  0  0  0  0
    4.2989   12.8641   21.3285 H   0  0  0  0  0  0  0  0  0  0  0  0
    0.0004   10.5153   18.3654 H   0  0  0  0  0  0  0  0  0  0  0  0
  1 11  1  0  0  0  0
  1 13  2  0  0  0  0
  1 16  1  0  0  0  0
  2  4  1  0  0  0  0
  2  5  1  0  0  0  0
  3  4  1  0  0  0  0
  3  5  1  0  0  0  0
  4 11  1  1  0  0  0
  5 17  1  1  0  0  0
  6 10  1  0  0  0  0
  7 10  1  0  0  0  0
  8 10  1  0  0  0  0
  9 12  1  0  0  0  0
 10 16  1  0  0  0  0
 12 17  1  0  0  0  0
 14 17  2  0  0  0  0
 15 17  2  0  0  0  0
  2 18  1  0  0  0  0
  2 19  1  0  0  0  0
  3 20  1  0  0  0  0
  3 21  1  0  0  0  0
  4 22  1  0  0  0  0
  5 23  1  0  0  0  0
  6 24  1  0  0  0  0
  6 25  1  0  0  0  0
  6 26  1  0  0  0  0
  7 27  1  0  0  0  0
  7 28  1  0  0  0  0
  7 29  1  0  0  0  0
  8 30  1  0  0  0  0
  8 31  1  0  0  0  0
  8 32  1  0  0  0  0
  9 33  1  0  0  0  0
  9 34  1  0  0  0  0
  9 35  1  0  0  0  0
 11 36  1  0  0  0  0
 12 37  1  0  0  0  0
M  END
> <Mol Weight>
264,34

> <Formula>
C10H20N2O4S

> <ID>
EN300-27780168

> <name>
Sulfonamides

> <LogP>
-0,24

> <ROCS_ShapeQuery>
x0310_0A_x0719_0A_x1080_0A_x0739_0A_x0929_0A_x0526_0A_x0911_0A

> <ROCS_TanimotoCombo>
0.307 

> <ROCS_ShapeTanimoto>
0.190 

> <ROCS_ColorTanimoto>
0.117 

> <ROCS_RefTversky>
0.182 

> <ROCS_RefColorTversky>
0.134 

> <ROCS_RefTverskyCombo>
0.315 

> <ROCS_FitTversky>
1.340 

> <ROCS_FitColorTversky>
0.477 

> <ROCS_FitTverskyCombo>
1.817 

> <ROCS_ColorScore>
-3.897

> <ROCS_Overlap>
1455.005

> <ROCS_Rank>
320                 

$$$$
untitled-dbase-278_6
  -OEChem-02092407103D

 19 19  0     0  0  0  0  0  0999 V2000
    8.3061   10.2239   23.9945 C   0  0  0  0  0  0  0  0  0  0  0  0
    9.6099   10.5646   24.3370 C   0  0  0  0  0  0  0  0  0  0  0  0
    7.5235   11.1236   23.2794 C   0  0  0  0  0  0  0  0  0  0  0  0
   10.0802   11.8072   23.9438 C   0  0  0  0  0  0  0  0  0  0  0  0
    8.0870   12.3412   22.9337 C   0  0  0  0  0  0  0  0  0  0  0  0
    7.2757   13.3310   22.1662 C   0  0  0  0  0  0  0  0  0  0  0  0
    9.3497   12.7075   23.2485 N   0  0  0  0  0  0  0  0  0  0  0  0
    5.7600   15.4973   22.4129 N   0  0  0  0  0  0  0  0  0  0  0  0
    6.7684   14.3860   24.5021 O   0  0  0  0  0  0  0  0  0  0  0  0
    8.2818   15.6271   22.9037 O   0  0  0  0  0  0  0  0  0  0  0  0
    7.1228   14.7860   23.1508 S   0  0  0  0  0  0  0  0  0  0  0  0
    7.9009    9.2591   24.2843 H   0  0  0  0  0  0  0  0  0  0  0  0
   10.2382    9.8791   24.8941 H   0  0  0  0  0  0  0  0  0  0  0  0
    6.5049   10.8699   23.0060 H   0  0  0  0  0  0  0  0  0  0  0  0
   11.0902   12.1208   24.1862 H   0  0  0  0  0  0  0  0  0  0  0  0
    6.2670   12.9623   21.9497 H   0  0  0  0  0  0  0  0  0  0  0  0
    7.7508   13.6124   21.2198 H   0  0  0  0  0  0  0  0  0  0  0  0
    5.8782   15.8941   21.4726 H   0  0  0  0  0  0  0  0  0  0  0  0
    4.8476   15.0490   22.5614 H   0  0  0  0  0  0  0  0  0  0  0  0
  1  2  1  0  0  0  0
  1  3  2  0  0  0  0
  2  4  2  0  0  0  0
  3  5  1  0  0  0  0
  4  7  1  0  0  0  0
  5  6  1  0  0  0  0
  5  7  2  0  0  0  0
  6 11  1  0  0  0  0
  8 11  1  0  0  0  0
  9 11  2  0  0  0  0
 10 11  2  0  0  0  0
  1 12  1  0  0  0  0
  2 13  1  0  0  0  0
  3 14  1  0  0  0  0
  4 15  1  0  0  0  0
  6 16  1  0  0  0  0
  6 17  1  0  0  0  0
  8 18  1  0  0  0  0
  8 19  1  0  0  0  0
M  END
> <Mol Weight>
172,20

> <Formula>
C6H8N2O2S

> <ID>
EN300-69257

> <name>
Sulfonamides

> <LogP>
-0,49

> <ROCS_ShapeQuery>
x0310_0A_x0719_0A_x1080_0A_x0739_0A_x0929_0A_x0526_0A_x0911_0A

> <ROCS_TanimotoCombo>
0.307 

> <ROCS_ShapeTanimoto>
0.149 

> <ROCS_ColorTanimoto>
0.158 

> <ROCS_RefTversky>
0.144 

> <ROCS_RefColorTversky>
0.166 

> <ROCS_RefTverskyCombo>
0.309 

> <ROCS_FitTversky>
1.349 

> <ROCS_FitColorTversky>
0.767 

> <ROCS_FitTverskyCombo>
2.116 

> <ROCS_ColorScore>
-4.805

> <ROCS_Overlap>
1150.901

> <ROCS_Rank>
321                 

$$$$
untitled-dbase-1895_23
  -OEChem-02092407103D

 25 25  0     0  0  0  0  0  0999 V2000
   10.1620   11.6084   23.7133 C   0  0  0  0  0  0  0  0  0  0  0  0
    9.6246   10.4629   24.3001 C   0  0  0  0  0  0  0  0  0  0  0  0
    9.3363   12.4833   23.0071 C   0  0  0  0  0  0  0  0  0  0  0  0
    7.4358   11.0668   23.4747 C   0  0  0  0  0  0  0  0  0  0  0  0
    8.2615   10.1920   24.1808 C   0  0  0  0  0  0  0  0  0  0  0  0
    7.9732   12.2124   22.8878 C   0  0  0  0  0  0  0  0  0  0  0  0
    7.6874    8.9677   24.8099 C   0  0  0  0  0  0  0  0  0  0  0  0
    7.0905   13.1476   22.1321 C   0  0  0  0  0  0  0  0  0  0  0  0
    6.9466    9.2642   26.0097 N   0  0  0  0  0  0  0  0  0  0  0  0
    5.7145   15.4103   22.3264 N   0  0  0  0  0  0  0  0  0  0  0  0
    6.9939   14.5018   24.3646 O   0  0  0  0  0  0  0  0  0  0  0  0
    8.2850   15.4546   22.4125 O   0  0  0  0  0  0  0  0  0  0  0  0
    7.1479   14.7165   22.9357 S   0  0  0  0  0  0  0  0  0  0  0  0
   11.2235   11.8193   23.8063 H   0  0  0  0  0  0  0  0  0  0  0  0
   10.2756    9.7873   24.8489 H   0  0  0  0  0  0  0  0  0  0  0  0
    9.7638   13.3730   22.5525 H   0  0  0  0  0  0  0  0  0  0  0  0
    6.3728   10.8567   23.3821 H   0  0  0  0  0  0  0  0  0  0  0  0
    7.0054    8.4507   24.1203 H   0  0  0  0  0  0  0  0  0  0  0  0
    8.4720    8.2473   25.0792 H   0  0  0  0  0  0  0  0  0  0  0  0
    6.0467   12.8141   22.1178 H   0  0  0  0  0  0  0  0  0  0  0  0
    7.4218   13.2869   21.0967 H   0  0  0  0  0  0  0  0  0  0  0  0
    6.1690    9.8481   25.7817 H   0  0  0  0  0  0  0  0  0  0  0  0
    6.6195    8.4116   26.4142 H   0  0  0  0  0  0  0  0  0  0  0  0
    5.6993   15.6843   21.3363 H   0  0  0  0  0  0  0  0  0  0  0  0
    4.8202   15.0355   22.6660 H   0  0  0  0  0  0  0  0  0  0  0  0
  1  2  2  0  0  0  0
  1  3  1  0  0  0  0
  2  5  1  0  0  0  0
  3  6  2  0  0  0  0
  4  5  2  0  0  0  0
  4  6  1  0  0  0  0
  5  7  1  0  0  0  0
  6  8  1  0  0  0  0
  7  9  1  0  0  0  0
  8 13  1  0  0  0  0
 10 13  1  0  0  0  0
 11 13  2  0  0  0  0
 12 13  2  0  0  0  0
  1 14  1  0  0  0  0
  2 15  1  0  0  0  0
  3 16  1  0  0  0  0
  4 17  1  0  0  0  0
  7 18  1  0  0  0  0
  7 19  1  0  0  0  0
  8 20  1  0  0  0  0
  8 21  1  0  0  0  0
  9 22  1  0  0  0  0
  9 23  1  0  0  0  0
 10 24  1  0  0  0  0
 10 25  1  0  0  0  0
M  END
> <Mol Weight>
236,71

> <Formula>
C8H13ClN2O2S

> <ID>
EN300-65803

> <name>
Sulfonamides

> <LogP>
-0,64

> <ROCS_ShapeQuery>
x0310_0A_x0719_0A_x1080_0A_x0739_0A_x0929_0A_x0526_0A_x0911_0A

> <ROCS_TanimotoCombo>
0.307 

> <ROCS_ShapeTanimoto>
0.154 

> <ROCS_ColorTanimoto>
0.153 

> <ROCS_RefTversky>
0.149 

> <ROCS_RefColorTversky>
0.166 

> <ROCS_RefTverskyCombo>
0.315 

> <ROCS_FitTversky>
1.283 

> <ROCS_FitColorTversky>
0.668 

> <ROCS_FitTverskyCombo>
1.951 

> <ROCS_ColorScore>
-4.824

> <ROCS_Overlap>
1190.024

> <ROCS_Rank>
322                 

$$$$
untitled-dbase-867_23
  -OEChem-02092407103D

 25 25  0     0  0  0  0  0  0999 V2000
   10.1620   11.6084   23.7133 C   0  0  0  0  0  0  0  0  0  0  0  0
    9.6246   10.4629   24.3001 C   0  0  0  0  0  0  0  0  0  0  0  0
    9.3363   12.4833   23.0071 C   0  0  0  0  0  0  0  0  0  0  0  0
    7.4358   11.0668   23.4747 C   0  0  0  0  0  0  0  0  0  0  0  0
    8.2615   10.1920   24.1808 C   0  0  0  0  0  0  0  0  0  0  0  0
    7.9732   12.2124   22.8878 C   0  0  0  0  0  0  0  0  0  0  0  0
    7.6874    8.9677   24.8099 C   0  0  0  0  0  0  0  0  0  0  0  0
    7.0905   13.1476   22.1321 C   0  0  0  0  0  0  0  0  0  0  0  0
    6.9466    9.2642   26.0097 N   0  0  0  0  0  0  0  0  0  0  0  0
    5.7145   15.4103   22.3264 N   0  0  0  0  0  0  0  0  0  0  0  0
    6.9939   14.5018   24.3646 O   0  0  0  0  0  0  0  0  0  0  0  0
    8.2850   15.4546   22.4125 O   0  0  0  0  0  0  0  0  0  0  0  0
    7.1479   14.7165   22.9357 S   0  0  0  0  0  0  0  0  0  0  0  0
   11.2235   11.8193   23.8063 H   0  0  0  0  0  0  0  0  0  0  0  0
   10.2756    9.7873   24.8489 H   0  0  0  0  0  0  0  0  0  0  0  0
    9.7638   13.3730   22.5525 H   0  0  0  0  0  0  0  0  0  0  0  0
    6.3728   10.8567   23.3821 H   0  0  0  0  0  0  0  0  0  0  0  0
    7.0054    8.4507   24.1203 H   0  0  0  0  0  0  0  0  0  0  0  0
    8.4720    8.2473   25.0792 H   0  0  0  0  0  0  0  0  0  0  0  0
    6.0467   12.8141   22.1178 H   0  0  0  0  0  0  0  0  0  0  0  0
    7.4218   13.2869   21.0967 H   0  0  0  0  0  0  0  0  0  0  0  0
    6.1690    9.8481   25.7817 H   0  0  0  0  0  0  0  0  0  0  0  0
    6.6195    8.4116   26.4142 H   0  0  0  0  0  0  0  0  0  0  0  0
    5.6993   15.6843   21.3363 H   0  0  0  0  0  0  0  0  0  0  0  0
    4.8202   15.0355   22.6660 H   0  0  0  0  0  0  0  0  0  0  0  0
  1  2  2  0  0  0  0
  1  3  1  0  0  0  0
  2  5  1  0  0  0  0
  3  6  2  0  0  0  0
  4  5  2  0  0  0  0
  4  6  1  0  0  0  0
  5  7  1  0  0  0  0
  6  8  1  0  0  0  0
  7  9  1  0  0  0  0
  8 13  1  0  0  0  0
 10 13  1  0  0  0  0
 11 13  2  0  0  0  0
 12 13  2  0  0  0  0
  1 14  1  0  0  0  0
  2 15  1  0  0  0  0
  3 16  1  0  0  0  0
  4 17  1  0  0  0  0
  7 18  1  0  0  0  0
  7 19  1  0  0  0  0
  8 20  1  0  0  0  0
  8 21  1  0  0  0  0
  9 22  1  0  0  0  0
  9 23  1  0  0  0  0
 10 24  1  0  0  0  0
 10 25  1  0  0  0  0
M  END
> <Mol Weight>
200,26

> <Formula>
C8H12N2O2S

> <ID>
EN300-65800

> <name>
Sulfonamides

> <LogP>
-0,64

> <ROCS_ShapeQuery>
x0310_0A_x0719_0A_x1080_0A_x0739_0A_x0929_0A_x0526_0A_x0911_0A

> <ROCS_TanimotoCombo>
0.307 

> <ROCS_ShapeTanimoto>
0.154 

> <ROCS_ColorTanimoto>
0.153 

> <ROCS_RefTversky>
0.149 

> <ROCS_RefColorTversky>
0.166 

> <ROCS_RefTverskyCombo>
0.315 

> <ROCS_FitTversky>
1.283 

> <ROCS_FitColorTversky>
0.668 

> <ROCS_FitTverskyCombo>
1.951 

> <ROCS_ColorScore>
-4.824

> <ROCS_Overlap>
1190.024

> <ROCS_Rank>
323                 

$$$$
untitled-dbase-2388_3
  -OEChem-02092407103D

 30 32  0     0  0  0  0  0  0999 V2000
    9.1885    9.9471   23.7121 C   0  0  0  0  0  0  0  0  0  0  0  0
    9.7925   10.9531   24.4625 C   0  0  0  0  0  0  0  0  0  0  0  0
    8.1466   10.2435   22.8261 C   0  0  0  0  0  0  0  0  0  0  0  0
    9.3757   12.2822   24.3512 C   0  0  0  0  0  0  0  0  0  0  0  0
    5.8787   14.5168   21.6294 C   0  0  0  0  0  0  0  0  0  0  0  0
    4.9523   14.0460   20.6951 C   0  0  0  0  0  0  0  0  0  0  0  0
    5.7552   11.7716   20.9649 C   0  0  0  0  0  0  0  0  0  0  0  0
    7.7076   11.5779   22.6963 C   0  0  0  0  0  0  0  0  0  0  0  0
    6.6992   12.2223   21.9114 C   0  0  0  0  0  0  0  0  0  0  0  0
    8.3325   12.5630   23.4613 C   0  0  0  0  0  0  0  0  0  0  0  0
    6.7373   13.5823   22.2197 C   0  0  0  0  0  0  0  0  0  0  0  0
    4.8897   12.6940   20.3662 C   0  0  0  0  0  0  0  0  0  0  0  0
    8.0898   15.0365   23.7392 C   0  0  0  0  0  0  0  0  0  0  0  0
    7.7293   13.7600   23.1550 N   0  0  0  0  0  0  0  0  0  0  0  0
    2.9462   13.6099   18.7885 N   0  0  0  0  0  0  0  0  0  0  0  0
    4.4366   11.6496   18.0259 O   0  0  0  0  0  0  0  0  0  0  0  0
    2.7601   11.2789   19.8696 O   0  0  0  0  0  0  0  0  0  0  0  0
    3.7186   12.1408   19.1931 S   0  0  0  0  0  0  0  0  0  0  0  0
    9.5288    8.9202   23.8141 H   0  0  0  0  0  0  0  0  0  0  0  0
   10.6008   10.7018   25.1446 H   0  0  0  0  0  0  0  0  0  0  0  0
    7.6857    9.4480   22.2473 H   0  0  0  0  0  0  0  0  0  0  0  0
    9.8498   13.0616   24.9386 H   0  0  0  0  0  0  0  0  0  0  0  0
    5.9222   15.5712   21.8810 H   0  0  0  0  0  0  0  0  0  0  0  0
    4.2758   14.7561   20.2245 H   0  0  0  0  0  0  0  0  0  0  0  0
    5.7029   10.7174   20.7057 H   0  0  0  0  0  0  0  0  0  0  0  0
    8.8649   15.4870   23.1136 H   0  0  0  0  0  0  0  0  0  0  0  0
    7.2074   15.6813   23.7783 H   0  0  0  0  0  0  0  0  0  0  0  0
    8.4619   14.8768   24.7551 H   0  0  0  0  0  0  0  0  0  0  0  0
    3.1295   14.0108   17.8606 H   0  0  0  0  0  0  0  0  0  0  0  0
    1.9858   13.7569   19.1219 H   0  0  0  0  0  0  0  0  0  0  0  0
  1  2  1  0  0  0  0
  1  3  2  0  0  0  0
  2  4  2  0  0  0  0
  3  8  1  0  0  0  0
  4 10  1  0  0  0  0
  5  6  2  0  0  0  0
  5 11  1  0  0  0  0
  6 12  1  0  0  0  0
  7  9  1  0  0  0  0
  7 12  2  0  0  0  0
  8  9  1  0  0  0  0
  8 10  2  0  0  0  0
  9 11  2  0  0  0  0
 10 14  1  0  0  0  0
 11 14  1  0  0  0  0
 12 18  1  0  0  0  0
 13 14  1  0  0  0  0
 15 18  1  0  0  0  0
 16 18  2  0  0  0  0
 17 18  2  0  0  0  0
  1 19  1  0  0  0  0
  2 20  1  0  0  0  0
  3 21  1  0  0  0  0
  4 22  1  0  0  0  0
  5 23  1  0  0  0  0
  6 24  1  0  0  0  0
  7 25  1  0  0  0  0
 13 26  1  0  0  0  0
 13 27  1  0  0  0  0
 13 28  1  0  0  0  0
 15 29  1  0  0  0  0
 15 30  1  0  0  0  0
M  END
> <Mol Weight>
260,31

> <Formula>
C13H12N2O2S

> <ID>
EN300-257205

> <name>
Sulfonamides

> <LogP>
1,92

> <ROCS_ShapeQuery>
x0310_0A_x0719_0A_x1080_0A_x0739_0A_x0929_0A_x0526_0A_x0911_0A

> <ROCS_TanimotoCombo>
0.307 

> <ROCS_ShapeTanimoto>
0.210 

> <ROCS_ColorTanimoto>
0.097 

> <ROCS_RefTversky>
0.199 

> <ROCS_RefColorTversky>
0.110 

> <ROCS_RefTverskyCombo>
0.310 

> <ROCS_FitTversky>
1.338 

> <ROCS_FitColorTversky>
0.443 

> <ROCS_FitTverskyCombo>
1.781 

> <ROCS_ColorScore>
-3.210

> <ROCS_Overlap>
1599.863

> <ROCS_Rank>
324                 

$$$$
untitled-dbase-2149_236
  -OEChem-02092407103D

 27 27  0     0  0  0  0  0  0999 V2000
    4.0740   11.0869   18.9007 C   0  0  0  0  0  0  0  0  0  0  0  0
    2.6620   11.0717   18.7111 C   0  0  0  0  0  0  0  0  0  0  0  0
    4.4706   12.0921   19.7551 C   0  0  0  0  0  0  0  0  0  0  0  0
    2.0330   12.0658   19.4280 C   0  0  0  0  0  0  0  0  0  0  0  0
    7.5259   13.9247   23.2765 C   0  0  0  0  0  0  0  0  0  0  0  0
    8.9743   14.2126   23.4947 C   0  0  0  0  0  0  0  0  0  0  0  0
    5.8661   12.4417   20.2105 C   0  0  0  0  0  0  0  0  0  0  0  0
    5.9037   13.0234   21.6216 C   0  0  0  0  0  0  0  0  0  0  0  0
   -0.4069   11.3982   18.5877 N   0  0  0  0  0  0  0  0  0  0  0  0
    7.2408   13.3796   22.0392 N   0  0  0  0  0  0  0  0  0  0  0  0
    6.7196   14.1756   24.1645 O   0  0  0  0  0  0  0  0  0  0  0  0
   -0.0462   12.2995   20.9758 O   0  0  0  0  0  0  0  0  0  0  0  0
    0.1957   13.8658   19.0173 O   0  0  0  0  0  0  0  0  0  0  0  0
    3.1434   13.0120   20.3247 S   0  0  0  0  0  0  0  0  0  0  0  0
    0.3506   12.5442   19.6000 S   0  0  0  0  0  0  0  0  0  0  0  0
    4.7608   10.3934   18.4321 H   0  0  0  0  0  0  0  0  0  0  0  0
    2.1358   10.3666   18.0807 H   0  0  0  0  0  0  0  0  0  0  0  0
    9.2540   15.2289   23.1738 H   0  0  0  0  0  0  0  0  0  0  0  0
    9.2591   14.1542   24.5575 H   0  0  0  0  0  0  0  0  0  0  0  0
    9.6725   13.5407   22.9705 H   0  0  0  0  0  0  0  0  0  0  0  0
    6.2897   13.1695   19.5069 H   0  0  0  0  0  0  0  0  0  0  0  0
    6.5092   11.5544   20.1505 H   0  0  0  0  0  0  0  0  0  0  0  0
    5.3055   13.9392   21.6635 H   0  0  0  0  0  0  0  0  0  0  0  0
    5.5036   12.3202   22.3593 H   0  0  0  0  0  0  0  0  0  0  0  0
   -0.2779   11.4946   17.5730 H   0  0  0  0  0  0  0  0  0  0  0  0
   -0.4456   10.4237   18.9105 H   0  0  0  0  0  0  0  0  0  0  0  0
    8.0075   13.2217   21.3922 H   0  0  0  0  0  0  0  0  0  0  0  0
  1  2  1  0  0  0  0
  1  3  2  0  0  0  0
  2  4  2  0  0  0  0
  3  7  1  0  0  0  0
  3 14  1  0  0  0  0
  4 14  1  0  0  0  0
  4 15  1  0  0  0  0
  5  6  1  0  0  0  0
  5 10  1  0  0  0  0
  5 11  2  0  0  0  0
  7  8  1  0  0  0  0
  8 10  1  0  0  0  0
  9 15  1  0  0  0  0
 12 15  2  0  0  0  0
 13 15  2  0  0  0  0
  1 16  1  0  0  0  0
  2 17  1  0  0  0  0
  6 18  1  0  0  0  0
  6 19  1  0  0  0  0
  6 20  1  0  0  0  0
  7 21  1  0  0  0  0
  7 22  1  0  0  0  0
  8 23  1  0  0  0  0
  8 24  1  0  0  0  0
  9 25  1  0  0  0  0
  9 26  1  0  0  0  0
 10 27  1  0  0  0  0
M  END
> <Mol Weight>
248,32

> <Formula>
C8H12N2O3S2

> <ID>
EN300-59802

> <name>
Sulfonamides

> <LogP>
-0,11

> <ROCS_ShapeQuery>
x0310_0A_x0719_0A_x1080_0A_x0739_0A_x0929_0A_x0526_0A_x0911_0A

> <ROCS_TanimotoCombo>
0.307 

> <ROCS_ShapeTanimoto>
0.184 

> <ROCS_ColorTanimoto>
0.123 

> <ROCS_RefTversky>
0.174 

> <ROCS_RefColorTversky>
0.137 

> <ROCS_RefTverskyCombo>
0.311 

> <ROCS_FitTversky>
1.410 

> <ROCS_FitColorTversky>
0.552 

> <ROCS_FitTverskyCombo>
1.962 

> <ROCS_ColorScore>
-3.985

> <ROCS_Overlap>
1395.455

> <ROCS_Rank>
325                 

$$$$
untitled-dbase-903_32
  -OEChem-02092407103D

 24 24  0     0  0  0  0  0  0999 V2000
   10.1734   11.6318   23.7246 C   0  0  0  0  0  0  0  0  0  0  0  0
    9.6411   10.4806   24.3051 C   0  0  0  0  0  0  0  0  0  0  0  0
    9.3446   12.5045   23.0194 C   0  0  0  0  0  0  0  0  0  0  0  0
    7.4512   11.0746   23.4751 C   0  0  0  0  0  0  0  0  0  0  0  0
    8.2800   10.2020   24.1804 C   0  0  0  0  0  0  0  0  0  0  0  0
    7.9835   12.2259   22.8946 C   0  0  0  0  0  0  0  0  0  0  0  0
    7.7114    8.9717   24.8027 C   0  0  0  0  0  0  0  0  0  0  0  0
    7.0976   13.1587   22.1399 C   0  0  0  0  0  0  0  0  0  0  0  0
    5.7072   15.4123   22.3389 N   0  0  0  0  0  0  0  0  0  0  0  0
    6.9857   14.5033   24.3775 O   0  0  0  0  0  0  0  0  0  0  0  0
    8.2771   15.4718   22.4334 O   0  0  0  0  0  0  0  0  0  0  0  0
    7.1316    8.1559   23.7920 O   0  0  0  0  0  0  0  0  0  0  0  0
    7.1429   14.7247   22.9500 S   0  0  0  0  0  0  0  0  0  0  0  0
   11.2332   11.8487   23.8219 H   0  0  0  0  0  0  0  0  0  0  0  0
   10.2944    9.8068   24.8532 H   0  0  0  0  0  0  0  0  0  0  0  0
    9.7681   13.3987   22.5697 H   0  0  0  0  0  0  0  0  0  0  0  0
    6.3899   10.8585   23.3784 H   0  0  0  0  0  0  0  0  0  0  0  0
    8.4858    8.3903   25.3216 H   0  0  0  0  0  0  0  0  0  0  0  0
    6.9376    9.2219   25.5413 H   0  0  0  0  0  0  0  0  0  0  0  0
    6.0558   12.8190   22.1209 H   0  0  0  0  0  0  0  0  0  0  0  0
    7.4312   13.3043   21.1062 H   0  0  0  0  0  0  0  0  0  0  0  0
    5.6935   15.6902   21.3499 H   0  0  0  0  0  0  0  0  0  0  0  0
    4.8141   15.0307   22.6741 H   0  0  0  0  0  0  0  0  0  0  0  0
    6.7756    7.3705   24.2375 H   0  0  0  0  0  0  0  0  0  0  0  0
  1  2  1  0  0  0  0
  1  3  2  0  0  0  0
  2  5  2  0  0  0  0
  3  6  1  0  0  0  0
  4  5  1  0  0  0  0
  4  6  2  0  0  0  0
  5  7  1  0  0  0  0
  6  8  1  0  0  0  0
  7 12  1  0  0  0  0
  8 13  1  0  0  0  0
  9 13  1  0  0  0  0
 10 13  2  0  0  0  0
 11 13  2  0  0  0  0
  1 14  1  0  0  0  0
  2 15  1  0  0  0  0
  3 16  1  0  0  0  0
  4 17  1  0  0  0  0
  7 18  1  0  0  0  0
  7 19  1  0  0  0  0
  8 20  1  0  0  0  0
  8 21  1  0  0  0  0
  9 22  1  0  0  0  0
  9 23  1  0  0  0  0
 12 24  1  0  0  0  0
M  END
> <Mol Weight>
201,24

> <Formula>
C8H11NO3S

> <ID>
EN300-197540

> <name>
Sulfonamides

> <LogP>
-0,43

> <ROCS_ShapeQuery>
x0310_0A_x0719_0A_x1080_0A_x0739_0A_x0929_0A_x0526_0A_x0911_0A

> <ROCS_TanimotoCombo>
0.307 

> <ROCS_ShapeTanimoto>
0.153 

> <ROCS_ColorTanimoto>
0.154 

> <ROCS_RefTversky>
0.148 

> <ROCS_RefColorTversky>
0.167 

> <ROCS_RefTverskyCombo>
0.315 

> <ROCS_FitTversky>
1.276 

> <ROCS_FitColorTversky>
0.671 

> <ROCS_FitTverskyCombo>
1.947 

> <ROCS_ColorScore>
-4.839

> <ROCS_Overlap>
1184.874

> <ROCS_Rank>
326                 

$$$$
untitled-dbase-2351_1
  -OEChem-02092407103D

 23 23  0     0  0  0  0  0  0999 V2000
    7.6423   11.7266   24.1268 C   0  0  0  0  0  0  0  0  0  0  0  0
    8.4927   10.8882   24.8474 C   0  0  0  0  0  0  0  0  0  0  0  0
   10.0879   10.9476   23.0338 C   0  0  0  0  0  0  0  0  0  0  0  0
    8.0145   12.1755   22.8597 C   0  0  0  0  0  0  0  0  0  0  0  0
    9.2374   11.7860   22.3132 C   0  0  0  0  0  0  0  0  0  0  0  0
    9.7156   10.4987   24.3010 C   0  0  0  0  0  0  0  0  0  0  0  0
    7.0868   13.0716   22.1069 C   0  0  0  0  0  0  0  0  0  0  0  0
    9.6568   12.2522   20.9577 C   0  0  0  0  0  0  0  0  0  0  0  0
    6.0473   15.5024   21.8585 N   0  0  0  0  0  0  0  0  0  0  0  0
    6.5959   14.5683   24.1916 O   0  0  0  0  0  0  0  0  0  0  0  0
    8.4815   15.2162   22.6391 O   0  0  0  0  0  0  0  0  0  0  0  0
   10.5327    9.6941   24.9931 F   0  0  0  0  0  0  0  0  0  0  0  0
   10.8777   11.7790   20.5718 F   0  0  0  0  0  0  0  0  0  0  0  0
    8.7982   11.8799   19.9639 F   0  0  0  0  0  0  0  0  0  0  0  0
    9.7465   13.6109   20.8766 F   0  0  0  0  0  0  0  0  0  0  0  0
    7.1528   14.6677   22.8529 S   0  0  0  0  0  0  0  0  0  0  0  0
    6.6908   12.0236   24.5605 H   0  0  0  0  0  0  0  0  0  0  0  0
    8.2017   10.5379   25.8331 H   0  0  0  0  0  0  0  0  0  0  0  0
   11.0424   10.6376   22.6169 H   0  0  0  0  0  0  0  0  0  0  0  0
    6.0498   12.7219   22.1473 H   0  0  0  0  0  0  0  0  0  0  0  0
    7.3756   13.1774   21.0557 H   0  0  0  0  0  0  0  0  0  0  0  0
    5.1399   15.7613   22.2651 H   0  0  0  0  0  0  0  0  0  0  0  0
    6.4241   16.2023   21.2076 H   0  0  0  0  0  0  0  0  0  0  0  0
  1  2  2  0  0  0  0
  1  4  1  0  0  0  0
  2  6  1  0  0  0  0
  3  5  1  0  0  0  0
  3  6  2  0  0  0  0
  4  5  2  0  0  0  0
  4  7  1  0  0  0  0
  5  8  1  0  0  0  0
  6 12  1  0  0  0  0
  7 16  1  0  0  0  0
  8 13  1  0  0  0  0
  8 14  1  0  0  0  0
  8 15  1  0  0  0  0
  9 16  1  0  0  0  0
 10 16  2  0  0  0  0
 11 16  2  0  0  0  0
  1 17  1  0  0  0  0
  2 18  1  0  0  0  0
  3 19  1  0  0  0  0
  7 20  1  0  0  0  0
  7 21  1  0  0  0  0
  9 22  1  0  0  0  0
  9 23  1  0  0  0  0
M  END
> <Mol Weight>
257,20

> <Formula>
C8H7F4NO2S

> <ID>
EN300-281355

> <name>
Sulfonamides

> <LogP>
1,36

> <ROCS_ShapeQuery>
x0310_0A_x0719_0A_x1080_0A_x0739_0A_x0929_0A_x0526_0A_x0911_0A

> <ROCS_TanimotoCombo>
0.306 

> <ROCS_ShapeTanimoto>
0.154 

> <ROCS_ColorTanimoto>
0.152 

> <ROCS_RefTversky>
0.152 

> <ROCS_RefColorTversky>
0.156 

> <ROCS_RefTverskyCombo>
0.308 

> <ROCS_FitTversky>
1.128 

> <ROCS_FitColorTversky>
0.849 

> <ROCS_FitTverskyCombo>
1.977 

> <ROCS_ColorScore>
-4.514

> <ROCS_Overlap>
1216.670

> <ROCS_Rank>
327                 

$$$$
untitled-dbase-2568_15
  -OEChem-02092407103D

 29 30  0     1  0  0  0  0  0999 V2000
    5.9847   11.4172   20.4130 C   0  0  0  0  0  0  0  0  0  0  0  0
    6.6399   12.3049   21.2641 C   0  0  0  0  0  0  0  0  0  0  0  0
    4.7822   13.7958   21.0504 C   0  0  0  0  0  0  0  0  0  0  0  0
    4.0878   12.9043   20.1930 C   0  0  0  0  0  0  0  0  0  0  0  0
    4.7110   11.6946   19.8518 C   0  0  0  0  0  0  0  0  0  0  0  0
    6.0368   13.5051   21.5810 C   0  0  0  0  0  0  0  0  0  0  0  0
    1.7632   12.9291   19.0987 C   0  0  0  0  0  0  0  0  0  0  0  0
    1.7203   11.5121   18.6143 C   0  0  0  0  0  0  0  0  0  0  0  0
    2.8835   11.0836   17.7455 C   0  0  1  0  0  0  0  0  0  0  0  0
    3.4054   12.1190   16.7548 C   0  0  0  0  0  0  0  0  0  0  0  0
    2.8277   13.4118   19.7999 N   0  0  0  0  0  0  0  0  0  0  0  0
    5.6865   15.9082   22.6787 N   0  0  0  0  0  0  0  0  0  0  0  0
    0.7803   13.6549   18.8970 O   0  0  0  0  0  0  0  0  0  0  0  0
    6.9502   14.0583   23.9539 O   0  0  0  0  0  0  0  0  0  0  0  0
    8.0338   15.1355   21.9506 O   0  0  0  0  0  0  0  0  0  0  0  0
    4.1822   10.3704   18.7809 S   0  0  0  0  0  0  0  0  0  0  0  0
    6.8390   14.6475   22.6263 S   0  0  0  0  0  0  0  0  0  0  0  0
    6.4920   10.4750   20.1967 H   0  0  0  0  0  0  0  0  0  0  0  0
    7.6116   12.0404   21.6709 H   0  0  0  0  0  0  0  0  0  0  0  0
    4.3328   14.7571   21.3048 H   0  0  0  0  0  0  0  0  0  0  0  0
    1.7007   10.8822   19.5328 H   0  0  0  0  0  0  0  0  0  0  0  0
    0.7214   11.3327   18.1524 H   0  0  0  0  0  0  0  0  0  0  0  0
    2.4972   10.1991   17.0585 H   0  0  0  0  0  0  0  0  0  0  0  0
    3.7882   12.9841   17.2933 H   0  0  0  0  0  0  0  0  0  0  0  0
    2.5997   12.4368   16.0954 H   0  0  0  0  0  0  0  0  0  0  0  0
    4.2063   11.6867   16.1577 H   0  0  0  0  0  0  0  0  0  0  0  0
    2.6802   14.3686   20.1171 H   0  0  0  0  0  0  0  0  0  0  0  0
    5.1628   16.0469   23.5516 H   0  0  0  0  0  0  0  0  0  0  0  0
    5.9032   16.7807   22.1816 H   0  0  0  0  0  0  0  0  0  0  0  0
  1  2  2  0  0  0  0
  1  5  1  0  0  0  0
  2  6  1  0  0  0  0
  3  4  1  0  0  0  0
  3  6  2  0  0  0  0
  4  5  2  0  0  0  0
  4 11  1  0  0  0  0
  5 16  1  0  0  0  0
  6 17  1  0  0  0  0
  7  8  1  0  0  0  0
  7 11  1  0  0  0  0
  7 13  2  0  0  0  0
  8  9  1  0  0  0  0
  9 10  1  0  0  0  0
  9 16  1  0  0  0  0
 12 17  1  0  0  0  0
 14 17  2  0  0  0  0
 15 17  2  0  0  0  0
  1 18  1  0  0  0  0
  2 19  1  0  0  0  0
  3 20  1  0  0  0  0
  8 21  1  0  0  0  0
  8 22  1  0  0  0  0
  9 23  1  0  0  0  0
 10 24  1  0  0  0  0
 10 25  1  0  0  0  0
 10 26  1  0  0  0  0
 11 27  1  0  0  0  0
 12 28  1  0  0  0  0
 12 29  1  0  0  0  0
M  END
> <Mol Weight>
272,34

> <Formula>
C10H12N2O3S2

> <ID>
EN300-26621714

> <name>
Sulfonamides

> <LogP>
0,59

> <ROCS_ShapeQuery>
x0310_0A_x0719_0A_x1080_0A_x0739_0A_x0929_0A_x0526_0A_x0911_0A

> <ROCS_TanimotoCombo>
0.306 

> <ROCS_ShapeTanimoto>
0.178 

> <ROCS_ColorTanimoto>
0.128 

> <ROCS_RefTversky>
0.172 

> <ROCS_RefColorTversky>
0.146 

> <ROCS_RefTverskyCombo>
0.317 

> <ROCS_FitTversky>
1.253 

> <ROCS_FitColorTversky>
0.519 

> <ROCS_FitTverskyCombo>
1.772 

> <ROCS_ColorScore>
-4.239

> <ROCS_Overlap>
1375.489

> <ROCS_Rank>
328                 

$$$$
untitled-dbase-2763_9
  -OEChem-02092407103D

 25 26  0     1  0  0  0  0  0999 V2000
    7.3696   11.3094   25.6808 C   0  0  0  0  0  0  0  0  0  0  0  0
    7.1748   12.5687   26.2416 C   0  0  0  0  0  0  0  0  0  0  0  0
    8.4922   13.5517   24.4710 C   0  0  0  0  0  0  0  0  0  0  0  0
    8.6670   12.2960   23.8666 C   0  0  0  0  0  0  0  0  0  0  0  0
    8.1324   11.1708   24.5167 C   0  0  0  0  0  0  0  0  0  0  0  0
    7.7456   13.6880   25.6437 C   0  0  0  0  0  0  0  0  0  0  0  0
    9.3693   10.7087   22.0513 C   0  0  0  0  0  0  0  0  0  0  0  0
    9.4274    9.7198   23.1992 C   0  0  0  0  0  0  0  0  0  0  0  0
    9.4651   12.1326   22.5957 C   0  0  1  0  0  0  0  0  0  0  0  0
    9.6523   14.6879   21.8954 N   0  0  0  0  0  0  0  0  0  0  0  0
    9.4169   12.8718   20.0891 O   0  0  0  0  0  0  0  0  0  0  0  0
    7.4387   13.4205   21.5626 O   0  0  0  0  0  0  0  0  0  0  0  0
    8.3034    9.8841   24.0683 O   0  0  0  0  0  0  0  0  0  0  0  0
    8.8686   13.2685   21.3721 S   0  0  0  0  0  0  0  0  0  0  0  0
    7.5189   15.3953   26.4229 Br  0  0  0  0  0  0  0  0  0  0  0  0
    6.9248   10.4382   26.1535 H   0  0  0  0  0  0  0  0  0  0  0  0
    6.5804   12.6600   27.1462 H   0  0  0  0  0  0  0  0  0  0  0  0
    8.9513   14.4293   24.0160 H   0  0  0  0  0  0  0  0  0  0  0  0
   10.2250   10.5307   21.3912 H   0  0  0  0  0  0  0  0  0  0  0  0
    8.4573   10.5700   21.4662 H   0  0  0  0  0  0  0  0  0  0  0  0
    9.4641    8.6866   22.8565 H   0  0  0  0  0  0  0  0  0  0  0  0
   10.3213    9.9040   23.7937 H   0  0  0  0  0  0  0  0  0  0  0  0
   10.5233   12.3783   22.7539 H   0  0  0  0  0  0  0  0  0  0  0  0
   10.4240   15.0491   21.3212 H   0  0  0  0  0  0  0  0  0  0  0  0
    9.0767   15.4227   22.3248 H   0  0  0  0  0  0  0  0  0  0  0  0
  1  2  2  0  0  0  0
  1  5  1  0  0  0  0
  2  6  1  0  0  0  0
  3  4  1  0  0  0  0
  3  6  2  0  0  0  0
  4  5  2  0  0  0  0
  4  9  1  0  0  0  0
  5 13  1  0  0  0  0
  6 15  1  0  0  0  0
  7  8  1  0  0  0  0
  7  9  1  0  0  0  0
  8 13  1  0  0  0  0
  9 14  1  0  0  0  0
 10 14  1  0  0  0  0
 11 14  2  0  0  0  0
 12 14  2  0  0  0  0
  1 16  1  0  0  0  0
  2 17  1  0  0  0  0
  3 18  1  0  0  0  0
  7 19  1  0  0  0  0
  7 20  1  0  0  0  0
  8 21  1  0  0  0  0
  8 22  1  0  0  0  0
  9 23  1  0  0  0  0
 10 24  1  0  0  0  0
 10 25  1  0  0  0  0
M  END
> <Mol Weight>
292,15

> <Formula>
C9H10BrNO3S

> <ID>
EN300-679689

> <name>
Sulfonamides

> <LogP>
1,05

> <ROCS_ShapeQuery>
x0310_0A_x0719_0A_x1080_0A_x0739_0A_x0929_0A_x0526_0A_x0911_0A

> <ROCS_TanimotoCombo>
0.306 

> <ROCS_ShapeTanimoto>
0.166 

> <ROCS_ColorTanimoto>
0.140 

> <ROCS_RefTversky>
0.160 

> <ROCS_RefColorTversky>
0.158 

> <ROCS_RefTverskyCombo>
0.318 

> <ROCS_FitTversky>
1.251 

> <ROCS_FitColorTversky>
0.562 

> <ROCS_FitTverskyCombo>
1.813 

> <ROCS_ColorScore>
-4.589

> <ROCS_Overlap>
1284.790

> <ROCS_Rank>
329                 

$$$$
untitled-dbase-2324_10
  -OEChem-02092407103D

 30 31  0     1  0  0  0  0  0999 V2000
    2.9615   12.0346   21.7993 C   0  0  0  0  0  0  0  0  0  0  0  0
    4.0124   12.7066   22.4270 C   0  0  0  0  0  0  0  0  0  0  0  0
    5.1762   12.9568   20.3059 C   0  0  0  0  0  0  0  0  0  0  0  0
    3.0288   11.8419   20.4290 C   0  0  0  0  0  0  0  0  0  0  0  0
    4.1244   12.2981   19.6903 C   0  0  0  0  0  0  0  0  0  0  0  0
    5.1123   13.1647   21.6853 C   0  0  0  0  0  0  0  0  0  0  0  0
    1.6963   12.7149   17.6712 C   0  0  0  0  0  0  0  0  0  0  0  0
    2.0437   11.1290   19.5551 C   0  0  0  0  0  0  0  0  0  0  0  0
    3.9904   11.9393   18.2426 C   0  0  0  0  0  0  0  0  0  0  0  0
    2.5157   11.5224   18.1478 C   0  0  2  0  0  0  0  0  0  0  0  0
    1.1337   14.9453   18.2123 C   0  0  0  0  0  0  0  0  0  0  0  0
    5.8804   15.6153   22.3988 N   0  0  0  0  0  0  0  0  0  0  0  0
    1.0111   12.7143   16.6575 O   0  0  0  0  0  0  0  0  0  0  0  0
    6.4214   13.5867   23.8947 O   0  0  0  0  0  0  0  0  0  0  0  0
    7.6242   13.8536   21.6970 O   0  0  0  0  0  0  0  0  0  0  0  0
    1.8529   13.7526   18.5416 O   0  0  0  0  0  0  0  0  0  0  0  0
    6.4166   13.9962   22.4976 S   0  0  0  0  0  0  0  0  0  0  0  0
    2.1166   11.6731   22.3755 H   0  0  0  0  0  0  0  0  0  0  0  0
    3.9712   12.8681   23.5014 H   0  0  0  0  0  0  0  0  0  0  0  0
    6.0271   13.2997   19.7260 H   0  0  0  0  0  0  0  0  0  0  0  0
    2.1384   10.0484   19.7080 H   0  0  0  0  0  0  0  0  0  0  0  0
    1.0168   11.4437   19.7651 H   0  0  0  0  0  0  0  0  0  0  0  0
    4.2386   12.7842   17.5922 H   0  0  0  0  0  0  0  0  0  0  0  0
    4.6478   11.0925   18.0171 H   0  0  0  0  0  0  0  0  0  0  0  0
    2.3534   10.7379   17.4241 H   0  0  0  0  0  0  0  0  0  0  0  0
    1.3274   15.7093   18.9692 H   0  0  0  0  0  0  0  0  0  0  0  0
    0.0640   14.7259   18.1662 H   0  0  0  0  0  0  0  0  0  0  0  0
    1.4718   15.3067   17.2382 H   0  0  0  0  0  0  0  0  0  0  0  0
    5.5543   16.0683   23.2613 H   0  0  0  0  0  0  0  0  0  0  0  0
    6.3752   16.2485   21.7589 H   0  0  0  0  0  0  0  0  0  0  0  0
  1  2  2  0  0  0  0
  1  4  1  0  0  0  0
  2  6  1  0  0  0  0
  3  5  1  0  0  0  0
  3  6  2  0  0  0  0
  4  5  2  0  0  0  0
  4  8  1  0  0  0  0
  5  9  1  0  0  0  0
  6 17  1  0  0  0  0
  7 10  1  0  0  0  0
  7 13  2  0  0  0  0
  7 16  1  0  0  0  0
  8 10  1  0  0  0  0
  9 10  1  0  0  0  0
 11 16  1  0  0  0  0
 12 17  1  0  0  0  0
 14 17  2  0  0  0  0
 15 17  2  0  0  0  0
  1 18  1  0  0  0  0
  2 19  1  0  0  0  0
  3 20  1  0  0  0  0
  8 21  1  0  0  0  0
  8 22  1  0  0  0  0
  9 23  1  0  0  0  0
  9 24  1  0  0  0  0
 10 25  1  0  0  0  0
 11 26  1  0  0  0  0
 11 27  1  0  0  0  0
 11 28  1  0  0  0  0
 12 29  1  0  0  0  0
 12 30  1  0  0  0  0
M  END
> <Mol Weight>
255,29

> <Formula>
C11H13NO4S

> <ID>
EN300-6512976

> <name>
Sulfonamides

> <LogP>
0,96

> <ROCS_ShapeQuery>
x0310_0A_x0719_0A_x1080_0A_x0739_0A_x0929_0A_x0526_0A_x0911_0A

> <ROCS_TanimotoCombo>
0.306 

> <ROCS_ShapeTanimoto>
0.170 

> <ROCS_ColorTanimoto>
0.136 

> <ROCS_RefTversky>
0.166 

> <ROCS_RefColorTversky>
0.149 

> <ROCS_RefTverskyCombo>
0.315 

> <ROCS_FitTversky>
1.187 

> <ROCS_FitColorTversky>
0.600 

> <ROCS_FitTverskyCombo>
1.787 

> <ROCS_ColorScore>
-4.337

> <ROCS_Overlap>
1329.093

> <ROCS_Rank>
330                 

$$$$
untitled-dbase-1070_0
  -OEChem-02092407103D

 19 19  0     0  0  0  0  0  0999 V2000
   10.2394   11.3034   23.9354 C   0  0  0  0  0  0  0  0  0  0  0  0
    7.5647   10.8341   23.6678 C   0  0  0  0  0  0  0  0  0  0  0  0
    9.3950   12.3505   23.5832 C   0  0  0  0  0  0  0  0  0  0  0  0
    8.0309   12.1197   23.4448 C   0  0  0  0  0  0  0  0  0  0  0  0
    9.6743   10.0544   24.1366 C   0  0  0  0  0  0  0  0  0  0  0  0
    9.9804   13.7065   23.3634 C   0  0  0  0  0  0  0  0  0  0  0  0
    8.3541    9.7918   24.0113 N   0  0  0  0  0  0  0  0  0  0  0  0
    5.4363   12.5277   22.9904 N   0  0  0  0  0  0  0  0  0  0  0  0
    6.8781   14.3639   24.0835 O   0  0  0  0  0  0  0  0  0  0  0  0
    7.2153   13.8188   21.6470 O   0  0  0  0  0  0  0  0  0  0  0  0
    6.9143   13.3854   23.0049 S   0  0  0  0  0  0  0  0  0  0  0  0
   10.6394    8.7038   24.5699 Cl  0  0  0  0  0  0  0  0  0  0  0  0
   11.3074   11.4624   24.0479 H   0  0  0  0  0  0  0  0  0  0  0  0
    6.5109   10.5911   23.5728 H   0  0  0  0  0  0  0  0  0  0  0  0
   10.2693   13.8300   22.3131 H   0  0  0  0  0  0  0  0  0  0  0  0
    9.2634   14.4950   23.6236 H   0  0  0  0  0  0  0  0  0  0  0  0
   10.8672   13.8621   23.9904 H   0  0  0  0  0  0  0  0  0  0  0  0
    4.7645   12.7117   23.7455 H   0  0  0  0  0  0  0  0  0  0  0  0
    4.9972   12.3386   22.0811 H   0  0  0  0  0  0  0  0  0  0  0  0
  1  3  1  0  0  0  0
  1  5  2  0  0  0  0
  2  4  1  0  0  0  0
  2  7  2  0  0  0  0
  3  4  2  0  0  0  0
  3  6  1  0  0  0  0
  4 11  1  0  0  0  0
  5  7  1  0  0  0  0
  5 12  1  0  0  0  0
  8 11  1  0  0  0  0
  9 11  2  0  0  0  0
 10 11  2  0  0  0  0
  1 13  1  0  0  0  0
  2 14  1  0  0  0  0
  6 15  1  0  0  0  0
  6 16  1  0  0  0  0
  6 17  1  0  0  0  0
  8 18  1  0  0  0  0
  8 19  1  0  0  0  0
M  END
> <Mol Weight>
206,64

> <Formula>
C6H7ClN2O2S

> <ID>
EN300-287345

> <name>
Sulfonamides

> <LogP>
0,70

> <ROCS_ShapeQuery>
x0310_0A_x0719_0A_x1080_0A_x0739_0A_x0929_0A_x0526_0A_x0911_0A

> <ROCS_TanimotoCombo>
0.306 

> <ROCS_ShapeTanimoto>
0.139 

> <ROCS_ColorTanimoto>
0.167 

> <ROCS_RefTversky>
0.136 

> <ROCS_RefColorTversky>
0.174 

> <ROCS_RefTverskyCombo>
0.310 

> <ROCS_FitTversky>
1.220 

> <ROCS_FitColorTversky>
0.805 

> <ROCS_FitTverskyCombo>
2.025 

> <ROCS_ColorScore>
-5.047

> <ROCS_Overlap>
1085.456

> <ROCS_Rank>
331                 

$$$$
untitled-dbase-1092_12
  -OEChem-02092407103D

 22 22  0     1  0  0  0  0  0999 V2000
    3.5421   12.0925   18.4508 C   0  0  0  0  0  0  0  0  0  0  0  0
    1.6897   13.2542   19.0635 C   0  0  0  0  0  0  0  0  0  0  0  0
    3.6453   12.2720   19.9583 C   0  0  1  0  0  0  0  0  0  0  0  0
    4.8871   13.0456   20.3501 C   0  0  0  0  0  0  0  0  0  0  0  0
    5.0077   13.1852   21.8604 C   0  0  0  0  0  0  0  0  0  0  0  0
    2.3843   12.6907   18.0172 N   0  0  0  0  0  0  0  0  0  0  0  0
    2.4342   13.0119   20.2187 N   0  0  0  0  0  0  0  0  0  0  0  0
    6.1071   15.5788   21.5246 N   0  0  0  0  0  0  0  0  0  0  0  0
    4.3682   11.5121   17.7604 O   0  0  0  0  0  0  0  0  0  0  0  0
    0.6229   13.8494   18.9992 O   0  0  0  0  0  0  0  0  0  0  0  0
    6.4098   14.3230   23.7490 O   0  0  0  0  0  0  0  0  0  0  0  0
    7.5969   13.4876   21.6806 O   0  0  0  0  0  0  0  0  0  0  0  0
    6.4439   14.1051   22.3130 S   0  0  0  0  0  0  0  0  0  0  0  0
    3.5785   11.3025   20.4598 H   0  0  0  0  0  0  0  0  0  0  0  0
    4.8624   14.0409   19.8871 H   0  0  0  0  0  0  0  0  0  0  0  0
    5.7770   12.5397   19.9528 H   0  0  0  0  0  0  0  0  0  0  0  0
    4.1465   13.7136   22.2801 H   0  0  0  0  0  0  0  0  0  0  0  0
    5.0912   12.2072   22.3439 H   0  0  0  0  0  0  0  0  0  0  0  0
    2.0804   12.7142   17.0506 H   0  0  0  0  0  0  0  0  0  0  0  0
    2.1536   13.3229   21.1435 H   0  0  0  0  0  0  0  0  0  0  0  0
    6.1638   15.5962   20.4988 H   0  0  0  0  0  0  0  0  0  0  0  0
    5.3555   16.1651   21.9077 H   0  0  0  0  0  0  0  0  0  0  0  0
  1  3  1  0  0  0  0
  1  6  1  0  0  0  0
  1  9  2  0  0  0  0
  2  6  1  0  0  0  0
  2  7  1  0  0  0  0
  2 10  2  0  0  0  0
  3  4  1  0  0  0  0
  3  7  1  0  0  0  0
  4  5  1  0  0  0  0
  5 13  1  0  0  0  0
  8 13  1  0  0  0  0
 11 13  2  0  0  0  0
 12 13  2  0  0  0  0
  3 14  1  0  0  0  0
  4 15  1  0  0  0  0
  4 16  1  0  0  0  0
  5 17  1  0  0  0  0
  5 18  1  0  0  0  0
  6 19  1  0  0  0  0
  7 20  1  0  0  0  0
  8 21  1  0  0  0  0
  8 22  1  0  0  0  0
M  END
> <Mol Weight>
207,20

> <Formula>
C5H9N3O4S

> <ID>
EN300-79584

> <name>
Sulfonamides

> <LogP>
-2,73

> <ROCS_ShapeQuery>
x0310_0A_x0719_0A_x1080_0A_x0739_0A_x0929_0A_x0526_0A_x0911_0A

> <ROCS_TanimotoCombo>
0.306 

> <ROCS_ShapeTanimoto>
0.155 

> <ROCS_ColorTanimoto>
0.151 

> <ROCS_RefTversky>
0.150 

> <ROCS_RefColorTversky>
0.172 

> <ROCS_RefTverskyCombo>
0.322 

> <ROCS_FitTversky>
1.279 

> <ROCS_FitColorTversky>
0.551 

> <ROCS_FitTverskyCombo>
1.830 

> <ROCS_ColorScore>
-5.026

> <ROCS_Overlap>
1198.931

> <ROCS_Rank>
332                 

$$$$
untitled-dbase-566_6
  -OEChem-02092407103D

 20 20  0     0  0  0  0  0  0999 V2000
   10.2337   11.3127   23.9456 C   0  0  0  0  0  0  0  0  0  0  0  0
    9.6746   10.0603   24.1428 C   0  0  0  0  0  0  0  0  0  0  0  0
    7.5629   10.8293   23.6657 C   0  0  0  0  0  0  0  0  0  0  0  0
    9.3853   12.3556   23.5909 C   0  0  0  0  0  0  0  0  0  0  0  0
    8.0230   12.1177   23.4463 C   0  0  0  0  0  0  0  0  0  0  0  0
    9.9771   14.4618   24.5233 C   0  0  0  0  0  0  0  0  0  0  0  0
    8.3564    9.7908   24.0116 N   0  0  0  0  0  0  0  0  0  0  0  0
    5.4307   12.5266   22.9797 N   0  0  0  0  0  0  0  0  0  0  0  0
    6.8670   14.3605   24.0840 O   0  0  0  0  0  0  0  0  0  0  0  0
    7.2165   13.8207   21.6480 O   0  0  0  0  0  0  0  0  0  0  0  0
    9.9067   13.5976   23.3906 O   0  0  0  0  0  0  0  0  0  0  0  0
    6.9091   13.3839   23.0037 S   0  0  0  0  0  0  0  0  0  0  0  0
   11.3002   11.4683   24.0656 H   0  0  0  0  0  0  0  0  0  0  0  0
   10.2934    9.2135   24.4208 H   0  0  0  0  0  0  0  0  0  0  0  0
    6.5105   10.5814   23.5681 H   0  0  0  0  0  0  0  0  0  0  0  0
   10.4120   15.4191   24.2257 H   0  0  0  0  0  0  0  0  0  0  0  0
   10.5897   13.9969   25.2999 H   0  0  0  0  0  0  0  0  0  0  0  0
    8.9679   14.6266   24.9080 H   0  0  0  0  0  0  0  0  0  0  0  0
    4.7551   12.7091   23.7318 H   0  0  0  0  0  0  0  0  0  0  0  0
    4.9963   12.3396   22.0678 H   0  0  0  0  0  0  0  0  0  0  0  0
  1  2  2  0  0  0  0
  1  4  1  0  0  0  0
  2  7  1  0  0  0  0
  3  5  1  0  0  0  0
  3  7  2  0  0  0  0
  4  5  2  0  0  0  0
  4 11  1  0  0  0  0
  5 12  1  0  0  0  0
  6 11  1  0  0  0  0
  8 12  1  0  0  0  0
  9 12  2  0  0  0  0
 10 12  2  0  0  0  0
  1 13  1  0  0  0  0
  2 14  1  0  0  0  0
  3 15  1  0  0  0  0
  6 16  1  0  0  0  0
  6 17  1  0  0  0  0
  6 18  1  0  0  0  0
  8 19  1  0  0  0  0
  8 20  1  0  0  0  0
M  END
> <Mol Weight>
188,20

> <Formula>
C6H8N2O3S

> <ID>
EN300-6279544

> <name>
Sulfonamides

> <LogP>
-0,80

> <ROCS_ShapeQuery>
x0310_0A_x0719_0A_x1080_0A_x0739_0A_x0929_0A_x0526_0A_x0911_0A

> <ROCS_TanimotoCombo>
0.306 

> <ROCS_ShapeTanimoto>
0.144 

> <ROCS_ColorTanimoto>
0.162 

> <ROCS_RefTversky>
0.140 

> <ROCS_RefColorTversky>
0.174 

> <ROCS_RefTverskyCombo>
0.314 

> <ROCS_FitTversky>
1.244 

> <ROCS_FitColorTversky>
0.700 

> <ROCS_FitTverskyCombo>
1.944 

> <ROCS_ColorScore>
-5.053

> <ROCS_Overlap>
1121.389

> <ROCS_Rank>
333                 

$$$$
untitled-dbase-1731_0
  -OEChem-02092407103D

 30 31  0     0  0  0  0  0  0999 V2000
    9.7825   11.7736   23.7367 C   0  0  0  0  0  0  0  0  0  0  0  0
    9.6580   10.4031   24.0333 C   0  0  0  0  0  0  0  0  0  0  0  0
    8.4982   12.1875   23.4804 C   0  0  0  0  0  0  0  0  0  0  0  0
    4.7992    9.2729   24.3750 C   0  0  0  0  0  0  0  0  0  0  0  0
    4.5436    9.4035   22.8833 C   0  0  0  0  0  0  0  0  0  0  0  0
    5.5009   10.5765   24.7392 C   0  0  0  0  0  0  0  0  0  0  0  0
    5.8301   10.0266   22.3621 C   0  0  0  0  0  0  0  0  0  0  0  0
    6.2640   11.0023   23.4692 C   0  0  0  0  0  0  0  0  0  0  0  0
   10.7335    9.4602   24.3836 C   0  0  0  0  0  0  0  0  0  0  0  0
    8.3944    9.9749   23.9716 N   0  0  0  0  0  0  0  0  0  0  0  0
    7.7131   11.0829   23.6334 N   0  0  0  0  0  0  0  0  0  0  0  0
    9.2710   14.6941   23.0065 N   0  0  0  0  0  0  0  0  0  0  0  0
    7.3090   13.6589   21.6932 O   0  0  0  0  0  0  0  0  0  0  0  0
    7.0023   14.2183   24.1305 O   0  0  0  0  0  0  0  0  0  0  0  0
    7.8413   13.7657   23.0378 S   0  0  0  0  0  0  0  0  0  0  0  0
   10.6777   12.3782   23.7118 H   0  0  0  0  0  0  0  0  0  0  0  0
    3.8776    9.1245   24.9450 H   0  0  0  0  0  0  0  0  0  0  0  0
    5.4636    8.4227   24.5708 H   0  0  0  0  0  0  0  0  0  0  0  0
    4.3278    8.4413   22.4104 H   0  0  0  0  0  0  0  0  0  0  0  0
    3.6953   10.0736   22.6996 H   0  0  0  0  0  0  0  0  0  0  0  0
    4.7467   11.3374   24.9749 H   0  0  0  0  0  0  0  0  0  0  0  0
    6.1387   10.4590   25.6214 H   0  0  0  0  0  0  0  0  0  0  0  0
    6.5831    9.2450   22.1999 H   0  0  0  0  0  0  0  0  0  0  0  0
    5.6744   10.5387   21.4071 H   0  0  0  0  0  0  0  0  0  0  0  0
    5.9585   12.0458   23.1927 H   0  0  0  0  0  0  0  0  0  0  0  0
   10.9008    9.4302   25.4740 H   0  0  0  0  0  0  0  0  0  0  0  0
   10.5092    8.4300   24.0536 H   0  0  0  0  0  0  0  0  0  0  0  0
   11.6940    9.7270   23.9073 H   0  0  0  0  0  0  0  0  0  0  0  0
    9.7223   14.9083   23.9042 H   0  0  0  0  0  0  0  0  0  0  0  0
    9.9325   14.5286   22.2382 H   0  0  0  0  0  0  0  0  0  0  0  0
  1  2  1  0  0  0  0
  1  3  2  0  0  0  0
  2  9  1  0  0  0  0
  2 10  2  0  0  0  0
  3 11  1  0  0  0  0
  3 15  1  0  0  0  0
  4  5  1  0  0  0  0
  4  6  1  0  0  0  0
  5  7  1  0  0  0  0
  6  8  1  0  0  0  0
  7  8  1  0  0  0  0
  8 11  1  0  0  0  0
 10 11  1  0  0  0  0
 12 15  1  0  0  0  0
 13 15  2  0  0  0  0
 14 15  2  0  0  0  0
  1 16  1  0  0  0  0
  4 17  1  0  0  0  0
  4 18  1  0  0  0  0
  5 19  1  0  0  0  0
  5 20  1  0  0  0  0
  6 21  1  0  0  0  0
  6 22  1  0  0  0  0
  7 23  1  0  0  0  0
  7 24  1  0  0  0  0
  8 25  1  0  0  0  0
  9 26  1  0  0  0  0
  9 27  1  0  0  0  0
  9 28  1  0  0  0  0
 12 29  1  0  0  0  0
 12 30  1  0  0  0  0
M  END
> <Mol Weight>
229,30

> <Formula>
C9H15N3O2S

> <ID>
EN300-9196113

> <name>
Sulfonamides

> <LogP>
0,58

> <ROCS_ShapeQuery>
x0310_0A_x0719_0A_x1080_0A_x0739_0A_x0929_0A_x0526_0A_x0911_0A

> <ROCS_TanimotoCombo>
0.306 

> <ROCS_ShapeTanimoto>
0.141 

> <ROCS_ColorTanimoto>
0.165 

> <ROCS_RefTversky>
0.139 

> <ROCS_RefColorTversky>
0.177 

> <ROCS_RefTverskyCombo>
0.316 

> <ROCS_FitTversky>
1.081 

> <ROCS_FitColorTversky>
0.712 

> <ROCS_FitTverskyCombo>
1.794 

> <ROCS_ColorScore>
-5.141

> <ROCS_Overlap>
1115.671

> <ROCS_Rank>
334                 

$$$$
untitled-dbase-1914_9353
  -OEChem-02092407103D

 34 33  0     0  0  0  0  0  0999 V2000
    7.6059   13.2951   23.2030 C   0  0  0  0  0  0  0  0  0  0  0  0
    8.4430   10.3027   23.6653 C   0  0  0  0  0  0  0  0  0  0  0  0
    6.5591   13.5933   22.1583 C   0  0  0  0  0  0  0  0  0  0  0  0
    5.8251   12.3392   21.6930 C   0  0  0  0  0  0  0  0  0  0  0  0
    4.7751   12.6398   20.6195 C   0  0  0  0  0  0  0  0  0  0  0  0
    4.0355   11.3685   20.1951 C   0  0  0  0  0  0  0  0  0  0  0  0
    2.9651   11.6752   19.1442 C   0  0  0  0  0  0  0  0  0  0  0  0
    9.2091   11.6073   23.6130 C   0  0  0  0  0  0  0  0  0  0  0  0
    1.9119   12.6570   19.6383 C   0  0  0  0  0  0  0  0  0  0  0  0
   -0.3128   11.5948   18.6514 N   0  0  0  0  0  0  0  0  0  0  0  0
    7.5684   13.7306   24.3465 O   0  0  0  0  0  0  0  0  0  0  0  0
   -0.0927   14.1481   18.8729 O   0  0  0  0  0  0  0  0  0  0  0  0
    1.2644   12.9326   17.1218 O   0  0  0  0  0  0  0  0  0  0  0  0
    8.5710   12.4856   22.6806 O   0  0  0  0  0  0  0  0  0  0  0  0
    0.6577   12.9810   18.4412 S   0  0  0  0  0  0  0  0  0  0  0  0
    7.4123   10.4683   23.9911 H   0  0  0  0  0  0  0  0  0  0  0  0
    8.4300    9.8230   22.6811 H   0  0  0  0  0  0  0  0  0  0  0  0
    8.9231    9.6008   24.3552 H   0  0  0  0  0  0  0  0  0  0  0  0
    7.0442   14.0956   21.3134 H   0  0  0  0  0  0  0  0  0  0  0  0
    5.8517   14.3151   22.5831 H   0  0  0  0  0  0  0  0  0  0  0  0
    5.3314   11.8841   22.5602 H   0  0  0  0  0  0  0  0  0  0  0  0
    6.5408   11.6021   21.3093 H   0  0  0  0  0  0  0  0  0  0  0  0
    5.2555   13.0896   19.7427 H   0  0  0  0  0  0  0  0  0  0  0  0
    4.0547   13.3713   21.0053 H   0  0  0  0  0  0  0  0  0  0  0  0
    4.7532   10.6457   19.7885 H   0  0  0  0  0  0  0  0  0  0  0  0
    3.5760   10.9086   21.0771 H   0  0  0  0  0  0  0  0  0  0  0  0
    2.4614   10.7404   18.8692 H   0  0  0  0  0  0  0  0  0  0  0  0
    3.4411   12.0623   18.2351 H   0  0  0  0  0  0  0  0  0  0  0  0
   10.2390   11.4347   23.2865 H   0  0  0  0  0  0  0  0  0  0  0  0
    9.2205   12.0857   24.5969 H   0  0  0  0  0  0  0  0  0  0  0  0
    2.3526   13.6177   19.9202 H   0  0  0  0  0  0  0  0  0  0  0  0
    1.3965   12.2441   20.5112 H   0  0  0  0  0  0  0  0  0  0  0  0
    0.0606   10.6956   18.3233 H   0  0  0  0  0  0  0  0  0  0  0  0
   -0.8637   11.5237   19.5157 H   0  0  0  0  0  0  0  0  0  0  0  0
  1  3  1  0  0  0  0
  1 11  2  0  0  0  0
  1 14  1  0  0  0  0
  2  8  1  0  0  0  0
  3  4  1  0  0  0  0
  4  5  1  0  0  0  0
  5  6  1  0  0  0  0
  6  7  1  0  0  0  0
  7  9  1  0  0  0  0
  8 14  1  0  0  0  0
  9 15  1  0  0  0  0
 10 15  1  0  0  0  0
 12 15  2  0  0  0  0
 13 15  2  0  0  0  0
  2 16  1  0  0  0  0
  2 17  1  0  0  0  0
  2 18  1  0  0  0  0
  3 19  1  0  0  0  0
  3 20  1  0  0  0  0
  4 21  1  0  0  0  0
  4 22  1  0  0  0  0
  5 23  1  0  0  0  0
  5 24  1  0  0  0  0
  6 25  1  0  0  0  0
  6 26  1  0  0  0  0
  7 27  1  0  0  0  0
  7 28  1  0  0  0  0
  8 29  1  0  0  0  0
  8 30  1  0  0  0  0
  9 31  1  0  0  0  0
  9 32  1  0  0  0  0
 10 33  1  0  0  0  0
 10 34  1  0  0  0  0
M  END
> <Mol Weight>
237,31

> <Formula>
C9H19NO4S

> <ID>
EN300-45198807

> <name>
Sulfonamides

> <LogP>
0,46

> <ROCS_ShapeQuery>
x0310_0A_x0719_0A_x1080_0A_x0739_0A_x0929_0A_x0526_0A_x0911_0A

> <ROCS_TanimotoCombo>
0.306 

> <ROCS_ShapeTanimoto>
0.215 

> <ROCS_ColorTanimoto>
0.091 

> <ROCS_RefTversky>
0.198 

> <ROCS_RefColorTversky>
0.101 

> <ROCS_RefTverskyCombo>
0.300 

> <ROCS_FitTversky>
1.644 

> <ROCS_FitColorTversky>
0.470 

> <ROCS_FitTverskyCombo>
2.114 

> <ROCS_ColorScore>
-2.944

> <ROCS_Overlap>
1586.195

> <ROCS_Rank>
335                 

$$$$
untitled-dbase-2237_13
  -OEChem-02092407103D

 19 19  0     0  0  0  0  0  0999 V2000
   10.1032   11.3291   23.0296 C   0  0  0  0  0  0  0  0  0  0  0  0
    9.1054   12.1679   22.5457 C   0  0  0  0  0  0  0  0  0  0  0  0
    9.7294   10.2979   23.8762 C   0  0  0  0  0  0  0  0  0  0  0  0
    7.7831   11.9529   22.9179 C   0  0  0  0  0  0  0  0  0  0  0  0
    7.5132   10.8935   23.7692 C   0  0  0  0  0  0  0  0  0  0  0  0
    6.7273   12.8627   22.3883 C   0  0  0  0  0  0  0  0  0  0  0  0
    8.4556   10.0576   24.2598 N   0  0  0  0  0  0  0  0  0  0  0  0
    6.1833   15.3985   21.8184 N   0  0  0  0  0  0  0  0  0  0  0  0
    6.4959   14.6665   24.2644 O   0  0  0  0  0  0  0  0  0  0  0  0
    8.5007   14.7514   22.7284 O   0  0  0  0  0  0  0  0  0  0  0  0
    7.0872   14.4962   22.9481 S   0  0  0  0  0  0  0  0  0  0  0  0
    5.7234   10.5392   24.3210 Br  0  0  0  0  0  0  0  0  0  0  0  0
   11.1407   11.4781   22.7534 H   0  0  0  0  0  0  0  0  0  0  0  0
    9.3690   12.9854   21.8801 H   0  0  0  0  0  0  0  0  0  0  0  0
   10.4699    9.6161   24.2814 H   0  0  0  0  0  0  0  0  0  0  0  0
    5.7275   12.5954   22.7497 H   0  0  0  0  0  0  0  0  0  0  0  0
    6.7036   12.8799   21.2925 H   0  0  0  0  0  0  0  0  0  0  0  0
    6.5244   15.4308   20.8497 H   0  0  0  0  0  0  0  0  0  0  0  0
    5.1592   15.3731   21.8961 H   0  0  0  0  0  0  0  0  0  0  0  0
  1  2  2  0  0  0  0
  1  3  1  0  0  0  0
  2  4  1  0  0  0  0
  3  7  2  0  0  0  0
  4  5  2  0  0  0  0
  4  6  1  0  0  0  0
  5  7  1  0  0  0  0
  5 12  1  0  0  0  0
  6 11  1  0  0  0  0
  8 11  1  0  0  0  0
  9 11  2  0  0  0  0
 10 11  2  0  0  0  0
  1 13  1  0  0  0  0
  2 14  1  0  0  0  0
  3 15  1  0  0  0  0
  6 16  1  0  0  0  0
  6 17  1  0  0  0  0
  8 18  1  0  0  0  0
  8 19  1  0  0  0  0
M  END
> <Mol Weight>
251,10

> <Formula>
C6H7BrN2O2S

> <ID>
EN300-1990353

> <name>
Sulfonamides

> <LogP>
0,10

> <ROCS_ShapeQuery>
x0310_0A_x0719_0A_x1080_0A_x0739_0A_x0929_0A_x0526_0A_x0911_0A

> <ROCS_TanimotoCombo>
0.306 

> <ROCS_ShapeTanimoto>
0.148 

> <ROCS_ColorTanimoto>
0.158 

> <ROCS_RefTversky>
0.143 

> <ROCS_RefColorTversky>
0.170 

> <ROCS_RefTverskyCombo>
0.313 

> <ROCS_FitTversky>
1.298 

> <ROCS_FitColorTversky>
0.684 

> <ROCS_FitTverskyCombo>
1.982 

> <ROCS_ColorScore>
-4.939

> <ROCS_Overlap>
1146.861

> <ROCS_Rank>
336                 

$$$$
untitled-dbase-2241_25
  -OEChem-02092407103D

 19 19  0     0  0  0  0  0  0999 V2000
    9.1504   12.1637   22.5522 C   0  0  0  0  0  0  0  0  0  0  0  0
    7.5130   10.9186   23.7461 C   0  0  0  0  0  0  0  0  0  0  0  0
    9.7164   10.2860   23.8977 C   0  0  0  0  0  0  0  0  0  0  0  0
    7.8176   11.9715   22.8985 C   0  0  0  0  0  0  0  0  0  0  0  0
   10.1242   11.3092   23.0570 C   0  0  0  0  0  0  0  0  0  0  0  0
    6.7517   12.8682   22.3766 C   0  0  0  0  0  0  0  0  0  0  0  0
    8.4314   10.0679   24.2564 N   0  0  0  0  0  0  0  0  0  0  0  0
    6.1713   15.3978   21.8150 N   0  0  0  0  0  0  0  0  0  0  0  0
    6.5001   14.6635   24.2583 O   0  0  0  0  0  0  0  0  0  0  0  0
    8.4996   14.7803   22.7176 O   0  0  0  0  0  0  0  0  0  0  0  0
    7.0906   14.5060   22.9404 S   0  0  0  0  0  0  0  0  0  0  0  0
   11.9392   11.5350   22.6096 Br  0  0  0  0  0  0  0  0  0  0  0  0
    9.4226   12.9815   21.8890 H   0  0  0  0  0  0  0  0  0  0  0  0
    6.4903   10.7196   24.0512 H   0  0  0  0  0  0  0  0  0  0  0  0
   10.4263    9.5837   24.3244 H   0  0  0  0  0  0  0  0  0  0  0  0
    5.7539   12.5894   22.7384 H   0  0  0  0  0  0  0  0  0  0  0  0
    6.7222   12.8914   21.2797 H   0  0  0  0  0  0  0  0  0  0  0  0
    6.5095   15.4375   20.8457 H   0  0  0  0  0  0  0  0  0  0  0  0
    5.1478   15.3580   21.8952 H   0  0  0  0  0  0  0  0  0  0  0  0
  1  4  2  0  0  0  0
  1  5  1  0  0  0  0
  2  4  1  0  0  0  0
  2  7  2  0  0  0  0
  3  5  2  0  0  0  0
  3  7  1  0  0  0  0
  4  6  1  0  0  0  0
  5 12  1  0  0  0  0
  6 11  1  0  0  0  0
  8 11  1  0  0  0  0
  9 11  2  0  0  0  0
 10 11  2  0  0  0  0
  1 13  1  0  0  0  0
  2 14  1  0  0  0  0
  3 15  1  0  0  0  0
  6 16  1  0  0  0  0
  6 17  1  0  0  0  0
  8 18  1  0  0  0  0
  8 19  1  0  0  0  0
M  END
> <Mol Weight>
251,10

> <Formula>
C6H7BrN2O2S

> <ID>
EN300-283790

> <name>
Sulfonamides

> <LogP>
-0,11

> <ROCS_ShapeQuery>
x0310_0A_x0719_0A_x1080_0A_x0739_0A_x0929_0A_x0526_0A_x0911_0A

> <ROCS_TanimotoCombo>
0.306 

> <ROCS_ShapeTanimoto>
0.147 

> <ROCS_ColorTanimoto>
0.158 

> <ROCS_RefTversky>
0.143 

> <ROCS_RefColorTversky>
0.171 

> <ROCS_RefTverskyCombo>
0.313 

> <ROCS_FitTversky>
1.292 

> <ROCS_FitColorTversky>
0.687 

> <ROCS_FitTverskyCombo>
1.980 

> <ROCS_ColorScore>
-4.959

> <ROCS_Overlap>
1140.875

> <ROCS_Rank>
337                 

$$$$
untitled-dbase-2697_1419
  -OEChem-02092407103D

 29 29  0     0  0  0  0  0  0999 V2000
    7.4594   11.4338   24.2187 C   0  0  0  0  0  0  0  0  0  0  0  0
    7.9619   10.2440   23.6920 C   0  0  0  0  0  0  0  0  0  0  0  0
    9.9369   11.4127   22.9364 C   0  0  0  0  0  0  0  0  0  0  0  0
    8.1955   12.6131   24.1042 C   0  0  0  0  0  0  0  0  0  0  0  0
    9.4343   12.6025   23.4631 C   0  0  0  0  0  0  0  0  0  0  0  0
    9.2007   10.2334   23.0509 C   0  0  0  0  0  0  0  0  0  0  0  0
    5.6819   14.7030   21.1149 C   0  0  0  0  0  0  0  0  0  0  0  0
    7.6088   14.9501   22.5244 C   0  0  0  0  0  0  0  0  0  0  0  0
    8.0811   14.9845   23.9663 C   0  0  0  0  0  0  0  0  0  0  0  0
   11.3180    9.2774   21.7440 N   0  0  0  0  0  0  0  0  0  0  0  0
    6.1391   14.7730   22.4872 N   0  0  0  0  0  0  0  0  0  0  0  0
   10.0969    7.8305   23.4936 O   0  0  0  0  0  0  0  0  0  0  0  0
    8.9675    8.3229   21.2960 O   0  0  0  0  0  0  0  0  0  0  0  0
    7.7026   13.7730   24.6180 O   0  0  0  0  0  0  0  0  0  0  0  0
   10.1463   13.7320   23.3494 F   0  0  0  0  0  0  0  0  0  0  0  0
    9.8294    8.7440   22.3916 S   0  0  0  0  0  0  0  0  0  0  0  0
    6.4932   11.4361   24.7162 H   0  0  0  0  0  0  0  0  0  0  0  0
    7.3803    9.3310   23.7869 H   0  0  0  0  0  0  0  0  0  0  0  0
   10.9029   11.4164   22.4389 H   0  0  0  0  0  0  0  0  0  0  0  0
    6.1470   13.8398   20.6165 H   0  0  0  0  0  0  0  0  0  0  0  0
    4.5878   14.5902   21.0983 H   0  0  0  0  0  0  0  0  0  0  0  0
    5.9633   15.6263   20.5873 H   0  0  0  0  0  0  0  0  0  0  0  0
    7.8553   15.8808   22.0036 H   0  0  0  0  0  0  0  0  0  0  0  0
    8.0671   14.1103   21.9934 H   0  0  0  0  0  0  0  0  0  0  0  0
    7.6062   15.8159   24.4965 H   0  0  0  0  0  0  0  0  0  0  0  0
    9.1685   15.0944   24.0312 H   0  0  0  0  0  0  0  0  0  0  0  0
   12.1813    8.9926   22.2225 H   0  0  0  0  0  0  0  0  0  0  0  0
   11.4078    9.3302   20.7221 H   0  0  0  0  0  0  0  0  0  0  0  0
    5.7182   15.5638   22.9579 H   0  0  0  0  0  0  0  0  0  0  0  0
  1  2  2  0  0  0  0
  1  4  1  0  0  0  0
  2  6  1  0  0  0  0
  3  5  1  0  0  0  0
  3  6  2  0  0  0  0
  4  5  2  0  0  0  0
  4 14  1  0  0  0  0
  5 15  1  0  0  0  0
  6 16  1  0  0  0  0
  7 11  1  0  0  0  0
  8  9  1  0  0  0  0
  8 11  1  0  0  0  0
  9 14  1  0  0  0  0
 10 16  1  0  0  0  0
 12 16  2  0  0  0  0
 13 16  2  0  0  0  0
  1 17  1  0  0  0  0
  2 18  1  0  0  0  0
  3 19  1  0  0  0  0
  7 20  1  0  0  0  0
  7 21  1  0  0  0  0
  7 22  1  0  0  0  0
  8 23  1  0  0  0  0
  8 24  1  0  0  0  0
  9 25  1  0  0  0  0
  9 26  1  0  0  0  0
 10 27  1  0  0  0  0
 10 28  1  0  0  0  0
 11 29  1  0  0  0  0
M  END
> <Mol Weight>
284,73

> <Formula>
C9H14ClFN2O3S

> <ID>
EN300-249159

> <name>
Sulfonamides

> <LogP>
-0,27

> <ROCS_ShapeQuery>
x0310_0A_x0719_0A_x1080_0A_x0739_0A_x0929_0A_x0526_0A_x0911_0A

> <ROCS_TanimotoCombo>
0.306 

> <ROCS_ShapeTanimoto>
0.194 

> <ROCS_ColorTanimoto>
0.112 

> <ROCS_RefTversky>
0.184 

> <ROCS_RefColorTversky>
0.129 

> <ROCS_RefTverskyCombo>
0.312 

> <ROCS_FitTversky>
1.396 

> <ROCS_FitColorTversky>
0.458 

> <ROCS_FitTverskyCombo>
1.854 

> <ROCS_ColorScore>
-3.742

> <ROCS_Overlap>
1473.526

> <ROCS_Rank>
338                 

$$$$
untitled-dbase-2674_4
  -OEChem-02092407103D

 37 38  0     0  0  0  0  0  0999 V2000
    7.6775   11.2125   23.5408 B   0  0  0  0  0  0  0  0  0  0  0  0
    3.9528   10.4906   23.1906 C   0  0  0  0  0  0  0  0  0  0  0  0
    3.3988   11.7409   22.9159 C   0  0  0  0  0  0  0  0  0  0  0  0
    5.3284   10.3646   23.3843 C   0  0  0  0  0  0  0  0  0  0  0  0
    4.2204   12.8652   22.8348 C   0  0  0  0  0  0  0  0  0  0  0  0
    6.1500   11.4888   23.3032 C   0  0  0  0  0  0  0  0  0  0  0  0
    5.5961   12.7392   23.0284 C   0  0  0  0  0  0  0  0  0  0  0  0
    9.5969   10.1351   24.1735 C   0  0  0  0  0  0  0  0  0  0  0  0
    9.9453   11.5317   23.5582 C   0  0  0  0  0  0  0  0  0  0  0  0
    9.8867    8.9288   23.2522 C   0  0  0  0  0  0  0  0  0  0  0  0
   10.2473    9.8546   25.5354 C   0  0  0  0  0  0  0  0  0  0  0  0
   11.0219   11.4993   22.4643 C   0  0  0  0  0  0  0  0  0  0  0  0
   10.3470   12.6127   24.5868 C   0  0  0  0  0  0  0  0  0  0  0  0
    5.3360   15.3510   22.5640 N   0  0  0  0  0  0  0  0  0  0  0  0
    7.1151   14.4864   24.2171 O   0  0  0  0  0  0  0  0  0  0  0  0
    7.4251   14.0822   21.7497 O   0  0  0  0  0  0  0  0  0  0  0  0
    8.1463   10.1892   24.3646 O   0  0  0  0  0  0  0  0  0  0  0  0
    8.6886   11.9680   22.9469 O   0  0  0  0  0  0  0  0  0  0  0  0
    6.5552   14.2071   22.9063 S   0  0  0  0  0  0  0  0  0  0  0  0
    3.3127    9.6151   23.2529 H   0  0  0  0  0  0  0  0  0  0  0  0
    2.3277   11.8384   22.7650 H   0  0  0  0  0  0  0  0  0  0  0  0
    5.7233    9.3723   23.5966 H   0  0  0  0  0  0  0  0  0  0  0  0
    3.7742   13.8325   22.6190 H   0  0  0  0  0  0  0  0  0  0  0  0
    9.6122    8.0180   23.7695 H   0  0  0  0  0  0  0  0  0  0  0  0
   10.9427    8.9154   23.0133 H   0  0  0  0  0  0  0  0  0  0  0  0
    9.3028    9.0308   22.3461 H   0  0  0  0  0  0  0  0  0  0  0  0
    9.9500    8.8689   25.8814 H   0  0  0  0  0  0  0  0  0  0  0  0
    9.9228   10.6037   26.2517 H   0  0  0  0  0  0  0  0  0  0  0  0
   11.3280    9.8931   25.4342 H   0  0  0  0  0  0  0  0  0  0  0  0
   11.1962   12.5073   22.0992 H   0  0  0  0  0  0  0  0  0  0  0  0
   10.6859   10.8699   21.6455 H   0  0  0  0  0  0  0  0  0  0  0  0
   11.9434   11.0981   22.8762 H   0  0  0  0  0  0  0  0  0  0  0  0
   10.5662   13.5334   24.0608 H   0  0  0  0  0  0  0  0  0  0  0  0
   11.2237   12.2759   25.1256 H   0  0  0  0  0  0  0  0  0  0  0  0
    9.5249   12.7654   25.2746 H   0  0  0  0  0  0  0  0  0  0  0  0
    5.0868   16.0219   23.3009 H   0  0  0  0  0  0  0  0  0  0  0  0
    5.2986   15.7434   21.6153 H   0  0  0  0  0  0  0  0  0  0  0  0
  1  6  1  0  0  0  0
  1 17  1  0  0  0  0
  1 18  1  0  0  0  0
  2  3  1  0  0  0  0
  2  4  2  0  0  0  0
  3  5  2  0  0  0  0
  4  6  1  0  0  0  0
  5  7  1  0  0  0  0
  6  7  2  0  0  0  0
  7 19  1  0  0  0  0
  8  9  1  0  0  0  0
  8 10  1  0  0  0  0
  8 11  1  0  0  0  0
  8 17  1  0  0  0  0
  9 12  1  0  0  0  0
  9 13  1  0  0  0  0
  9 18  1  0  0  0  0
 14 19  1  0  0  0  0
 15 19  2  0  0  0  0
 16 19  2  0  0  0  0
  2 20  1  0  0  0  0
  3 21  1  0  0  0  0
  4 22  1  0  0  0  0
  5 23  1  0  0  0  0
 10 24  1  0  0  0  0
 10 25  1  0  0  0  0
 10 26  1  0  0  0  0
 11 27  1  0  0  0  0
 11 28  1  0  0  0  0
 11 29  1  0  0  0  0
 12 30  1  0  0  0  0
 12 31  1  0  0  0  0
 12 32  1  0  0  0  0
 13 33  1  0  0  0  0
 13 34  1  0  0  0  0
 13 35  1  0  0  0  0
 14 36  1  0  0  0  0
 14 37  1  0  0  0  0
M  END
> <Mol Weight>
283,15

> <Formula>
C12H18BNO4S

> <ID>
EN300-207669

> <name>
Sulfonamides

> <LogP>
2,53

> <ROCS_ShapeQuery>
x0310_0A_x0719_0A_x1080_0A_x0739_0A_x0929_0A_x0526_0A_x0911_0A

> <ROCS_TanimotoCombo>
0.306 

> <ROCS_ShapeTanimoto>
0.157 

> <ROCS_ColorTanimoto>
0.149 

> <ROCS_RefTversky>
0.156 

> <ROCS_RefColorTversky>
0.166 

> <ROCS_RefTverskyCombo>
0.322 

> <ROCS_FitTversky>
1.041 

> <ROCS_FitColorTversky>
0.592 

> <ROCS_FitTverskyCombo>
1.632 

> <ROCS_ColorScore>
-4.834

> <ROCS_Overlap>
1248.406

> <ROCS_Rank>
339                 

$$$$
untitled-dbase-1597_99
  -OEChem-02092407103D

 30 31  0     1  0  0  0  0  0999 V2000
    8.2155    9.8871   24.2343 C   0  0  0  0  0  0  0  0  0  0  0  0
    9.1701    9.7014   23.2344 C   0  0  0  0  0  0  0  0  0  0  0  0
    8.1228   11.1144   24.8908 C   0  0  0  0  0  0  0  0  0  0  0  0
   10.0321   10.7429   22.8910 C   0  0  0  0  0  0  0  0  0  0  0  0
    8.9848   12.1559   24.5474 C   0  0  0  0  0  0  0  0  0  0  0  0
    9.9395   11.9701   23.5475 C   0  0  0  0  0  0  0  0  0  0  0  0
   10.7832   15.6349   22.6013 C   0  0  0  0  0  0  0  0  0  0  0  0
   10.2710   14.4496   23.3766 C   0  0  1  0  0  0  0  0  0  0  0  0
    9.4224   15.0666   22.2950 C   0  0  1  0  0  0  0  0  0  0  0  0
   10.8775   13.1040   23.1744 C   0  0  0  0  0  0  0  0  0  0  0  0
    8.1945   15.8301   22.6527 C   0  0  0  0  0  0  0  0  0  0  0  0
    5.5449   15.9796   22.5593 N   0  0  0  0  0  0  0  0  0  0  0  0
    6.7575   13.9537   21.5384 O   0  0  0  0  0  0  0  0  0  0  0  0
    6.6839   14.2199   24.0502 O   0  0  0  0  0  0  0  0  0  0  0  0
    6.7583   14.7945   22.7204 S   0  0  0  0  0  0  0  0  0  0  0  0
    7.5435    9.0765   24.5006 H   0  0  0  0  0  0  0  0  0  0  0  0
    9.2417    8.7462   22.7223 H   0  0  0  0  0  0  0  0  0  0  0  0
    7.3790   11.2597   25.6686 H   0  0  0  0  0  0  0  0  0  0  0  0
   10.7729   10.5890   22.1108 H   0  0  0  0  0  0  0  0  0  0  0  0
    8.9054   13.1086   25.0643 H   0  0  0  0  0  0  0  0  0  0  0  0
   10.8428   16.5851   23.1183 H   0  0  0  0  0  0  0  0  0  0  0  0
   11.5687   15.4764   21.8722 H   0  0  0  0  0  0  0  0  0  0  0  0
    9.9888   14.6130   24.4099 H   0  0  0  0  0  0  0  0  0  0  0  0
    9.3041   14.5271   21.3627 H   0  0  0  0  0  0  0  0  0  0  0  0
   11.8092   12.9909   23.7628 H   0  0  0  0  0  0  0  0  0  0  0  0
   11.1940   12.9601   22.1226 H   0  0  0  0  0  0  0  0  0  0  0  0
    7.9692   16.6199   21.9181 H   0  0  0  0  0  0  0  0  0  0  0  0
    8.2766   16.3066   23.6426 H   0  0  0  0  0  0  0  0  0  0  0  0
    5.3833   16.6114   23.3532 H   0  0  0  0  0  0  0  0  0  0  0  0
    5.4334   16.4299   21.6425 H   0  0  0  0  0  0  0  0  0  0  0  0
  1  2  1  0  0  0  0
  1  3  2  0  0  0  0
  2  4  2  0  0  0  0
  3  5  1  0  0  0  0
  4  6  1  0  0  0  0
  5  6  2  0  0  0  0
  6 10  1  0  0  0  0
  7  8  1  0  0  0  0
  7  9  1  0  0  0  0
  8  9  1  0  0  0  0
  8 10  1  0  0  0  0
  9 11  1  0  0  0  0
 11 15  1  0  0  0  0
 12 15  1  0  0  0  0
 13 15  2  0  0  0  0
 14 15  2  0  0  0  0
  1 16  1  0  0  0  0
  2 17  1  0  0  0  0
  3 18  1  0  0  0  0
  4 19  1  0  0  0  0
  5 20  1  0  0  0  0
  7 21  1  0  0  0  0
  7 22  1  0  0  0  0
  8 23  1  0  0  0  0
  9 24  1  0  0  0  0
 10 25  1  0  0  0  0
 10 26  1  0  0  0  0
 11 27  1  0  0  0  0
 11 28  1  0  0  0  0
 12 29  1  0  0  0  0
 12 30  1  0  0  0  0
M  END
> <Mol Weight>
225,31

> <Formula>
C11H15NO2S

> <ID>
EN300-1695862

> <name>
Sulfonamides

> <LogP>
1,26

> <ROCS_ShapeQuery>
x0310_0A_x0719_0A_x1080_0A_x0739_0A_x0929_0A_x0526_0A_x0911_0A

> <ROCS_TanimotoCombo>
0.306 

> <ROCS_ShapeTanimoto>
0.167 

> <ROCS_ColorTanimoto>
0.138 

> <ROCS_RefTversky>
0.162 

> <ROCS_RefColorTversky>
0.144 

> <ROCS_RefTverskyCombo>
0.305 

> <ROCS_FitTversky>
1.281 

> <ROCS_FitColorTversky>
0.782 

> <ROCS_FitTverskyCombo>
2.063 

> <ROCS_ColorScore>
-4.158

> <ROCS_Overlap>
1293.690

> <ROCS_Rank>
340                 

$$$$
untitled-dbase-2386_15
  -OEChem-02092407103D

 25 25  0     0  0  0  0  0  0999 V2000
    2.3148   14.1067   21.5189 C   0  0  0  0  0  0  0  0  0  0  0  0
    3.5699   14.3739   22.0655 C   0  0  0  0  0  0  0  0  0  0  0  0
    4.6198   13.2328   20.2128 C   0  0  0  0  0  0  0  0  0  0  0  0
    2.2121   13.4025   20.3192 C   0  0  0  0  0  0  0  0  0  0  0  0
    3.3646   12.9656   19.6661 C   0  0  0  0  0  0  0  0  0  0  0  0
    4.7224   13.9370   21.4125 C   0  0  0  0  0  0  0  0  0  0  0  0
    0.8830   13.1397   19.7807 C   0  0  0  0  0  0  0  0  0  0  0  0
   -0.9210   11.5828   19.7812 C   0  0  0  0  0  0  0  0  0  0  0  0
    6.6498   15.7778   21.3725 N   0  0  0  0  0  0  0  0  0  0  0  0
    3.2870   12.2458   18.4413 N   0  3  0  0  0  0  0  0  0  0  0  0
    4.3491   11.8733   17.8897 O   0  5  0  0  0  0  0  0  0  0  0  0
    0.2844   13.8928   19.0045 O   0  0  0  0  0  0  0  0  0  0  0  0
    2.1587   12.0064   17.9506 O   0  0  0  0  0  0  0  0  0  0  0  0
    6.1366   14.4670   23.5321 O   0  0  0  0  0  0  0  0  0  0  0  0
    7.2357   13.2795   21.6009 O   0  0  0  0  0  0  0  0  0  0  0  0
    0.3827   11.9541   20.2418 O   0  0  0  0  0  0  0  0  0  0  0  0
    6.2929   14.2722   22.0974 S   0  0  0  0  0  0  0  0  0  0  0  0
    1.4240   14.4510   22.0382 H   0  0  0  0  0  0  0  0  0  0  0  0
    3.6378   14.9234   23.0005 H   0  0  0  0  0  0  0  0  0  0  0  0
    5.5208   12.8930   19.7069 H   0  0  0  0  0  0  0  0  0  0  0  0
   -1.2033   10.6225   20.2196 H   0  0  0  0  0  0  0  0  0  0  0  0
   -0.9162   11.5104   18.6907 H   0  0  0  0  0  0  0  0  0  0  0  0
   -1.6382   12.3469   20.0905 H   0  0  0  0  0  0  0  0  0  0  0  0
    6.6269   16.6160   21.9660 H   0  0  0  0  0  0  0  0  0  0  0  0
    7.3760   15.8031   20.6463 H   0  0  0  0  0  0  0  0  0  0  0  0
  1  2  2  0  0  0  0
  1  4  1  0  0  0  0
  2  6  1  0  0  0  0
  3  5  1  0  0  0  0
  3  6  2  0  0  0  0
  4  5  2  0  0  0  0
  4  7  1  0  0  0  0
  5 10  1  0  0  0  0
  6 17  1  0  0  0  0
  7 12  2  0  0  0  0
  7 16  1  0  0  0  0
  8 16  1  0  0  0  0
  9 17  1  0  0  0  0
 10 11  1  0  0  0  0
 10 13  2  0  0  0  0
 14 17  2  0  0  0  0
 15 17  2  0  0  0  0
  1 18  1  0  0  0  0
  2 19  1  0  0  0  0
  3 20  1  0  0  0  0
  8 21  1  0  0  0  0
  8 22  1  0  0  0  0
  8 23  1  0  0  0  0
  9 24  1  0  0  0  0
  9 25  1  0  0  0  0
M  CHG  2  10   1  11  -1
M  END
> <Mol Weight>
260,22

> <Formula>
C8H8N2O6S

> <ID>
EN300-248190

> <name>
Sulfonamides

> <LogP>
0,52

> <ROCS_ShapeQuery>
x0310_0A_x0719_0A_x1080_0A_x0739_0A_x0929_0A_x0526_0A_x0911_0A

> <ROCS_TanimotoCombo>
0.305 

> <ROCS_ShapeTanimoto>
0.179 

> <ROCS_ColorTanimoto>
0.126 

> <ROCS_RefTversky>
0.173 

> <ROCS_RefColorTversky>
0.144 

> <ROCS_RefTverskyCombo>
0.317 

> <ROCS_FitTversky>
1.236 

> <ROCS_FitColorTversky>
0.511 

> <ROCS_FitTverskyCombo>
1.747 

> <ROCS_ColorScore>
-4.181

> <ROCS_Overlap>
1387.626

> <ROCS_Rank>
341                 

$$$$
untitled-dbase-657_186
  -OEChem-02092407103D

 29 29  0     0  0  0  0  0  0999 V2000
   10.4424   11.0517   23.8061 C   0  0  0  0  0  0  0  0  0  0  0  0
    9.4135    9.9597   24.0765 C   0  0  0  0  0  0  0  0  0  0  0  0
    9.9402   12.2877   23.0576 C   0  0  0  0  0  0  0  0  0  0  0  0
    8.1910   10.4057   24.8687 C   0  0  0  0  0  0  0  0  0  0  0  0
    8.7541   12.0439   22.1256 C   0  0  0  0  0  0  0  0  0  0  0  0
    7.4390   11.6279   24.3403 C   0  0  0  0  0  0  0  0  0  0  0  0
    7.3934   11.7591   22.8091 C   0  0  0  0  0  0  0  0  0  0  0  0
    6.3841   12.8496   22.4250 C   0  0  0  0  0  0  0  0  0  0  0  0
    5.6507   15.4015   22.3995 N   0  0  0  0  0  0  0  0  0  0  0  0
    6.9524   14.4554   24.4063 O   0  0  0  0  0  0  0  0  0  0  0  0
    8.1371   14.7738   22.1971 O   0  0  0  0  0  0  0  0  0  0  0  0
    6.9404   14.4295   22.9509 S   0  0  0  0  0  0  0  0  0  0  0  0
   10.8665   11.3643   24.7648 H   0  0  0  0  0  0  0  0  0  0  0  0
   11.2721   10.6277   23.2326 H   0  0  0  0  0  0  0  0  0  0  0  0
    9.0824    9.5677   23.1058 H   0  0  0  0  0  0  0  0  0  0  0  0
    9.9001    9.1168   24.5838 H   0  0  0  0  0  0  0  0  0  0  0  0
    9.6481   13.0293   23.8107 H   0  0  0  0  0  0  0  0  0  0  0  0
   10.7680   12.7410   22.5010 H   0  0  0  0  0  0  0  0  0  0  0  0
    7.4880    9.5540   25.0245 H   0  0  0  0  0  0  0  0  0  0  0  0
    8.5367   10.6607   25.8963 H   0  0  0  0  0  0  0  0  0  0  0  0
    8.6524   12.8760   21.3964 H   0  0  0  0  0  0  0  0  0  0  0  0
    9.0076   11.1595   21.5042 H   0  0  0  0  0  0  0  0  0  0  0  0
    6.4075   11.5703   24.7081 H   0  0  0  0  0  0  0  0  0  0  0  0
    7.8678   12.5362   24.7792 H   0  0  0  0  0  0  0  0  0  0  0  0
    7.0001   10.8087   22.4002 H   0  0  0  0  0  0  0  0  0  0  0  0
    5.4284   12.6537   22.9022 H   0  0  0  0  0  0  0  0  0  0  0  0
    6.2624   12.8777   21.3464 H   0  0  0  0  0  0  0  0  0  0  0  0
    5.5582   15.5405   21.3857 H   0  0  0  0  0  0  0  0  0  0  0  0
    4.7516   15.3238   22.8905 H   0  0  0  0  0  0  0  0  0  0  0  0
  1  2  1  0  0  0  0
  1  3  1  0  0  0  0
  2  4  1  0  0  0  0
  3  5  1  0  0  0  0
  4  6  1  0  0  0  0
  5  7  1  0  0  0  0
  6  7  1  0  0  0  0
  7  8  1  0  0  0  0
  8 12  1  0  0  0  0
  9 12  1  0  0  0  0
 10 12  2  0  0  0  0
 11 12  2  0  0  0  0
  1 13  1  0  0  0  0
  1 14  1  0  0  0  0
  2 15  1  0  0  0  0
  2 16  1  0  0  0  0
  3 17  1  0  0  0  0
  3 18  1  0  0  0  0
  4 19  1  0  0  0  0
  4 20  1  0  0  0  0
  5 21  1  0  0  0  0
  5 22  1  0  0  0  0
  6 23  1  0  0  0  0
  6 24  1  0  0  0  0
  7 25  1  0  0  0  0
  8 26  1  0  0  0  0
  8 27  1  0  0  0  0
  9 28  1  0  0  0  0
  9 29  1  0  0  0  0
M  END
> <Mol Weight>
191,29

> <Formula>
C8H17NO2S

> <ID>
EN300-278528

> <name>
Sulfonamides

> <LogP>
1,18

> <ROCS_ShapeQuery>
x0310_0A_x0719_0A_x1080_0A_x0739_0A_x0929_0A_x0526_0A_x0911_0A

> <ROCS_TanimotoCombo>
0.305 

> <ROCS_ShapeTanimoto>
0.148 

> <ROCS_ColorTanimoto>
0.157 

> <ROCS_RefTversky>
0.143 

> <ROCS_RefColorTversky>
0.161 

> <ROCS_RefTverskyCombo>
0.304 

> <ROCS_FitTversky>
1.328 

> <ROCS_FitColorTversky>
0.876 

> <ROCS_FitTverskyCombo>
2.204 

> <ROCS_ColorScore>
-4.657

> <ROCS_Overlap>
1142.978

> <ROCS_Rank>
342                 

$$$$
untitled-dbase-2673_7
  -OEChem-02092407103D

 37 38  0     0  0  0  0  0  0999 V2000
    6.0495   12.2685   21.1766 B   0  0  0  0  0  0  0  0  0  0  0  0
    3.5960   12.9874   21.0343 C   0  0  0  0  0  0  0  0  0  0  0  0
    4.5964   11.9524   19.0938 C   0  0  0  0  0  0  0  0  0  0  0  0
    2.3897   13.1128   20.3455 C   0  0  0  0  0  0  0  0  0  0  0  0
    3.3900   12.0778   18.4050 C   0  0  0  0  0  0  0  0  0  0  0  0
    4.6995   12.4072   20.4084 C   0  0  0  0  0  0  0  0  0  0  0  0
    2.2866   12.6580   19.0308 C   0  0  0  0  0  0  0  0  0  0  0  0
    8.0322   12.8461   22.1504 C   0  0  0  0  0  0  0  0  0  0  0  0
    7.7794   11.3091   22.3168 C   0  0  0  0  0  0  0  0  0  0  0  0
    8.3943   13.5798   23.4495 C   0  0  0  0  0  0  0  0  0  0  0  0
    9.0885   13.2187   21.0855 C   0  0  0  0  0  0  0  0  0  0  0  0
    7.3394   10.8729   23.7328 C   0  0  0  0  0  0  0  0  0  0  0  0
    8.9552   10.4172   21.8938 C   0  0  0  0  0  0  0  0  0  0  0  0
    0.0173   11.3385   18.5681 N   0  0  0  0  0  0  0  0  0  0  0  0
    0.0197   13.9088   18.7661 O   0  0  0  0  0  0  0  0  0  0  0  0
    1.0572   12.8273   16.7408 O   0  0  0  0  0  0  0  0  0  0  0  0
    6.7461   13.3650   21.6783 O   0  0  0  0  0  0  0  0  0  0  0  0
    6.6559   11.0380   21.4164 O   0  0  0  0  0  0  0  0  0  0  0  0
    0.7762   12.8167   18.1697 S   0  0  0  0  0  0  0  0  0  0  0  0
    3.6484   13.3520   22.0584 H   0  0  0  0  0  0  0  0  0  0  0  0
    5.4411   11.4966   18.5806 H   0  0  0  0  0  0  0  0  0  0  0  0
    1.5371   13.5691   20.8413 H   0  0  0  0  0  0  0  0  0  0  0  0
    3.3198   11.7195   17.3813 H   0  0  0  0  0  0  0  0  0  0  0  0
    8.5482   14.6287   23.2291 H   0  0  0  0  0  0  0  0  0  0  0  0
    9.3015   13.1494   23.8546 H   0  0  0  0  0  0  0  0  0  0  0  0
    7.5817   13.4648   24.1559 H   0  0  0  0  0  0  0  0  0  0  0  0
    9.1934   14.2989   21.0435 H   0  0  0  0  0  0  0  0  0  0  0  0
    8.7703   12.8471   20.1159 H   0  0  0  0  0  0  0  0  0  0  0  0
   10.0420   12.7714   21.3508 H   0  0  0  0  0  0  0  0  0  0  0  0
    7.1893    9.7974   23.7491 H   0  0  0  0  0  0  0  0  0  0  0  0
    6.4107   11.3728   23.9923 H   0  0  0  0  0  0  0  0  0  0  0  0
    8.1096   11.1429   24.4495 H   0  0  0  0  0  0  0  0  0  0  0  0
    8.6820    9.3806   22.0464 H   0  0  0  0  0  0  0  0  0  0  0  0
    9.8189   10.6655   22.4976 H   0  0  0  0  0  0  0  0  0  0  0  0
    9.1709   10.5937   20.8475 H   0  0  0  0  0  0  0  0  0  0  0  0
   -0.7801   11.3652   19.2152 H   0  0  0  0  0  0  0  0  0  0  0  0
   -0.0691   10.6272   17.8319 H   0  0  0  0  0  0  0  0  0  0  0  0
  1  6  1  0  0  0  0
  1 17  1  0  0  0  0
  1 18  1  0  0  0  0
  2  4  2  0  0  0  0
  2  6  1  0  0  0  0
  3  5  1  0  0  0  0
  3  6  2  0  0  0  0
  4  7  1  0  0  0  0
  5  7  2  0  0  0  0
  7 19  1  0  0  0  0
  8  9  1  0  0  0  0
  8 10  1  0  0  0  0
  8 11  1  0  0  0  0
  8 17  1  0  0  0  0
  9 12  1  0  0  0  0
  9 13  1  0  0  0  0
  9 18  1  0  0  0  0
 14 19  1  0  0  0  0
 15 19  2  0  0  0  0
 16 19  2  0  0  0  0
  2 20  1  0  0  0  0
  3 21  1  0  0  0  0
  4 22  1  0  0  0  0
  5 23  1  0  0  0  0
 10 24  1  0  0  0  0
 10 25  1  0  0  0  0
 10 26  1  0  0  0  0
 11 27  1  0  0  0  0
 11 28  1  0  0  0  0
 11 29  1  0  0  0  0
 12 30  1  0  0  0  0
 12 31  1  0  0  0  0
 12 32  1  0  0  0  0
 13 33  1  0  0  0  0
 13 34  1  0  0  0  0
 13 35  1  0  0  0  0
 14 36  1  0  0  0  0
 14 37  1  0  0  0  0
M  END
> <Mol Weight>
283,15

> <Formula>
C12H18BNO4S

> <ID>
EN300-212394

> <name>
Sulfonamides

> <LogP>
2,53

> <ROCS_ShapeQuery>
x0310_0A_x0719_0A_x1080_0A_x0739_0A_x0929_0A_x0526_0A_x0911_0A

> <ROCS_TanimotoCombo>
0.305 

> <ROCS_ShapeTanimoto>
0.206 

> <ROCS_ColorTanimoto>
0.099 

> <ROCS_RefTversky>
0.196 

> <ROCS_RefColorTversky>
0.116 

> <ROCS_RefTverskyCombo>
0.312 

> <ROCS_FitTversky>
1.316 

> <ROCS_FitColorTversky>
0.413 

> <ROCS_FitTverskyCombo>
1.729 

> <ROCS_ColorScore>
-3.374

> <ROCS_Overlap>
1572.178

> <ROCS_Rank>
343                 

$$$$
untitled-dbase-2199_39
  -OEChem-02092407103D

 34 34  0     1  0  0  0  0  0999 V2000
   10.6200   11.2138   22.1767 C   0  0  0  0  0  0  0  0  0  0  0  0
    8.0892   11.7379   24.3913 C   0  0  0  0  0  0  0  0  0  0  0  0
    8.5429   10.5535   23.5285 C   0  0  0  0  0  0  0  0  0  0  0  0
    8.9279   12.6686   23.4945 C   0  0  2  0  0  0  0  0  0  0  0  0
   12.9285    9.7816   23.0556 C   0  0  0  0  0  0  0  0  0  0  0  0
   12.1169    7.9278   21.5675 C   0  0  0  0  0  0  0  0  0  0  0  0
   12.7373   10.1491   20.5731 C   0  0  0  0  0  0  0  0  0  0  0  0
    8.1753   13.4676   22.4486 C   0  0  0  0  0  0  0  0  0  0  0  0
   12.1452    9.4385   21.7893 C   0  0  0  0  0  0  0  0  0  0  0  0
    9.5124   11.4570   22.9422 N   0  0  0  0  0  0  0  0  0  0  0  0
    6.2269   15.2038   21.9585 N   0  0  0  0  0  0  0  0  0  0  0  0
   11.3629   12.0892   21.7412 O   0  0  0  0  0  0  0  0  0  0  0  0
    6.7193   14.4682   24.3737 O   0  0  0  0  0  0  0  0  0  0  0  0
    8.3597   15.9709   23.1750 O   0  0  0  0  0  0  0  0  0  0  0  0
   10.7920    9.8751   21.9583 O   0  0  0  0  0  0  0  0  0  0  0  0
    7.3974   14.8816   23.1562 S   0  0  0  0  0  0  0  0  0  0  0  0
    7.0109   11.9205   24.3943 H   0  0  0  0  0  0  0  0  0  0  0  0
    8.4408   11.6897   25.4278 H   0  0  0  0  0  0  0  0  0  0  0  0
    8.9843    9.7203   24.0794 H   0  0  0  0  0  0  0  0  0  0  0  0
    7.8094   10.1930   22.8031 H   0  0  0  0  0  0  0  0  0  0  0  0
    9.6544   13.2700   24.0500 H   0  0  0  0  0  0  0  0  0  0  0  0
   12.9511   10.8651   23.2183 H   0  0  0  0  0  0  0  0  0  0  0  0
   12.4930    9.3061   23.9405 H   0  0  0  0  0  0  0  0  0  0  0  0
   13.9727    9.4602   22.9685 H   0  0  0  0  0  0  0  0  0  0  0  0
   11.5559    7.6772   20.6600 H   0  0  0  0  0  0  0  0  0  0  0  0
   11.6073    7.4213   22.3952 H   0  0  0  0  0  0  0  0  0  0  0  0
   13.1263    7.5139   21.4766 H   0  0  0  0  0  0  0  0  0  0  0  0
   12.1756    9.9033   19.6646 H   0  0  0  0  0  0  0  0  0  0  0  0
   12.7317   11.2367   20.6991 H   0  0  0  0  0  0  0  0  0  0  0  0
   13.7690    9.8244   20.3961 H   0  0  0  0  0  0  0  0  0  0  0  0
    7.3914   12.8624   21.9879 H   0  0  0  0  0  0  0  0  0  0  0  0
    8.8539   13.8253   21.6712 H   0  0  0  0  0  0  0  0  0  0  0  0
    5.2437   15.0129   22.1877 H   0  0  0  0  0  0  0  0  0  0  0  0
    6.3610   16.0361   21.3712 H   0  0  0  0  0  0  0  0  0  0  0  0
  1 10  1  0  0  0  0
  1 12  2  0  0  0  0
  1 15  1  0  0  0  0
  2  3  1  0  0  0  0
  2  4  1  0  0  0  0
  3 10  1  0  0  0  0
  4  8  1  0  0  0  0
  4 10  1  0  0  0  0
  5  9  1  0  0  0  0
  6  9  1  0  0  0  0
  7  9  1  0  0  0  0
  8 16  1  0  0  0  0
  9 15  1  0  0  0  0
 11 16  1  0  0  0  0
 13 16  2  0  0  0  0
 14 16  2  0  0  0  0
  2 17  1  0  0  0  0
  2 18  1  0  0  0  0
  3 19  1  0  0  0  0
  3 20  1  0  0  0  0
  4 21  1  0  0  0  0
  5 22  1  0  0  0  0
  5 23  1  0  0  0  0
  5 24  1  0  0  0  0
  6 25  1  0  0  0  0
  6 26  1  0  0  0  0
  6 27  1  0  0  0  0
  7 28  1  0  0  0  0
  7 29  1  0  0  0  0
  7 30  1  0  0  0  0
  8 31  1  0  0  0  0
  8 32  1  0  0  0  0
 11 33  1  0  0  0  0
 11 34  1  0  0  0  0
M  END
> <Mol Weight>
250,31

> <Formula>
C9H18N2O4S

> <ID>
EN300-28319600

> <name>
Sulfonamides

> <LogP>
-0,52

> <ROCS_ShapeQuery>
x0310_0A_x0719_0A_x1080_0A_x0739_0A_x0929_0A_x0526_0A_x0911_0A

> <ROCS_TanimotoCombo>
0.305 

> <ROCS_ShapeTanimoto>
0.157 

> <ROCS_ColorTanimoto>
0.148 

> <ROCS_RefTversky>
0.153 

> <ROCS_RefColorTversky>
0.161 

> <ROCS_RefTverskyCombo>
0.315 

> <ROCS_FitTversky>
1.166 

> <ROCS_FitColorTversky>
0.649 

> <ROCS_FitTverskyCombo>
1.815 

> <ROCS_ColorScore>
-4.685

> <ROCS_Overlap>
1228.831

> <ROCS_Rank>
344                 

$$$$
untitled-dbase-414_42
  -OEChem-02092407103D

 24 24  0     1  0  0  0  0  0999 V2000
    9.2868   10.5262   24.3344 C   0  0  0  0  0  0  0  0  0  0  0  0
    8.8234   11.8428   24.9077 C   0  0  0  0  0  0  0  0  0  0  0  0
    8.5725   10.5112   22.9932 C   0  0  2  0  0  0  0  0  0  0  0  0
    8.8278   12.7292   23.6735 C   0  0  2  0  0  0  0  0  0  0  0  0
    9.2833    9.6846   21.9391 C   0  0  0  0  0  0  0  0  0  0  0  0
    7.8496   13.8851   23.7560 C   0  0  0  0  0  0  0  0  0  0  0  0
    6.0222   15.3410   22.4944 N   0  0  0  0  0  0  0  0  0  0  0  0
    8.5001   15.5256   21.8292 O   0  0  0  0  0  0  0  0  0  0  0  0
    7.2163   13.4239   21.2633 O   0  0  0  0  0  0  0  0  0  0  0  0
    8.4874   11.8810   22.5629 O   0  0  0  0  0  0  0  0  0  0  0  0
    7.4878   14.5359   22.1593 S   0  0  0  0  0  0  0  0  0  0  0  0
   10.3753   10.5436   24.2022 H   0  0  0  0  0  0  0  0  0  0  0  0
    9.0318    9.6664   24.9605 H   0  0  0  0  0  0  0  0  0  0  0  0
    7.8096   11.7330   25.3114 H   0  0  0  0  0  0  0  0  0  0  0  0
    9.4698   12.2211   25.7045 H   0  0  0  0  0  0  0  0  0  0  0  0
    7.5451   10.1483   23.1165 H   0  0  0  0  0  0  0  0  0  0  0  0
    9.8380   13.1128   23.4876 H   0  0  0  0  0  0  0  0  0  0  0  0
   10.3089   10.0374   21.8075 H   0  0  0  0  0  0  0  0  0  0  0  0
    8.7632    9.7617   20.9815 H   0  0  0  0  0  0  0  0  0  0  0  0
    9.3121    8.6337   22.2361 H   0  0  0  0  0  0  0  0  0  0  0  0
    8.2633   14.7005   24.3533 H   0  0  0  0  0  0  0  0  0  0  0  0
    6.9046   13.5620   24.1973 H   0  0  0  0  0  0  0  0  0  0  0  0
    5.1915   14.7647   22.6771 H   0  0  0  0  0  0  0  0  0  0  0  0
    6.0659   16.1961   23.0623 H   0  0  0  0  0  0  0  0  0  0  0  0
  1  2  1  0  0  0  0
  1  3  1  0  0  0  0
  2  4  1  0  0  0  0
  3  5  1  0  0  0  0
  3 10  1  0  0  0  0
  4  6  1  0  0  0  0
  4 10  1  0  0  0  0
  6 11  1  0  0  0  0
  7 11  1  0  0  0  0
  8 11  2  0  0  0  0
  9 11  2  0  0  0  0
  1 12  1  0  0  0  0
  1 13  1  0  0  0  0
  2 14  1  0  0  0  0
  2 15  1  0  0  0  0
  3 16  1  0  0  0  0
  4 17  1  0  0  0  0
  5 18  1  0  0  0  0
  5 19  1  0  0  0  0
  5 20  1  0  0  0  0
  6 21  1  0  0  0  0
  6 22  1  0  0  0  0
  7 23  1  0  0  0  0
  7 24  1  0  0  0  0
M  END
> <Mol Weight>
179,23

> <Formula>
C6H13NO3S

> <ID>
EN300-281983

> <name>
Sulfonamides

> <LogP>
-0,55

> <ROCS_ShapeQuery>
x0310_0A_x0719_0A_x1080_0A_x0739_0A_x0929_0A_x0526_0A_x0911_0A

> <ROCS_TanimotoCombo>
0.305 

> <ROCS_ShapeTanimoto>
0.146 

> <ROCS_ColorTanimoto>
0.159 

> <ROCS_RefTversky>
0.141 

> <ROCS_RefColorTversky>
0.167 

> <ROCS_RefTverskyCombo>
0.308 

> <ROCS_FitTversky>
1.346 

> <ROCS_FitColorTversky>
0.772 

> <ROCS_FitTverskyCombo>
2.118 

> <ROCS_ColorScore>
-4.839

> <ROCS_Overlap>
1126.348

> <ROCS_Rank>
345                 

$$$$
untitled-dbase-196_51
  -OEChem-02092407103D

 18 18  0     0  0  0  0  0  0999 V2000
    8.2395   12.4532   23.0659 C   0  0  0  0  0  0  0  0  0  0  0  0
    8.6455   11.1164   22.5706 C   0  0  0  0  0  0  0  0  0  0  0  0
    8.9824   10.5017   23.9015 C   0  0  0  0  0  0  0  0  0  0  0  0
    7.4797   13.4042   22.2058 C   0  0  0  0  0  0  0  0  0  0  0  0
    8.6358   12.7415   24.2626 N   0  0  0  0  0  0  0  0  0  0  0  0
    5.8457   15.4956   22.2889 N   0  0  0  0  0  0  0  0  0  0  0  0
    6.6534   14.4045   24.4738 O   0  0  0  0  0  0  0  0  0  0  0  0
    8.2838   15.7339   23.0738 O   0  0  0  0  0  0  0  0  0  0  0  0
    9.3407   11.6071   24.7374 O   0  0  0  0  0  0  0  0  0  0  0  0
    7.1456   14.8329   23.1733 S   0  0  0  0  0  0  0  0  0  0  0  0
    7.8481   10.5921   22.0419 H   0  0  0  0  0  0  0  0  0  0  0  0
    9.5234   11.2284   21.9283 H   0  0  0  0  0  0  0  0  0  0  0  0
    8.1199    9.9954   24.3487 H   0  0  0  0  0  0  0  0  0  0  0  0
    9.8157    9.7965   23.8376 H   0  0  0  0  0  0  0  0  0  0  0  0
    6.5275   12.9762   21.8953 H   0  0  0  0  0  0  0  0  0  0  0  0
    8.0649   13.7003   21.3369 H   0  0  0  0  0  0  0  0  0  0  0  0
    4.9101   15.4523   22.7113 H   0  0  0  0  0  0  0  0  0  0  0  0
    6.0206   16.3575   21.7577 H   0  0  0  0  0  0  0  0  0  0  0  0
  1  2  1  0  0  0  0
  1  4  1  0  0  0  0
  1  5  2  0  0  0  0
  2  3  1  0  0  0  0
  3  9  1  0  0  0  0
  4 10  1  0  0  0  0
  5  9  1  0  0  0  0
  6 10  1  0  0  0  0
  7 10  2  0  0  0  0
  8 10  2  0  0  0  0
  2 11  1  0  0  0  0
  2 12  1  0  0  0  0
  3 13  1  0  0  0  0
  3 14  1  0  0  0  0
  4 15  1  0  0  0  0
  4 16  1  0  0  0  0
  6 17  1  0  0  0  0
  6 18  1  0  0  0  0
M  END
> <Mol Weight>
164,18

> <Formula>
C4H8N2O3S

> <ID>
EN300-7425769

> <name>
Sulfonamides

> <LogP>
-0,95

> <ROCS_ShapeQuery>
x0310_0A_x0719_0A_x1080_0A_x0739_0A_x0929_0A_x0526_0A_x0911_0A

> <ROCS_TanimotoCombo>
0.305 

> <ROCS_ShapeTanimoto>
0.143 

> <ROCS_ColorTanimoto>
0.162 

> <ROCS_RefTversky>
0.137 

> <ROCS_RefColorTversky>
0.170 

> <ROCS_RefTverskyCombo>
0.307 

> <ROCS_FitTversky>
1.363 

> <ROCS_FitColorTversky>
0.786 

> <ROCS_FitTverskyCombo>
2.149 

> <ROCS_ColorScore>
-4.926

> <ROCS_Overlap>
1099.624

> <ROCS_Rank>
346                 

$$$$
untitled-dbase-1752_3827
  -OEChem-02092407103D

 29 29  0     0  0  0  0  0  0999 V2000
    9.9613   10.4304   23.1390 C   0  0  0  0  0  0  0  0  0  0  0  0
   10.0963   11.8124   23.2708 C   0  0  0  0  0  0  0  0  0  0  0  0
    8.7661    9.8087   23.5006 C   0  0  0  0  0  0  0  0  0  0  0  0
    7.8409   11.9510   24.1260 C   0  0  0  0  0  0  0  0  0  0  0  0
    9.0361   12.5727   23.7644 C   0  0  0  0  0  0  0  0  0  0  0  0
    7.7060   10.5690   23.9941 C   0  0  0  0  0  0  0  0  0  0  0  0
    7.4502   14.3074   21.8670 C   0  0  0  0  0  0  0  0  0  0  0  0
    4.8069   11.5692   24.7903 C   0  0  0  0  0  0  0  0  0  0  0  0
    5.7805   10.5712   25.3900 C   0  0  0  0  0  0  0  0  0  0  0  0
    3.9915   12.1761   25.8670 N   0  0  0  0  0  0  0  0  0  0  0  0
    9.1747   13.9874   23.9008 N   0  0  0  0  0  0  0  0  0  0  0  0
    6.7240   14.6593   24.3401 O   0  0  0  0  0  0  0  0  0  0  0  0
    8.2532   16.3577   23.2808 O   0  0  0  0  0  0  0  0  0  0  0  0
    6.5392    9.9631   24.3457 O   0  0  0  0  0  0  0  0  0  0  0  0
    7.8372   14.9818   23.4669 S   0  0  0  0  0  0  0  0  0  0  0  0
   10.7866    9.8384   22.7543 H   0  0  0  0  0  0  0  0  0  0  0  0
   11.0317   12.2874   22.9867 H   0  0  0  0  0  0  0  0  0  0  0  0
    8.6669    8.7318   23.3951 H   0  0  0  0  0  0  0  0  0  0  0  0
    7.0120   12.5400   24.5115 H   0  0  0  0  0  0  0  0  0  0  0  0
    6.5987   14.8547   21.4594 H   0  0  0  0  0  0  0  0  0  0  0  0
    8.3235   14.4244   21.2236 H   0  0  0  0  0  0  0  0  0  0  0  0
    7.2034   13.2517   21.9889 H   0  0  0  0  0  0  0  0  0  0  0  0
    5.3345   12.3721   24.2656 H   0  0  0  0  0  0  0  0  0  0  0  0
    4.1305   11.0684   24.0911 H   0  0  0  0  0  0  0  0  0  0  0  0
    5.2327    9.7815   25.9135 H   0  0  0  0  0  0  0  0  0  0  0  0
    6.4697   11.0528   26.0913 H   0  0  0  0  0  0  0  0  0  0  0  0
    4.6125   12.6490   26.4700 H   0  0  0  0  0  0  0  0  0  0  0  0
    3.3576   12.7966   25.4356 H   0  0  0  0  0  0  0  0  0  0  0  0
   10.0957   14.3534   23.6082 H   0  0  0  0  0  0  0  0  0  0  0  0
  1  2  2  0  0  0  0
  1  3  1  0  0  0  0
  2  5  1  0  0  0  0
  3  6  2  0  0  0  0
  4  5  2  0  0  0  0
  4  6  1  0  0  0  0
  5 11  1  0  0  0  0
  6 14  1  0  0  0  0
  7 15  1  0  0  0  0
  8  9  1  0  0  0  0
  8 10  1  0  0  0  0
  9 14  1  0  0  0  0
 11 15  1  0  0  0  0
 12 15  2  0  0  0  0
 13 15  2  0  0  0  0
  1 16  1  0  0  0  0
  2 17  1  0  0  0  0
  3 18  1  0  0  0  0
  4 19  1  0  0  0  0
  7 20  1  0  0  0  0
  7 21  1  0  0  0  0
  7 22  1  0  0  0  0
  8 23  1  0  0  0  0
  8 24  1  0  0  0  0
  9 25  1  0  0  0  0
  9 26  1  0  0  0  0
 10 27  1  0  0  0  0
 10 28  1  0  0  0  0
 11 29  1  0  0  0  0
M  END
> <Mol Weight>
230,28

> <Formula>
C9H14N2O3S

> <ID>
EN300-123564

> <name>
Sulfonamides

> <LogP>
-1,08

> <ROCS_ShapeQuery>
x0310_0A_x0719_0A_x1080_0A_x0739_0A_x0929_0A_x0526_0A_x0911_0A

> <ROCS_TanimotoCombo>
0.305 

> <ROCS_ShapeTanimoto>
0.177 

> <ROCS_ColorTanimoto>
0.128 

> <ROCS_RefTversky>
0.169 

> <ROCS_RefColorTversky>
0.146 

> <ROCS_RefTverskyCombo>
0.315 

> <ROCS_FitTversky>
1.342 

> <ROCS_FitColorTversky>
0.519 

> <ROCS_FitTverskyCombo>
1.861 

> <ROCS_ColorScore>
-4.239

> <ROCS_Overlap>
1354.174

> <ROCS_Rank>
347                 

$$$$
untitled-dbase-803_0
  -OEChem-02092407103D

 26 26  0     1  0  0  0  0  0999 V2000
    9.7499   10.5263   24.2825 C   0  0  0  0  0  0  0  0  0  0  0  0
   10.1335   11.1639   23.1027 C   0  0  0  0  0  0  0  0  0  0  0  0
    8.4509   10.6790   24.7672 C   0  0  0  0  0  0  0  0  0  0  0  0
    9.2182   11.9542   22.4076 C   0  0  0  0  0  0  0  0  0  0  0  0
    7.5355   11.4693   24.0721 C   0  0  0  0  0  0  0  0  0  0  0  0
    7.9191   12.1069   22.8923 C   0  0  0  0  0  0  0  0  0  0  0  0
    5.4740   12.5315   22.2837 C   0  0  0  0  0  0  0  0  0  0  0  0
    6.3310   15.8964   20.4112 C   0  0  0  0  0  0  0  0  0  0  0  0
    6.9280   12.9622   22.1406 C   0  0  1  0  0  0  0  0  0  0  0  0
    5.9831   15.4441   21.7703 N   0  0  0  0  0  0  0  0  0  0  0  0
    6.7945   14.6846   24.1068 O   0  0  0  0  0  0  0  0  0  0  0  0
    8.4728   15.0608   22.2634 O   0  0  0  0  0  0  0  0  0  0  0  0
    7.1592   14.6327   22.7046 S   0  0  0  0  0  0  0  0  0  0  0  0
   10.4624    9.9099   24.8230 H   0  0  0  0  0  0  0  0  0  0  0  0
   11.1447   11.0442   22.7246 H   0  0  0  0  0  0  0  0  0  0  0  0
    8.1515   10.1819   25.6852 H   0  0  0  0  0  0  0  0  0  0  0  0
    9.5260   12.4473   21.4893 H   0  0  0  0  0  0  0  0  0  0  0  0
    6.5256   11.5826   24.4573 H   0  0  0  0  0  0  0  0  0  0  0  0
    5.1746   12.5037   23.3368 H   0  0  0  0  0  0  0  0  0  0  0  0
    4.7882   13.2003   21.7530 H   0  0  0  0  0  0  0  0  0  0  0  0
    5.3299   11.5297   21.8640 H   0  0  0  0  0  0  0  0  0  0  0  0
    7.0097   15.1676   19.9442 H   0  0  0  0  0  0  0  0  0  0  0  0
    5.4152   15.9833   19.8082 H   0  0  0  0  0  0  0  0  0  0  0  0
    6.8276   16.8763   20.4670 H   0  0  0  0  0  0  0  0  0  0  0  0
    7.1777   12.9742   21.0730 H   0  0  0  0  0  0  0  0  0  0  0  0
    5.3480   16.0788   22.2715 H   0  0  0  0  0  0  0  0  0  0  0  0
  1  2  1  0  0  0  0
  1  3  2  0  0  0  0
  2  4  2  0  0  0  0
  3  5  1  0  0  0  0
  4  6  1  0  0  0  0
  5  6  2  0  0  0  0
  6  9  1  0  0  0  0
  7  9  1  6  0  0  0
  8 10  1  0  0  0  0
  9 13  1  0  0  0  0
 10 13  1  0  0  0  0
 11 13  2  0  0  0  0
 12 13  2  0  0  0  0
  1 14  1  0  0  0  0
  2 15  1  0  0  0  0
  3 16  1  0  0  0  0
  4 17  1  0  0  0  0
  5 18  1  0  0  0  0
  7 19  1  0  0  0  0
  7 20  1  0  0  0  0
  7 21  1  0  0  0  0
  8 22  1  0  0  0  0
  8 23  1  0  0  0  0
  8 24  1  0  0  0  0
  9 25  1  0  0  0  0
 10 26  1  0  0  0  0
M  END
> <Mol Weight>
199,27

> <Formula>
C9H13NO2S

> <ID>
EN300-26862956

> <name>
Sulfonamides

> <LogP>
1,13

> <ROCS_ShapeQuery>
x0310_0A_x0719_0A_x1080_0A_x0739_0A_x0929_0A_x0526_0A_x0911_0A

> <ROCS_TanimotoCombo>
0.305 

> <ROCS_ShapeTanimoto>
0.150 

> <ROCS_ColorTanimoto>
0.155 

> <ROCS_RefTversky>
0.146 

> <ROCS_RefColorTversky>
0.159 

> <ROCS_RefTverskyCombo>
0.304 

> <ROCS_FitTversky>
1.259 

> <ROCS_FitColorTversky>
0.865 

> <ROCS_FitTverskyCombo>
2.123 

> <ROCS_ColorScore>
-4.597

> <ROCS_Overlap>
1164.976

> <ROCS_Rank>
348                 

$$$$
untitled-dbase-801_0
  -OEChem-02092407103D

 26 26  0     1  0  0  0  0  0999 V2000
    9.7499   10.5263   24.2825 C   0  0  0  0  0  0  0  0  0  0  0  0
   10.1335   11.1639   23.1027 C   0  0  0  0  0  0  0  0  0  0  0  0
    8.4509   10.6790   24.7672 C   0  0  0  0  0  0  0  0  0  0  0  0
    9.2182   11.9542   22.4076 C   0  0  0  0  0  0  0  0  0  0  0  0
    7.5355   11.4693   24.0721 C   0  0  0  0  0  0  0  0  0  0  0  0
    7.9191   12.1069   22.8923 C   0  0  0  0  0  0  0  0  0  0  0  0
    5.4740   12.5315   22.2837 C   0  0  0  0  0  0  0  0  0  0  0  0
    6.3310   15.8964   20.4112 C   0  0  0  0  0  0  0  0  0  0  0  0
    6.9280   12.9622   22.1406 C   0  0  1  0  0  0  0  0  0  0  0  0
    5.9831   15.4441   21.7703 N   0  0  0  0  0  0  0  0  0  0  0  0
    6.7945   14.6846   24.1068 O   0  0  0  0  0  0  0  0  0  0  0  0
    8.4728   15.0608   22.2634 O   0  0  0  0  0  0  0  0  0  0  0  0
    7.1592   14.6327   22.7046 S   0  0  0  0  0  0  0  0  0  0  0  0
   10.4624    9.9099   24.8230 H   0  0  0  0  0  0  0  0  0  0  0  0
   11.1447   11.0442   22.7246 H   0  0  0  0  0  0  0  0  0  0  0  0
    8.1515   10.1819   25.6852 H   0  0  0  0  0  0  0  0  0  0  0  0
    9.5260   12.4473   21.4893 H   0  0  0  0  0  0  0  0  0  0  0  0
    6.5256   11.5826   24.4573 H   0  0  0  0  0  0  0  0  0  0  0  0
    5.1746   12.5037   23.3368 H   0  0  0  0  0  0  0  0  0  0  0  0
    4.7882   13.2003   21.7530 H   0  0  0  0  0  0  0  0  0  0  0  0
    5.3299   11.5297   21.8640 H   0  0  0  0  0  0  0  0  0  0  0  0
    7.0097   15.1676   19.9442 H   0  0  0  0  0  0  0  0  0  0  0  0
    5.4152   15.9833   19.8082 H   0  0  0  0  0  0  0  0  0  0  0  0
    6.8276   16.8763   20.4670 H   0  0  0  0  0  0  0  0  0  0  0  0
    7.1777   12.9742   21.0730 H   0  0  0  0  0  0  0  0  0  0  0  0
    5.3480   16.0788   22.2715 H   0  0  0  0  0  0  0  0  0  0  0  0
  1  2  1  0  0  0  0
  1  3  2  0  0  0  0
  2  4  2  0  0  0  0
  3  5  1  0  0  0  0
  4  6  1  0  0  0  0
  5  6  2  0  0  0  0
  6  9  1  0  0  0  0
  7  9  1  0  0  0  0
  8 10  1  0  0  0  0
  9 13  1  0  0  0  0
 10 13  1  0  0  0  0
 11 13  2  0  0  0  0
 12 13  2  0  0  0  0
  1 14  1  0  0  0  0
  2 15  1  0  0  0  0
  3 16  1  0  0  0  0
  4 17  1  0  0  0  0
  5 18  1  0  0  0  0
  7 19  1  0  0  0  0
  7 20  1  0  0  0  0
  7 21  1  0  0  0  0
  8 22  1  0  0  0  0
  8 23  1  0  0  0  0
  8 24  1  0  0  0  0
  9 25  1  0  0  0  0
 10 26  1  0  0  0  0
M  END
> <Mol Weight>
199,27

> <Formula>
C9H13NO2S

> <ID>
EN300-215315

> <name>
Sulfonamides

> <LogP>
1,13

> <ROCS_ShapeQuery>
x0310_0A_x0719_0A_x1080_0A_x0739_0A_x0929_0A_x0526_0A_x0911_0A

> <ROCS_TanimotoCombo>
0.305 

> <ROCS_ShapeTanimoto>
0.150 

> <ROCS_ColorTanimoto>
0.155 

> <ROCS_RefTversky>
0.146 

> <ROCS_RefColorTversky>
0.159 

> <ROCS_RefTverskyCombo>
0.304 

> <ROCS_FitTversky>
1.259 

> <ROCS_FitColorTversky>
0.865 

> <ROCS_FitTverskyCombo>
2.123 

> <ROCS_ColorScore>
-4.597

> <ROCS_Overlap>
1164.976

> <ROCS_Rank>
349                 

$$$$
untitled-dbase-1848_39
  -OEChem-02092407103D

 32 33  0     1  0  0  0  0  0999 V2000
    9.0984   11.4358   22.3553 C   0  0  0  0  0  0  0  0  0  0  0  0
    8.8878   10.2318   23.2422 C   0  0  0  0  0  0  0  0  0  0  0  0
   10.3352   10.8908   25.2444 C   0  0  0  0  0  0  0  0  0  0  0  0
    7.9919   10.1097   25.6263 C   0  0  0  0  0  0  0  0  0  0  0  0
   10.8025    9.5174   25.7133 C   0  0  0  0  0  0  0  0  0  0  0  0
    8.5766    8.7671   26.0433 C   0  0  0  0  0  0  0  0  0  0  0  0
    8.3143   12.4995   23.0997 C   0  0  2  0  0  0  0  0  0  0  0  0
    8.9175   10.8425   24.6485 C   0  0  0  0  0  0  0  0  0  0  0  0
    8.7989   13.9099   22.8256 C   0  0  0  0  0  0  0  0  0  0  0  0
    6.5952   14.9832   21.8045 N   0  0  0  0  0  0  0  0  0  0  0  0
    6.7920   14.6153   24.3428 O   0  0  0  0  0  0  0  0  0  0  0  0
    8.1802   16.4148   23.2382 O   0  0  0  0  0  0  0  0  0  0  0  0
    9.8674    8.9444   26.6266 O   0  0  0  0  0  0  0  0  0  0  0  0
    8.4551   12.2013   24.4976 O   0  0  0  0  0  0  0  0  0  0  0  0
    7.5582   15.1013   23.2071 S   0  0  0  0  0  0  0  0  0  0  0  0
   10.1650   11.6854   22.3104 H   0  0  0  0  0  0  0  0  0  0  0  0
    8.7424   11.2860   21.3321 H   0  0  0  0  0  0  0  0  0  0  0  0
    7.9023    9.7998   23.0296 H   0  0  0  0  0  0  0  0  0  0  0  0
    9.6352    9.4485   23.0890 H   0  0  0  0  0  0  0  0  0  0  0  0
   10.3829   11.5857   26.0943 H   0  0  0  0  0  0  0  0  0  0  0  0
   11.0336   11.2560   24.4767 H   0  0  0  0  0  0  0  0  0  0  0  0
    7.0222    9.9402   25.1413 H   0  0  0  0  0  0  0  0  0  0  0  0
    7.8214   10.7153   26.5243 H   0  0  0  0  0  0  0  0  0  0  0  0
   10.8854    8.8411   24.8553 H   0  0  0  0  0  0  0  0  0  0  0  0
   11.7915    9.5668   26.1860 H   0  0  0  0  0  0  0  0  0  0  0  0
    7.9247    8.2437   26.7510 H   0  0  0  0  0  0  0  0  0  0  0  0
    8.6943    8.1246   25.1660 H   0  0  0  0  0  0  0  0  0  0  0  0
    7.2477   12.4222   22.8589 H   0  0  0  0  0  0  0  0  0  0  0  0
    9.0549   14.0335   21.7712 H   0  0  0  0  0  0  0  0  0  0  0  0
    9.6735   14.1445   23.4359 H   0  0  0  0  0  0  0  0  0  0  0  0
    6.9798   15.3568   20.9281 H   0  0  0  0  0  0  0  0  0  0  0  0
    6.0343   14.1314   21.6806 H   0  0  0  0  0  0  0  0  0  0  0  0
  1  2  1  0  0  0  0
  1  7  1  0  0  0  0
  2  8  1  0  0  0  0
  3  5  1  0  0  0  0
  3  8  1  0  0  0  0
  4  6  1  0  0  0  0
  4  8  1  0  0  0  0
  5 13  1  0  0  0  0
  6 13  1  0  0  0  0
  7  9  1  0  0  0  0
  7 14  1  0  0  0  0
  8 14  1  0  0  0  0
  9 15  1  0  0  0  0
 10 15  1  0  0  0  0
 11 15  2  0  0  0  0
 12 15  2  0  0  0  0
  1 16  1  0  0  0  0
  1 17  1  0  0  0  0
  2 18  1  0  0  0  0
  2 19  1  0  0  0  0
  3 20  1  0  0  0  0
  3 21  1  0  0  0  0
  4 22  1  0  0  0  0
  4 23  1  0  0  0  0
  5 24  1  0  0  0  0
  5 25  1  0  0  0  0
  6 26  1  0  0  0  0
  6 27  1  0  0  0  0
  7 28  1  0  0  0  0
  9 29  1  0  0  0  0
  9 30  1  0  0  0  0
 10 31  1  0  0  0  0
 10 32  1  0  0  0  0
M  END
> <Mol Weight>
235,30

> <Formula>
C9H17NO4S

> <ID>
EN300-6489320

> <name>
Sulfonamides

> <LogP>
-1,08

> <ROCS_ShapeQuery>
x0310_0A_x0719_0A_x1080_0A_x0739_0A_x0929_0A_x0526_0A_x0911_0A

> <ROCS_TanimotoCombo>
0.305 

> <ROCS_ShapeTanimoto>
0.155 

> <ROCS_ColorTanimoto>
0.149 

> <ROCS_RefTversky>
0.152 

> <ROCS_RefColorTversky>
0.167 

> <ROCS_RefTverskyCombo>
0.318 

> <ROCS_FitTversky>
1.191 

> <ROCS_FitColorTversky>
0.593 

> <ROCS_FitTverskyCombo>
1.785 

> <ROCS_ColorScore>
-4.847

> <ROCS_Overlap>
1214.422

> <ROCS_Rank>
350                 

$$$$
untitled-dbase-1450_59
  -OEChem-02092407103D

 35 35  0     0  0  0  0  0  0999 V2000
    9.0013   11.4025   22.2393 C   0  0  0  0  0  0  0  0  0  0  0  0
    9.9969   11.2822   24.5606 C   0  0  0  0  0  0  0  0  0  0  0  0
    7.7957   10.5874   22.7119 C   0  0  0  0  0  0  0  0  0  0  0  0
    8.7929   10.4669   25.0370 C   0  0  0  0  0  0  0  0  0  0  0  0
    9.6748   12.1929   23.3686 C   0  0  0  0  0  0  0  0  0  0  0  0
    8.1092    9.6622   23.9090 C   0  0  0  0  0  0  0  0  0  0  0  0
    9.0048    8.4888   23.4645 C   0  0  0  0  0  0  0  0  0  0  0  0
    6.7901    9.0728   24.4437 C   0  0  0  0  0  0  0  0  0  0  0  0
    8.8324   13.3998   23.7924 C   0  0  0  0  0  0  0  0  0  0  0  0
    8.1766   14.0581   22.5936 C   0  0  0  0  0  0  0  0  0  0  0  0
    6.2049   15.6106   21.7258 N   0  0  0  0  0  0  0  0  0  0  0  0
    6.4266   15.0919   24.2355 O   0  0  0  0  0  0  0  0  0  0  0  0
    8.1125   16.6148   23.1292 O   0  0  0  0  0  0  0  0  0  0  0  0
    7.2278   15.4634   23.0819 S   0  0  0  0  0  0  0  0  0  0  0  0
    9.7349   10.7177   21.7818 H   0  0  0  0  0  0  0  0  0  0  0  0
    8.6935   12.0867   21.4312 H   0  0  0  0  0  0  0  0  0  0  0  0
   10.3941   11.8814   25.3967 H   0  0  0  0  0  0  0  0  0  0  0  0
   10.8080   10.5880   24.2841 H   0  0  0  0  0  0  0  0  0  0  0  0
    6.9763   11.2719   22.9652 H   0  0  0  0  0  0  0  0  0  0  0  0
    7.4404    9.9820   21.8670 H   0  0  0  0  0  0  0  0  0  0  0  0
    9.1358    9.7771   25.8201 H   0  0  0  0  0  0  0  0  0  0  0  0
    8.0701   11.1396   25.5155 H   0  0  0  0  0  0  0  0  0  0  0  0
   10.6367   12.5834   22.9764 H   0  0  0  0  0  0  0  0  0  0  0  0
    9.2109    7.8546   24.3196 H   0  0  0  0  0  0  0  0  0  0  0  0
    9.9339    8.8813   23.0664 H   0  0  0  0  0  0  0  0  0  0  0  0
    8.4898    7.9179   22.6998 H   0  0  0  0  0  0  0  0  0  0  0  0
    7.0062    8.4228   25.2841 H   0  0  0  0  0  0  0  0  0  0  0  0
    6.3088    8.5056   23.6550 H   0  0  0  0  0  0  0  0  0  0  0  0
    6.1426    9.8820   24.7621 H   0  0  0  0  0  0  0  0  0  0  0  0
    9.4742   14.1152   24.3143 H   0  0  0  0  0  0  0  0  0  0  0  0
    8.0726   13.0696   24.5065 H   0  0  0  0  0  0  0  0  0  0  0  0
    8.9207   14.4116   21.8736 H   0  0  0  0  0  0  0  0  0  0  0  0
    7.4916   13.3732   22.0850 H   0  0  0  0  0  0  0  0  0  0  0  0
    5.2141   15.3667   21.8454 H   0  0  0  0  0  0  0  0  0  0  0  0
    6.3625   16.4037   21.0920 H   0  0  0  0  0  0  0  0  0  0  0  0
  1  3  1  0  0  0  0
  1  5  1  0  0  0  0
  2  4  1  0  0  0  0
  2  5  1  0  0  0  0
  3  6  1  0  0  0  0
  4  6  1  0  0  0  0
  5  9  1  0  0  0  0
  6  7  1  0  0  0  0
  6  8  1  0  0  0  0
  9 10  1  0  0  0  0
 10 14  1  0  0  0  0
 11 14  1  0  0  0  0
 12 14  2  0  0  0  0
 13 14  2  0  0  0  0
  1 15  1  0  0  0  0
  1 16  1  0  0  0  0
  2 17  1  0  0  0  0
  2 18  1  0  0  0  0
  3 19  1  0  0  0  0
  3 20  1  0  0  0  0
  4 21  1  0  0  0  0
  4 22  1  0  0  0  0
  5 23  1  0  0  0  0
  7 24  1  0  0  0  0
  7 25  1  0  0  0  0
  7 26  1  0  0  0  0
  8 27  1  0  0  0  0
  8 28  1  0  0  0  0
  8 29  1  0  0  0  0
  9 30  1  0  0  0  0
  9 31  1  0  0  0  0
 10 32  1  0  0  0  0
 10 33  1  0  0  0  0
 11 34  1  0  0  0  0
 11 35  1  0  0  0  0
M  END
> <Mol Weight>
219,34

> <Formula>
C10H21NO2S

> <ID>
EN300-1671696

> <name>
Sulfonamides

> <LogP>
1,68

> <ROCS_ShapeQuery>
x0310_0A_x0719_0A_x1080_0A_x0739_0A_x0929_0A_x0526_0A_x0911_0A

> <ROCS_TanimotoCombo>
0.305 

> <ROCS_ShapeTanimoto>
0.158 

> <ROCS_ColorTanimoto>
0.147 

> <ROCS_RefTversky>
0.152 

> <ROCS_RefColorTversky>
0.156 

> <ROCS_RefTverskyCombo>
0.308 

> <ROCS_FitTversky>
1.295 

> <ROCS_FitColorTversky>
0.721 

> <ROCS_FitTverskyCombo>
2.016 

> <ROCS_ColorScore>
-4.521

> <ROCS_Overlap>
1219.110

> <ROCS_Rank>
351                 

$$$$
untitled-dbase-266_0
  -OEChem-02092407103D

 19 19  0     0  0  0  0  0  0999 V2000
   10.2394   11.3035   23.9371 C   0  0  0  0  0  0  0  0  0  0  0  0
    9.6746   10.0543   24.1379 C   0  0  0  0  0  0  0  0  0  0  0  0
    7.5651   10.8336   23.6678 C   0  0  0  0  0  0  0  0  0  0  0  0
    9.3950   12.3504   23.5844 C   0  0  0  0  0  0  0  0  0  0  0  0
    8.0310   12.1193   23.4452 C   0  0  0  0  0  0  0  0  0  0  0  0
    9.9808   13.7057   23.3627 C   0  0  0  0  0  0  0  0  0  0  0  0
    8.3545    9.7914   24.0119 N   0  0  0  0  0  0  0  0  0  0  0  0
    5.4365   12.5266   22.9896 N   0  0  0  0  0  0  0  0  0  0  0  0
    6.8773   14.3631   24.0836 O   0  0  0  0  0  0  0  0  0  0  0  0
    7.2158   13.8184   21.6471 O   0  0  0  0  0  0  0  0  0  0  0  0
    6.9142   13.3849   23.0048 S   0  0  0  0  0  0  0  0  0  0  0  0
   11.3077   11.4502   24.0542 H   0  0  0  0  0  0  0  0  0  0  0  0
   10.2899    9.2046   24.4150 H   0  0  0  0  0  0  0  0  0  0  0  0
    6.5111   10.5907   23.5745 H   0  0  0  0  0  0  0  0  0  0  0  0
   10.2692   13.8282   22.3122 H   0  0  0  0  0  0  0  0  0  0  0  0
    9.2644   14.4950   23.6226 H   0  0  0  0  0  0  0  0  0  0  0  0
   10.8681   13.8617   23.9891 H   0  0  0  0  0  0  0  0  0  0  0  0
    4.7643   12.7104   23.7445 H   0  0  0  0  0  0  0  0  0  0  0  0
    4.9979   12.3376   22.0801 H   0  0  0  0  0  0  0  0  0  0  0  0
  1  2  2  0  0  0  0
  1  4  1  0  0  0  0
  2  7  1  0  0  0  0
  3  5  1  0  0  0  0
  3  7  2  0  0  0  0
  4  5  2  0  0  0  0
  4  6  1  0  0  0  0
  5 11  1  0  0  0  0
  8 11  1  0  0  0  0
  9 11  2  0  0  0  0
 10 11  2  0  0  0  0
  1 12  1  0  0  0  0
  2 13  1  0  0  0  0
  3 14  1  0  0  0  0
  6 15  1  0  0  0  0
  6 16  1  0  0  0  0
  6 17  1  0  0  0  0
  8 18  1  0  0  0  0
  8 19  1  0  0  0  0
M  END
> <Mol Weight>
172,20

> <Formula>
C6H8N2O2S

> <ID>
EN300-253108

> <name>
Sulfonamides

> <LogP>
-0,12

> <ROCS_ShapeQuery>
x0310_0A_x0719_0A_x1080_0A_x0739_0A_x0929_0A_x0526_0A_x0911_0A

> <ROCS_TanimotoCombo>
0.305 

> <ROCS_ShapeTanimoto>
0.138 

> <ROCS_ColorTanimoto>
0.167 

> <ROCS_RefTversky>
0.134 

> <ROCS_RefColorTversky>
0.174 

> <ROCS_RefTverskyCombo>
0.308 

> <ROCS_FitTversky>
1.254 

> <ROCS_FitColorTversky>
0.805 

> <ROCS_FitTverskyCombo>
2.059 

> <ROCS_ColorScore>
-5.046

> <ROCS_Overlap>
1072.379

> <ROCS_Rank>
352                 

$$$$
untitled-dbase-1994_5
  -OEChem-02092407103D

 23 24  0     0  0  0  0  0  0999 V2000
    9.5315   10.2383   23.1224 C   0  0  0  0  0  0  0  0  0  0  0  0
    8.7756    9.9860   24.2672 C   0  0  0  0  0  0  0  0  0  0  0  0
    9.5410   11.5149   22.5602 C   0  0  0  0  0  0  0  0  0  0  0  0
    8.0293   11.0102   24.8499 C   0  0  0  0  0  0  0  0  0  0  0  0
    8.7946   12.5391   23.1429 C   0  0  0  0  0  0  0  0  0  0  0  0
    6.0126   14.7083   26.4308 C   0  0  0  0  0  0  0  0  0  0  0  0
    8.0388   12.2868   24.2877 C   0  0  0  0  0  0  0  0  0  0  0  0
    6.1769   15.2289   25.1643 C   0  0  0  0  0  0  0  0  0  0  0  0
    7.2677   13.3460   24.8909 C   0  0  0  0  0  0  0  0  0  0  0  0
    6.8967   14.4493   24.2800 N   0  0  0  0  0  0  0  0  0  0  0  0
    6.8299   17.8102   25.0417 N   0  0  0  0  0  0  0  0  0  0  0  0
    5.3847   16.7368   23.1966 O   0  0  0  0  0  0  0  0  0  0  0  0
    4.3934   17.1000   25.4841 O   0  0  0  0  0  0  0  0  0  0  0  0
    6.7850   13.1802   26.5293 S   0  0  0  0  0  0  0  0  0  0  0  0
    5.5476   16.7393   24.6541 S   0  0  0  0  0  0  0  0  0  0  0  0
   10.1131    9.4409   22.6690 H   0  0  0  0  0  0  0  0  0  0  0  0
    8.7682    8.9919   24.7046 H   0  0  0  0  0  0  0  0  0  0  0  0
   10.1305   11.7116   21.6694 H   0  0  0  0  0  0  0  0  0  0  0  0
    7.4473   10.7983   25.7436 H   0  0  0  0  0  0  0  0  0  0  0  0
    8.8117   13.5285   22.6921 H   0  0  0  0  0  0  0  0  0  0  0  0
    5.4909   15.1325   27.2771 H   0  0  0  0  0  0  0  0  0  0  0  0
    7.0037   18.0240   26.0314 H   0  0  0  0  0  0  0  0  0  0  0  0
    7.6816   17.7783   24.4681 H   0  0  0  0  0  0  0  0  0  0  0  0
  1  2  1  0  0  0  0
  1  3  2  0  0  0  0
  2  4  2  0  0  0  0
  3  5  1  0  0  0  0
  4  7  1  0  0  0  0
  5  7  2  0  0  0  0
  6  8  2  0  0  0  0
  6 14  1  0  0  0  0
  7  9  1  0  0  0  0
  8 10  1  0  0  0  0
  8 15  1  0  0  0  0
  9 10  2  0  0  0  0
  9 14  1  0  0  0  0
 11 15  1  0  0  0  0
 12 15  2  0  0  0  0
 13 15  2  0  0  0  0
  1 16  1  0  0  0  0
  2 17  1  0  0  0  0
  3 18  1  0  0  0  0
  4 19  1  0  0  0  0
  5 20  1  0  0  0  0
  6 21  1  0  0  0  0
 11 22  1  0  0  0  0
 11 23  1  0  0  0  0
M  END
> <Mol Weight>
240,30

> <Formula>
C9H8N2O2S2

> <ID>
EN300-214630

> <name>
Sulfonamides

> <LogP>
1,86

> <ROCS_ShapeQuery>
x0310_0A_x0719_0A_x1080_0A_x0739_0A_x0929_0A_x0526_0A_x0911_0A

> <ROCS_TanimotoCombo>
0.305 

> <ROCS_ShapeTanimoto>
0.169 

> <ROCS_ColorTanimoto>
0.136 

> <ROCS_RefTversky>
0.163 

> <ROCS_RefColorTversky>
0.149 

> <ROCS_RefTverskyCombo>
0.312 

> <ROCS_FitTversky>
1.270 

> <ROCS_FitColorTversky>
0.601 

> <ROCS_FitTverskyCombo>
1.872 

> <ROCS_ColorScore>
-4.341

> <ROCS_Overlap>
1304.821

> <ROCS_Rank>
353                 

$$$$
untitled-dbase-1819_369
  -OEChem-02092407103D

 34 35  0     1  0  0  0  0  0999 V2000
    8.3448   10.2575   23.3637 C   0  0  0  0  0  0  0  0  0  0  0  0
    9.7177   10.8789   23.1146 C   0  0  0  0  0  0  0  0  0  0  0  0
    7.5570   11.3072   24.1349 C   0  0  0  0  0  0  0  0  0  0  0  0
    9.6333   12.3148   23.6288 C   0  0  0  0  0  0  0  0  0  0  0  0
    8.3430   15.3503   22.9432 C   0  0  0  0  0  0  0  0  0  0  0  0
    7.5663   13.0565   22.2835 C   0  0  0  0  0  0  0  0  0  0  0  0
    8.4046   14.9191   24.4072 C   0  0  0  0  0  0  0  0  0  0  0  0
    7.3102   14.5626   22.1492 C   0  0  1  0  0  0  0  0  0  0  0  0
    8.1328   12.6507   23.6663 C   0  0  0  0  0  0  0  0  0  0  0  0
    3.6854   16.2662   22.5700 C   0  0  0  0  0  0  0  0  0  0  0  0
    5.9801   14.8827   22.6312 N   0  0  0  0  0  0  0  0  0  0  0  0
    5.8202   17.0971   21.3041 O   0  0  0  0  0  0  0  0  0  0  0  0
    5.7991   17.1398   23.8248 O   0  0  0  0  0  0  0  0  0  0  0  0
    7.8273   13.6366   24.6479 O   0  0  0  0  0  0  0  0  0  0  0  0
    5.4482   16.4997   22.5716 S   0  0  0  0  0  0  0  0  0  0  0  0
    7.8441    9.9945   22.4283 H   0  0  0  0  0  0  0  0  0  0  0  0
    8.4520    9.3410   23.9519 H   0  0  0  0  0  0  0  0  0  0  0  0
   10.4838   10.3210   23.6683 H   0  0  0  0  0  0  0  0  0  0  0  0
    9.9944   10.8490   22.0548 H   0  0  0  0  0  0  0  0  0  0  0  0
    6.4925   11.2273   23.8782 H   0  0  0  0  0  0  0  0  0  0  0  0
    7.6605   11.1580   25.2161 H   0  0  0  0  0  0  0  0  0  0  0  0
   10.1387   12.4053   24.5998 H   0  0  0  0  0  0  0  0  0  0  0  0
   10.1592   12.9832   22.9276 H   0  0  0  0  0  0  0  0  0  0  0  0
    8.0936   16.4279   22.9029 H   0  0  0  0  0  0  0  0  0  0  0  0
    9.3432   15.2569   22.4819 H   0  0  0  0  0  0  0  0  0  0  0  0
    6.6121   12.5206   22.1243 H   0  0  0  0  0  0  0  0  0  0  0  0
    8.2355   12.7118   21.4752 H   0  0  0  0  0  0  0  0  0  0  0  0
    9.4420   14.9380   24.7803 H   0  0  0  0  0  0  0  0  0  0  0  0
    7.8522   15.6464   25.0241 H   0  0  0  0  0  0  0  0  0  0  0  0
    7.3683   14.8511   21.0846 H   0  0  0  0  0  0  0  0  0  0  0  0
    3.2082   17.2467   22.5330 H   0  0  0  0  0  0  0  0  0  0  0  0
    3.4170   15.6769   21.6919 H   0  0  0  0  0  0  0  0  0  0  0  0
    3.4071   15.7395   23.4840 H   0  0  0  0  0  0  0  0  0  0  0  0
    5.6909   14.3202   23.4378 H   0  0  0  0  0  0  0  0  0  0  0  0
  1  2  1  0  0  0  0
  1  3  1  0  0  0  0
  2  4  1  0  0  0  0
  3  9  1  0  0  0  0
  4  9  1  0  0  0  0
  5  7  1  0  0  0  0
  5  8  1  0  0  0  0
  6  8  1  0  0  0  0
  6  9  1  0  0  0  0
  7 14  1  0  0  0  0
  8 11  1  0  0  0  0
  9 14  1  0  0  0  0
 10 15  1  0  0  0  0
 11 15  1  0  0  0  0
 12 15  2  0  0  0  0
 13 15  2  0  0  0  0
  1 16  1  0  0  0  0
  1 17  1  0  0  0  0
  2 18  1  0  0  0  0
  2 19  1  0  0  0  0
  3 20  1  0  0  0  0
  3 21  1  0  0  0  0
  4 22  1  0  0  0  0
  4 23  1  0  0  0  0
  5 24  1  0  0  0  0
  5 25  1  0  0  0  0
  6 26  1  0  0  0  0
  6 27  1  0  0  0  0
  7 28  1  0  0  0  0
  7 29  1  0  0  0  0
  8 30  1  0  0  0  0
 10 31  1  0  0  0  0
 10 32  1  0  0  0  0
 10 33  1  0  0  0  0
 11 34  1  0  0  0  0
M  END
> <Mol Weight>
233,33

> <Formula>
C10H19NO3S

> <ID>
EN300-7511690

> <name>
Sulfonamides

> <LogP>
-0,07

> <ROCS_ShapeQuery>
x0310_0A_x0719_0A_x1080_0A_x0739_0A_x0929_0A_x0526_0A_x0911_0A

> <ROCS_TanimotoCombo>
0.305 

> <ROCS_ShapeTanimoto>
0.186 

> <ROCS_ColorTanimoto>
0.119 

> <ROCS_RefTversky>
0.177 

> <ROCS_RefColorTversky>
0.132 

> <ROCS_RefTverskyCombo>
0.309 

> <ROCS_FitTversky>
1.394 

> <ROCS_FitColorTversky>
0.533 

> <ROCS_FitTverskyCombo>
1.927 

> <ROCS_ColorScore>
-3.850

> <ROCS_Overlap>
1414.203

> <ROCS_Rank>
354                 

$$$$
untitled-dbase-2680_4
  -OEChem-02092407103D

 28 29  0     0  0  0  0  0  0999 V2000
    5.3923   13.0356   21.6030 C   0  0  0  0  0  0  0  0  0  0  0  0
    6.9569   12.3469   19.8957 C   0  0  0  0  0  0  0  0  0  0  0  0
    9.3279   11.5274   22.3983 C   0  0  0  0  0  0  0  0  0  0  0  0
    7.7637   12.2163   24.1059 C   0  0  0  0  0  0  0  0  0  0  0  0
    4.3307   12.6356   20.7915 C   0  0  0  0  0  0  0  0  0  0  0  0
    5.8953   11.9469   19.0842 C   0  0  0  0  0  0  0  0  0  0  0  0
    9.8669   10.5838   23.2727 C   0  0  0  0  0  0  0  0  0  0  0  0
    8.3027   11.2726   24.9803 C   0  0  0  0  0  0  0  0  0  0  0  0
    6.7054   12.8913   21.1551 C   0  0  0  0  0  0  0  0  0  0  0  0
    8.2763   12.3438   22.8149 C   0  0  0  0  0  0  0  0  0  0  0  0
    4.5822   12.0912   19.5321 C   0  0  0  0  0  0  0  0  0  0  0  0
    9.3543   10.4564   24.5637 C   0  0  0  0  0  0  0  0  0  0  0  0
    3.0662    9.9639   19.0016 N   0  0  0  0  0  0  0  0  0  0  0  0
    2.0672   12.3386   18.9098 O   0  0  0  0  0  0  0  0  0  0  0  0
    3.6967   11.6169   17.1289 O   0  0  0  0  0  0  0  0  0  0  0  0
    7.7415   13.2811   21.9472 O   0  0  0  0  0  0  0  0  0  0  0  0
    3.2531   11.5913   18.5156 S   0  0  0  0  0  0  0  0  0  0  0  0
   10.0201    9.2931   25.6431 Cl  0  0  0  0  0  0  0  0  0  0  0  0
    5.1902   13.4583   22.5834 H   0  0  0  0  0  0  0  0  0  0  0  0
    7.9776   12.2320   19.5414 H   0  0  0  0  0  0  0  0  0  0  0  0
    9.7321   11.6218   21.3943 H   0  0  0  0  0  0  0  0  0  0  0  0
    6.9450   12.8496   24.4362 H   0  0  0  0  0  0  0  0  0  0  0  0
    3.3117   12.7527   21.1503 H   0  0  0  0  0  0  0  0  0  0  0  0
    6.1023   11.5243   18.1047 H   0  0  0  0  0  0  0  0  0  0  0  0
   10.6870    9.9549   22.9350 H   0  0  0  0  0  0  0  0  0  0  0  0
    7.8940   11.1849   25.9839 H   0  0  0  0  0  0  0  0  0  0  0  0
    2.2398    9.7200   19.5610 H   0  0  0  0  0  0  0  0  0  0  0  0
    3.3548    9.2287   18.3448 H   0  0  0  0  0  0  0  0  0  0  0  0
  1  5  2  0  0  0  0
  1  9  1  0  0  0  0
  2  6  1  0  0  0  0
  2  9  2  0  0  0  0
  3  7  2  0  0  0  0
  3 10  1  0  0  0  0
  4  8  1  0  0  0  0
  4 10  2  0  0  0  0
  5 11  1  0  0  0  0
  6 11  2  0  0  0  0
  7 12  1  0  0  0  0
  8 12  2  0  0  0  0
  9 16  1  0  0  0  0
 10 16  1  0  0  0  0
 11 17  1  0  0  0  0
 12 18  1  0  0  0  0
 13 17  1  0  0  0  0
 14 17  2  0  0  0  0
 15 17  2  0  0  0  0
  1 19  1  0  0  0  0
  2 20  1  0  0  0  0
  3 21  1  0  0  0  0
  4 22  1  0  0  0  0
  5 23  1  0  0  0  0
  6 24  1  0  0  0  0
  7 25  1  0  0  0  0
  8 26  1  0  0  0  0
 13 27  1  0  0  0  0
 13 28  1  0  0  0  0
M  END
> <Mol Weight>
283,73

> <Formula>
C12H10ClNO3S

> <ID>
EN300-216535

> <name>
Sulfonamides

> <LogP>
2,68

> <ROCS_ShapeQuery>
x0310_0A_x0719_0A_x1080_0A_x0739_0A_x0929_0A_x0526_0A_x0911_0A

> <ROCS_TanimotoCombo>
0.304 

> <ROCS_ShapeTanimoto>
0.202 

> <ROCS_ColorTanimoto>
0.103 

> <ROCS_RefTversky>
0.192 

> <ROCS_RefColorTversky>
0.116 

> <ROCS_RefTverskyCombo>
0.308 

> <ROCS_FitTversky>
1.329 

> <ROCS_FitColorTversky>
0.468 

> <ROCS_FitTverskyCombo>
1.797 

> <ROCS_ColorScore>
-3.381

> <ROCS_Overlap>
1540.411

> <ROCS_Rank>
355                 

$$$$
untitled-dbase-2162_469
  -OEChem-02092407103D

 28 28  0     0  0  0  0  0  0999 V2000
    8.5804   11.3237   25.0535 C   0  0  0  0  0  0  0  0  0  0  0  0
    9.0107   10.1303   24.4737 C   0  0  0  0  0  0  0  0  0  0  0  0
    9.0682   11.2025   22.3094 C   0  0  0  0  0  0  0  0  0  0  0  0
    8.3938   12.4565   24.2612 C   0  0  0  0  0  0  0  0  0  0  0  0
    9.2547   10.0697   23.1017 C   0  0  0  0  0  0  0  0  0  0  0  0
    8.6378   12.3959   22.8892 C   0  0  0  0  0  0  0  0  0  0  0  0
    4.5375   15.8538   24.9495 C   0  0  0  0  0  0  0  0  0  0  0  0
    7.1487   13.4871   26.0057 C   0  0  0  0  0  0  0  0  0  0  0  0
    6.2309   14.6914   26.0914 C   0  0  0  0  0  0  0  0  0  0  0  0
    7.8972   14.9527   23.0279 N   0  0  0  0  0  0  0  0  0  0  0  0
    9.7080   14.2036   21.3530 O   0  0  0  0  0  0  0  0  0  0  0  0
    7.3113   13.5347   20.9584 O   0  0  0  0  0  0  0  0  0  0  0  0
    7.9730   13.6116   24.8486 O   0  0  0  0  0  0  0  0  0  0  0  0
    5.4353   14.7532   24.9139 O   0  0  0  0  0  0  0  0  0  0  0  0
    9.6679    8.9235   22.5451 F   0  0  0  0  0  0  0  0  0  0  0  0
    8.4101   13.8023   21.8742 S   0  0  0  0  0  0  0  0  0  0  0  0
    8.3929   11.3637   26.1230 H   0  0  0  0  0  0  0  0  0  0  0  0
    9.1560    9.2483   25.0907 H   0  0  0  0  0  0  0  0  0  0  0  0
    9.2618   11.1414   21.2419 H   0  0  0  0  0  0  0  0  0  0  0  0
    3.9439   15.8706   24.0322 H   0  0  0  0  0  0  0  0  0  0  0  0
    5.1033   16.7837   25.0471 H   0  0  0  0  0  0  0  0  0  0  0  0
    3.8724   15.7424   25.8092 H   0  0  0  0  0  0  0  0  0  0  0  0
    6.5750   12.5595   25.9173 H   0  0  0  0  0  0  0  0  0  0  0  0
    7.7976   13.4371   26.8849 H   0  0  0  0  0  0  0  0  0  0  0  0
    6.8048   15.6206   26.1642 H   0  0  0  0  0  0  0  0  0  0  0  0
    5.5622   14.6027   26.9526 H   0  0  0  0  0  0  0  0  0  0  0  0
    6.9556   14.8490   23.4255 H   0  0  0  0  0  0  0  0  0  0  0  0
    8.5926   15.3085   23.6951 H   0  0  0  0  0  0  0  0  0  0  0  0
  1  2  2  0  0  0  0
  1  4  1  0  0  0  0
  2  5  1  0  0  0  0
  3  5  2  0  0  0  0
  3  6  1  0  0  0  0
  4  6  2  0  0  0  0
  4 13  1  0  0  0  0
  5 15  1  0  0  0  0
  6 16  1  0  0  0  0
  7 14  1  0  0  0  0
  8  9  1  0  0  0  0
  8 13  1  0  0  0  0
  9 14  1  0  0  0  0
 10 16  1  0  0  0  0
 11 16  2  0  0  0  0
 12 16  2  0  0  0  0
  1 17  1  0  0  0  0
  2 18  1  0  0  0  0
  3 19  1  0  0  0  0
  7 20  1  0  0  0  0
  7 21  1  0  0  0  0
  7 22  1  0  0  0  0
  8 23  1  0  0  0  0
  8 24  1  0  0  0  0
  9 25  1  0  0  0  0
  9 26  1  0  0  0  0
 10 27  1  0  0  0  0
 10 28  1  0  0  0  0
M  END
> <Mol Weight>
249,26

> <Formula>
C9H12FNO4S

> <ID>
EN300-172646

> <name>
Sulfonamides

> <LogP>
0,52

> <ROCS_ShapeQuery>
x0310_0A_x0719_0A_x1080_0A_x0739_0A_x0929_0A_x0526_0A_x0911_0A

> <ROCS_TanimotoCombo>
0.304 

> <ROCS_ShapeTanimoto>
0.177 

> <ROCS_ColorTanimoto>
0.127 

> <ROCS_RefTversky>
0.171 

> <ROCS_RefColorTversky>
0.141 

> <ROCS_RefTverskyCombo>
0.311 

> <ROCS_FitTversky>
1.289 

> <ROCS_FitColorTversky>
0.566 

> <ROCS_FitTverskyCombo>
1.855 

> <ROCS_ColorScore>
-4.086

> <ROCS_Overlap>
1367.717

> <ROCS_Rank>
356                 

$$$$
untitled-dbase-1637_0
  -OEChem-02092407103D

 16 16  0     0  0  0  0  0  0999 V2000
    9.7957   12.2016   23.6639 C   0  0  0  0  0  0  0  0  0  0  0  0
    9.5116    9.8913   24.1523 C   0  0  0  0  0  0  0  0  0  0  0  0
    8.4237   12.2958   23.4590 C   0  0  0  0  0  0  0  0  0  0  0  0
   10.3579   10.9801   24.0174 C   0  0  0  0  0  0  0  0  0  0  0  0
    7.6639   11.1481   23.6186 C   0  0  0  0  0  0  0  0  0  0  0  0
    8.1743    9.9441   23.9614 N   0  0  0  0  0  0  0  0  0  0  0  0
    9.1277   14.8208   22.9759 N   0  0  0  0  0  0  0  0  0  0  0  0
    7.1966   13.7268   21.6646 O   0  0  0  0  0  0  0  0  0  0  0  0
    6.8716   14.2872   24.0993 O   0  0  0  0  0  0  0  0  0  0  0  0
    7.7319   13.8361   23.0144 S   0  0  0  0  0  0  0  0  0  0  0  0
   12.0462   10.8256   24.2789 Cl  0  0  0  0  0  0  0  0  0  0  0  0
    5.9580   11.1238   23.3945 Cl  0  0  0  0  0  0  0  0  0  0  0  0
   10.4249   13.0809   23.5475 H   0  0  0  0  0  0  0  0  0  0  0  0
    9.8890    8.9108   24.4263 H   0  0  0  0  0  0  0  0  0  0  0  0
    9.4715   15.1338   22.0597 H   0  0  0  0  0  0  0  0  0  0  0  0
    9.2491   15.5143   23.7239 H   0  0  0  0  0  0  0  0  0  0  0  0
  1  3  1  0  0  0  0
  1  4  2  0  0  0  0
  2  4  1  0  0  0  0
  2  6  2  0  0  0  0
  3  5  2  0  0  0  0
  3 10  1  0  0  0  0
  4 11  1  0  0  0  0
  5  6  1  0  0  0  0
  5 12  1  0  0  0  0
  7 10  1  0  0  0  0
  8 10  2  0  0  0  0
  9 10  2  0  0  0  0
  1 13  1  0  0  0  0
  2 14  1  0  0  0  0
  7 15  1  0  0  0  0
  7 16  1  0  0  0  0
M  END
> <Mol Weight>
227,06

> <Formula>
C5H4Cl2N2O2S

> <ID>
EN300-278408

> <name>
Sulfonamides

> <LogP>
0,79

> <ROCS_ShapeQuery>
x0310_0A_x0719_0A_x1080_0A_x0739_0A_x0929_0A_x0526_0A_x0911_0A

> <ROCS_TanimotoCombo>
0.304 

> <ROCS_ShapeTanimoto>
0.141 

> <ROCS_ColorTanimoto>
0.164 

> <ROCS_RefTversky>
0.137 

> <ROCS_RefColorTversky>
0.171 

> <ROCS_RefTverskyCombo>
0.308 

> <ROCS_FitTversky>
1.241 

> <ROCS_FitColorTversky>
0.791 

> <ROCS_FitTverskyCombo>
2.033 

> <ROCS_ColorScore>
-4.960

> <ROCS_Overlap>
1096.435

> <ROCS_Rank>
357                 

$$$$
untitled-dbase-2020_6
  -OEChem-02092407103D

 22 23  0     0  0  0  0  0  0999 V2000
    8.9163    9.9816   23.7756 C   0  0  0  0  0  0  0  0  0  0  0  0
    9.6841   10.7243   22.8787 C   0  0  0  0  0  0  0  0  0  0  0  0
    8.0674   10.6314   24.6716 C   0  0  0  0  0  0  0  0  0  0  0  0
    9.6031   12.1168   22.8778 C   0  0  0  0  0  0  0  0  0  0  0  0
    7.9864   12.0239   24.6707 C   0  0  0  0  0  0  0  0  0  0  0  0
    8.7542   12.7666   23.7738 C   0  0  0  0  0  0  0  0  0  0  0  0
    8.6699   14.2064   23.7721 C   0  0  0  0  0  0  0  0  0  0  0  0
    8.3023   15.1170   22.8017 C   0  0  0  0  0  0  0  0  0  0  0  0
    8.3490   16.4484   23.1841 N   0  0  0  0  0  0  0  0  0  0  0  0
    8.7484   16.5793   24.4391 N   0  0  0  0  0  0  0  0  0  0  0  0
    9.3007   14.7273   20.3612 N   0  0  0  0  0  0  0  0  0  0  0  0
    7.2850   13.3481   21.1863 O   0  0  0  0  0  0  0  0  0  0  0  0
    6.9752   15.7935   20.6650 O   0  0  0  0  0  0  0  0  0  0  0  0
    9.0723   15.1095   25.1746 S   0  0  0  0  0  0  0  0  0  0  0  0
    7.8095   14.7169   21.2076 S   0  0  0  0  0  0  0  0  0  0  0  0
    8.9790    8.8973   23.7759 H   0  0  0  0  0  0  0  0  0  0  0  0
   10.3453   10.2181   22.1813 H   0  0  0  0  0  0  0  0  0  0  0  0
    7.4686   10.0530   25.3693 H   0  0  0  0  0  0  0  0  0  0  0  0
   10.2061   12.6814   22.1707 H   0  0  0  0  0  0  0  0  0  0  0  0
    7.3207   12.5156   25.3761 H   0  0  0  0  0  0  0  0  0  0  0  0
    9.6972   13.8278   20.0627 H   0  0  0  0  0  0  0  0  0  0  0  0
    9.4849   15.4991   19.7088 H   0  0  0  0  0  0  0  0  0  0  0  0
  1  2  1  0  0  0  0
  1  3  2  0  0  0  0
  2  4  2  0  0  0  0
  3  5  1  0  0  0  0
  4  6  1  0  0  0  0
  5  6  2  0  0  0  0
  6  7  1  0  0  0  0
  7  8  2  0  0  0  0
  7 14  1  0  0  0  0
  8  9  1  0  0  0  0
  8 15  1  0  0  0  0
  9 10  2  0  0  0  0
 10 14  1  0  0  0  0
 11 15  1  0  0  0  0
 12 15  2  0  0  0  0
 13 15  2  0  0  0  0
  1 16  1  0  0  0  0
  2 17  1  0  0  0  0
  3 18  1  0  0  0  0
  4 19  1  0  0  0  0
  5 20  1  0  0  0  0
 11 21  1  0  0  0  0
 11 22  1  0  0  0  0
M  END
> <Mol Weight>
241,28

> <Formula>
C8H7N3O2S2

> <ID>
EN300-6760189

> <name>
Sulfonamides

> <LogP>
1,41

> <ROCS_ShapeQuery>
x0310_0A_x0719_0A_x1080_0A_x0739_0A_x0929_0A_x0526_0A_x0911_0A

> <ROCS_TanimotoCombo>
0.304 

> <ROCS_ShapeTanimoto>
0.174 

> <ROCS_ColorTanimoto>
0.130 

> <ROCS_RefTversky>
0.167 

> <ROCS_RefColorTversky>
0.149 

> <ROCS_RefTverskyCombo>
0.316 

> <ROCS_FitTversky>
1.305 

> <ROCS_FitColorTversky>
0.511 

> <ROCS_FitTverskyCombo>
1.815 

> <ROCS_ColorScore>
-4.338

> <ROCS_Overlap>
1339.300

> <ROCS_Rank>
358                 

$$$$
untitled-dbase-1732_0
  -OEChem-02092407103D

 30 31  0     0  0  0  0  0  0999 V2000
    9.7138   11.7997   23.7290 C   0  0  0  0  0  0  0  0  0  0  0  0
    8.4143   12.1658   23.4763 C   0  0  0  0  0  0  0  0  0  0  0  0
    7.6749   10.9804   23.6486 C   0  0  0  0  0  0  0  0  0  0  0  0
    4.3959    9.3738   24.3159 C   0  0  0  0  0  0  0  0  0  0  0  0
    5.0287    8.6649   23.1318 C   0  0  0  0  0  0  0  0  0  0  0  0
    5.5014   10.3050   24.7899 C   0  0  0  0  0  0  0  0  0  0  0  0
    5.7867    9.7724   22.4086 C   0  0  0  0  0  0  0  0  0  0  0  0
    6.1877   10.7866   23.4991 C   0  0  0  0  0  0  0  0  0  0  0  0
   10.8028    9.6335   24.3623 C   0  0  0  0  0  0  0  0  0  0  0  0
    8.4409    9.9391   23.9846 N   0  0  0  0  0  0  0  0  0  0  0  0
    9.6752   10.4690   24.0254 N   0  0  0  0  0  0  0  0  0  0  0  0
    9.2883   14.6441   23.0299 N   0  0  0  0  0  0  0  0  0  0  0  0
    7.3061   13.6930   21.6839 O   0  0  0  0  0  0  0  0  0  0  0  0
    6.9883   14.2480   24.1208 O   0  0  0  0  0  0  0  0  0  0  0  0
    7.8462   13.7102   23.0527 S   0  0  0  0  0  0  0  0  0  0  0  0
   10.6399   12.3585   23.7241 H   0  0  0  0  0  0  0  0  0  0  0  0
    3.5236    9.9537   23.9921 H   0  0  0  0  0  0  0  0  0  0  0  0
    4.0759    8.6776   25.0963 H   0  0  0  0  0  0  0  0  0  0  0  0
    5.7301    7.8979   23.4811 H   0  0  0  0  0  0  0  0  0  0  0  0
    4.2878    8.1816   22.4885 H   0  0  0  0  0  0  0  0  0  0  0  0
    5.1047   11.1398   25.3770 H   0  0  0  0  0  0  0  0  0  0  0  0
    6.1989    9.7528   25.4329 H   0  0  0  0  0  0  0  0  0  0  0  0
    6.6331    9.3734   21.8393 H   0  0  0  0  0  0  0  0  0  0  0  0
    5.1138   10.2624   21.6937 H   0  0  0  0  0  0  0  0  0  0  0  0
    5.7646   11.7795   23.2192 H   0  0  0  0  0  0  0  0  0  0  0  0
   10.9345    9.6661   25.4470 H   0  0  0  0  0  0  0  0  0  0  0  0
   10.6089    8.6094   24.0313 H   0  0  0  0  0  0  0  0  0  0  0  0
   11.6959   10.0104   23.8561 H   0  0  0  0  0  0  0  0  0  0  0  0
    9.7348   14.8768   23.9254 H   0  0  0  0  0  0  0  0  0  0  0  0
    9.9526   14.5001   22.2598 H   0  0  0  0  0  0  0  0  0  0  0  0
  1  2  2  0  0  0  0
  1 11  1  0  0  0  0
  2  3  1  0  0  0  0
  2 15  1  0  0  0  0
  3  8  1  0  0  0  0
  3 10  2  0  0  0  0
  4  5  1  0  0  0  0
  4  6  1  0  0  0  0
  5  7  1  0  0  0  0
  6  8  1  0  0  0  0
  7  8  1  0  0  0  0
  9 11  1  0  0  0  0
 10 11  1  0  0  0  0
 12 15  1  0  0  0  0
 13 15  2  0  0  0  0
 14 15  2  0  0  0  0
  1 16  1  0  0  0  0
  4 17  1  0  0  0  0
  4 18  1  0  0  0  0
  5 19  1  0  0  0  0
  5 20  1  0  0  0  0
  6 21  1  0  0  0  0
  6 22  1  0  0  0  0
  7 23  1  0  0  0  0
  7 24  1  0  0  0  0
  8 25  1  0  0  0  0
  9 26  1  0  0  0  0
  9 27  1  0  0  0  0
  9 28  1  0  0  0  0
 12 29  1  0  0  0  0
 12 30  1  0  0  0  0
M  END
> <Mol Weight>
229,30

> <Formula>
C9H15N3O2S

> <ID>
EN300-736626

> <name>
Sulfonamides

> <LogP>
0,81

> <ROCS_ShapeQuery>
x0310_0A_x0719_0A_x1080_0A_x0739_0A_x0929_0A_x0526_0A_x0911_0A

> <ROCS_TanimotoCombo>
0.304 

> <ROCS_ShapeTanimoto>
0.140 

> <ROCS_ColorTanimoto>
0.165 

> <ROCS_RefTversky>
0.138 

> <ROCS_RefColorTversky>
0.176 

> <ROCS_RefTverskyCombo>
0.315 

> <ROCS_FitTversky>
1.076 

> <ROCS_FitColorTversky>
0.710 

> <ROCS_FitTverskyCombo>
1.786 

> <ROCS_ColorScore>
-5.127

> <ROCS_Overlap>
1107.895

> <ROCS_Rank>
359                 

$$$$
untitled-dbase-2233_24
  -OEChem-02092407103D

 19 19  0     0  0  0  0  0  0999 V2000
    9.1493   12.1646   22.5537 C   0  0  0  0  0  0  0  0  0  0  0  0
   10.1239   11.3096   23.0561 C   0  0  0  0  0  0  0  0  0  0  0  0
    7.5134   10.9167   23.7467 C   0  0  0  0  0  0  0  0  0  0  0  0
    7.8168   11.9712   22.9007 C   0  0  0  0  0  0  0  0  0  0  0  0
    9.7172   10.2848   23.8953 C   0  0  0  0  0  0  0  0  0  0  0  0
    6.7513   12.8689   22.3804 C   0  0  0  0  0  0  0  0  0  0  0  0
    8.4325   10.0654   24.2547 N   0  0  0  0  0  0  0  0  0  0  0  0
    6.1713   15.3994   21.8225 N   0  0  0  0  0  0  0  0  0  0  0  0
    6.5004   14.6616   24.2646 O   0  0  0  0  0  0  0  0  0  0  0  0
    8.4997   14.7801   22.7237 O   0  0  0  0  0  0  0  0  0  0  0  0
    7.0906   14.5059   22.9464 S   0  0  0  0  0  0  0  0  0  0  0  0
   11.0319    9.1047   24.5922 Br  0  0  0  0  0  0  0  0  0  0  0  0
    9.4371   12.9783   21.8933 H   0  0  0  0  0  0  0  0  0  0  0  0
   11.1646   11.4568   22.7879 H   0  0  0  0  0  0  0  0  0  0  0  0
    6.4909   10.7178   24.0527 H   0  0  0  0  0  0  0  0  0  0  0  0
    5.7532   12.5900   22.7420 H   0  0  0  0  0  0  0  0  0  0  0  0
    6.7214   12.8938   21.2835 H   0  0  0  0  0  0  0  0  0  0  0  0
    6.5093   15.4403   20.8531 H   0  0  0  0  0  0  0  0  0  0  0  0
    5.1478   15.3597   21.9027 H   0  0  0  0  0  0  0  0  0  0  0  0
  1  2  2  0  0  0  0
  1  4  1  0  0  0  0
  2  5  1  0  0  0  0
  3  4  2  0  0  0  0
  3  7  1  0  0  0  0
  4  6  1  0  0  0  0
  5  7  2  0  0  0  0
  5 12  1  0  0  0  0
  6 11  1  0  0  0  0
  8 11  1  0  0  0  0
  9 11  2  0  0  0  0
 10 11  2  0  0  0  0
  1 13  1  0  0  0  0
  2 14  1  0  0  0  0
  3 15  1  0  0  0  0
  6 16  1  0  0  0  0
  6 17  1  0  0  0  0
  8 18  1  0  0  0  0
  8 19  1  0  0  0  0
M  END
> <Mol Weight>
251,10

> <Formula>
C6H7BrN2O2S

> <ID>
EN300-1989475

> <name>
Sulfonamides

> <LogP>
0,10

> <ROCS_ShapeQuery>
x0310_0A_x0719_0A_x1080_0A_x0739_0A_x0929_0A_x0526_0A_x0911_0A

> <ROCS_TanimotoCombo>
0.304 

> <ROCS_ShapeTanimoto>
0.146 

> <ROCS_ColorTanimoto>
0.158 

> <ROCS_RefTversky>
0.141 

> <ROCS_RefColorTversky>
0.171 

> <ROCS_RefTverskyCombo>
0.312 

> <ROCS_FitTversky>
1.281 

> <ROCS_FitColorTversky>
0.687 

> <ROCS_FitTverskyCombo>
1.968 

> <ROCS_ColorScore>
-4.959

> <ROCS_Overlap>
1130.804

> <ROCS_Rank>
360                 

$$$$
untitled-dbase-1709_10
  -OEChem-02092407103D

 26 27  0     0  0  0  0  0  0999 V2000
    7.9783   13.5671   21.7395 C   0  0  0  0  0  0  0  0  0  0  0  0
    8.9050   13.3854   22.7689 C   0  0  0  0  0  0  0  0  0  0  0  0
    7.1458   11.2977   22.0305 C   0  0  0  0  0  0  0  0  0  0  0  0
    7.1036   12.5292   21.3725 C   0  0  0  0  0  0  0  0  0  0  0  0
    8.9261   12.1600   23.4026 C   0  0  0  0  0  0  0  0  0  0  0  0
    8.0700   11.1441   23.0434 C   0  0  0  0  0  0  0  0  0  0  0  0
    9.3242   10.4467   24.6628 C   0  0  0  0  0  0  0  0  0  0  0  0
    6.1227   12.7462   20.2689 C   0  0  0  0  0  0  0  0  0  0  0  0
    4.8343   11.9348   20.4259 C   0  0  0  0  0  0  0  0  0  0  0  0
    2.4411   11.1495   19.5848 N   0  0  0  0  0  0  0  0  0  0  0  0
    3.2484   13.5465   19.1164 O   0  0  0  0  0  0  0  0  0  0  0  0
    4.3150   11.6147   17.8851 O   0  0  0  0  0  0  0  0  0  0  0  0
    9.7542   11.8021   24.4214 O   0  0  0  0  0  0  0  0  0  0  0  0
    8.2552   10.0229   23.7921 O   0  0  0  0  0  0  0  0  0  0  0  0
    3.7115   12.1701   19.0839 S   0  0  0  0  0  0  0  0  0  0  0  0
    7.9375   14.5228   21.2226 H   0  0  0  0  0  0  0  0  0  0  0  0
    9.5803   14.1834   23.0555 H   0  0  0  0  0  0  0  0  0  0  0  0
    6.4759   10.4891   21.7581 H   0  0  0  0  0  0  0  0  0  0  0  0
   10.1797    9.7768   24.5187 H   0  0  0  0  0  0  0  0  0  0  0  0
    8.9838   10.3662   25.7013 H   0  0  0  0  0  0  0  0  0  0  0  0
    6.5863   12.4669   19.3073 H   0  0  0  0  0  0  0  0  0  0  0  0
    5.8671   13.8150   20.1689 H   0  0  0  0  0  0  0  0  0  0  0  0
    5.0571   10.8631   20.4456 H   0  0  0  0  0  0  0  0  0  0  0  0
    4.2967   12.1916   21.3438 H   0  0  0  0  0  0  0  0  0  0  0  0
    2.5996   10.1350   19.5478 H   0  0  0  0  0  0  0  0  0  0  0  0
    1.8732   11.4508   20.3862 H   0  0  0  0  0  0  0  0  0  0  0  0
  1  2  2  0  0  0  0
  1  4  1  0  0  0  0
  2  5  1  0  0  0  0
  3  4  2  0  0  0  0
  3  6  1  0  0  0  0
  4  8  1  0  0  0  0
  5  6  2  0  0  0  0
  5 13  1  0  0  0  0
  6 14  1  0  0  0  0
  7 13  1  0  0  0  0
  7 14  1  0  0  0  0
  8  9  1  0  0  0  0
  9 15  1  0  0  0  0
 10 15  1  0  0  0  0
 11 15  2  0  0  0  0
 12 15  2  0  0  0  0
  1 16  1  0  0  0  0
  2 17  1  0  0  0  0
  3 18  1  0  0  0  0
  7 19  1  0  0  0  0
  7 20  1  0  0  0  0
  8 21  1  0  0  0  0
  8 22  1  0  0  0  0
  9 23  1  0  0  0  0
  9 24  1  0  0  0  0
 10 25  1  0  0  0  0
 10 26  1  0  0  0  0
M  END
> <Mol Weight>
229,25

> <Formula>
C9H11NO4S

> <ID>
EN300-26682377

> <name>
Sulfonamides

> <LogP>
0,25

> <ROCS_ShapeQuery>
x0310_0A_x0719_0A_x1080_0A_x0739_0A_x0929_0A_x0526_0A_x0911_0A

> <ROCS_TanimotoCombo>
0.304 

> <ROCS_ShapeTanimoto>
0.180 

> <ROCS_ColorTanimoto>
0.124 

> <ROCS_RefTversky>
0.172 

> <ROCS_RefColorTversky>
0.142 

> <ROCS_RefTverskyCombo>
0.314 

> <ROCS_FitTversky>
1.328 

> <ROCS_FitColorTversky>
0.503 

> <ROCS_FitTverskyCombo>
1.831 

> <ROCS_ColorScore>
-4.127

> <ROCS_Overlap>
1378.822

> <ROCS_Rank>
361                 

$$$$
untitled-dbase-2440_50
  -OEChem-02092407103D

 23 23  0     0  0  0  0  0  0999 V2000
    8.2025   10.9891   24.8854 C   0  0  0  0  0  0  0  0  0  0  0  0
    7.5363   11.5495   23.7956 C   0  0  0  0  0  0  0  0  0  0  0  0
    9.5543   10.6607   24.7829 C   0  0  0  0  0  0  0  0  0  0  0  0
    9.5737   11.4532   22.5007 C   0  0  0  0  0  0  0  0  0  0  0  0
    8.2219   11.7815   22.6032 C   0  0  0  0  0  0  0  0  0  0  0  0
   10.2399   10.8927   23.5905 C   0  0  0  0  0  0  0  0  0  0  0  0
    7.5090   12.3807   21.4384 C   0  0  0  0  0  0  0  0  0  0  0  0
    6.3643   13.3173   21.8348 C   0  0  0  0  0  0  0  0  0  0  0  0
    5.5941   15.7618   22.5289 N   0  0  0  0  0  0  0  0  0  0  0  0
    6.9627   14.3283   24.1686 O   0  0  0  0  0  0  0  0  0  0  0  0
    8.0828   15.2667   22.1070 O   0  0  0  0  0  0  0  0  0  0  0  0
    6.9150   14.7109   22.7682 S   0  0  0  0  0  0  0  0  0  0  0  0
   12.0715   10.4475   23.4522 Br  0  0  0  0  0  0  0  0  0  0  0  0
    7.6686   10.8084   25.8138 H   0  0  0  0  0  0  0  0  0  0  0  0
    6.4831   11.8021   23.8848 H   0  0  0  0  0  0  0  0  0  0  0  0
   10.0585   10.2247   25.6415 H   0  0  0  0  0  0  0  0  0  0  0  0
   10.1017   11.6370   21.5677 H   0  0  0  0  0  0  0  0  0  0  0  0
    7.0879   11.5752   20.8121 H   0  0  0  0  0  0  0  0  0  0  0  0
    8.2085   12.9244   20.7799 H   0  0  0  0  0  0  0  0  0  0  0  0
    5.8783   13.7268   20.9434 H   0  0  0  0  0  0  0  0  0  0  0  0
    5.6062   12.8065   22.4363 H   0  0  0  0  0  0  0  0  0  0  0  0
    5.4723   16.1722   21.5949 H   0  0  0  0  0  0  0  0  0  0  0  0
    4.7097   15.5331   22.9991 H   0  0  0  0  0  0  0  0  0  0  0  0
  1  2  2  0  0  0  0
  1  3  1  0  0  0  0
  2  5  1  0  0  0  0
  3  6  2  0  0  0  0
  4  5  2  0  0  0  0
  4  6  1  0  0  0  0
  5  7  1  0  0  0  0
  6 13  1  0  0  0  0
  7  8  1  0  0  0  0
  8 12  1  0  0  0  0
  9 12  1  0  0  0  0
 10 12  2  0  0  0  0
 11 12  2  0  0  0  0
  1 14  1  0  0  0  0
  2 15  1  0  0  0  0
  3 16  1  0  0  0  0
  4 17  1  0  0  0  0
  7 18  1  0  0  0  0
  7 19  1  0  0  0  0
  8 20  1  0  0  0  0
  8 21  1  0  0  0  0
  9 22  1  0  0  0  0
  9 23  1  0  0  0  0
M  END
> <Mol Weight>
264,14

> <Formula>
C8H10BrNO2S

> <ID>
EN300-283804

> <name>
Sulfonamides

> <LogP>
1,40

> <ROCS_ShapeQuery>
x0310_0A_x0719_0A_x1080_0A_x0739_0A_x0929_0A_x0526_0A_x0911_0A

> <ROCS_TanimotoCombo>
0.304 

> <ROCS_ShapeTanimoto>
0.146 

> <ROCS_ColorTanimoto>
0.158 

> <ROCS_RefTversky>
0.142 

> <ROCS_RefColorTversky>
0.166 

> <ROCS_RefTverskyCombo>
0.308 

> <ROCS_FitTversky>
1.244 

> <ROCS_FitColorTversky>
0.769 

> <ROCS_FitTverskyCombo>
2.013 

> <ROCS_ColorScore>
-4.819

> <ROCS_Overlap>
1135.357

> <ROCS_Rank>
362                 

$$$$
untitled-dbase-1777_45
  -OEChem-02092407103D

 28 28  0     0  0  0  0  0  0999 V2000
    8.0957   12.0775   24.5097 C   0  0  0  0  0  0  0  0  0  0  0  0
    9.9463   11.8642   22.9713 C   0  0  0  0  0  0  0  0  0  0  0  0
    8.5114    9.9694   23.4050 C   0  0  0  0  0  0  0  0  0  0  0  0
    9.1908   12.6379   23.8523 C   0  0  0  0  0  0  0  0  0  0  0  0
    7.7560   10.7431   24.2860 C   0  0  0  0  0  0  0  0  0  0  0  0
    9.6066   10.5299   22.7476 C   0  0  0  0  0  0  0  0  0  0  0  0
    5.9587   11.0422   25.8144 C   0  0  0  0  0  0  0  0  0  0  0  0
   11.4514   10.4110   21.2515 C   0  0  0  0  0  0  0  0  0  0  0  0
    9.5547   14.0641   24.0924 C   0  0  0  0  0  0  0  0  0  0  0  0
    8.5450   16.4945   24.4460 N   0  0  0  0  0  0  0  0  0  0  0  0
    8.3248   15.3276   22.1641 O   0  0  0  0  0  0  0  0  0  0  0  0
    6.9755   14.4817   24.1261 O   0  0  0  0  0  0  0  0  0  0  0  0
    6.6875   10.1953   24.9273 O   0  0  0  0  0  0  0  0  0  0  0  0
   10.3447    9.7748   21.8886 O   0  0  0  0  0  0  0  0  0  0  0  0
    8.1926   15.0643   23.5870 S   0  0  0  0  0  0  0  0  0  0  0  0
    7.5054   12.6783   25.1971 H   0  0  0  0  0  0  0  0  0  0  0  0
   10.8012   12.2978   22.4579 H   0  0  0  0  0  0  0  0  0  0  0  0
    8.2466    8.9296   23.2310 H   0  0  0  0  0  0  0  0  0  0  0  0
    5.1332   10.4811   26.2591 H   0  0  0  0  0  0  0  0  0  0  0  0
    5.5728   11.9032   25.2629 H   0  0  0  0  0  0  0  0  0  0  0  0
    6.6282   11.3889   26.6052 H   0  0  0  0  0  0  0  0  0  0  0  0
   11.9535    9.6975   20.5935 H   0  0  0  0  0  0  0  0  0  0  0  0
   12.1484   10.7768   22.0097 H   0  0  0  0  0  0  0  0  0  0  0  0
   11.0849   11.2532   20.6598 H   0  0  0  0  0  0  0  0  0  0  0  0
   10.4326   14.3727   23.5135 H   0  0  0  0  0  0  0  0  0  0  0  0
    9.7502   14.2712   25.1508 H   0  0  0  0  0  0  0  0  0  0  0  0
    8.4257   16.4810   25.4664 H   0  0  0  0  0  0  0  0  0  0  0  0
    9.3445   17.0571   24.1300 H   0  0  0  0  0  0  0  0  0  0  0  0
  1  4  2  0  0  0  0
  1  5  1  0  0  0  0
  2  4  1  0  0  0  0
  2  6  2  0  0  0  0
  3  5  2  0  0  0  0
  3  6  1  0  0  0  0
  4  9  1  0  0  0  0
  5 13  1  0  0  0  0
  6 14  1  0  0  0  0
  7 13  1  0  0  0  0
  8 14  1  0  0  0  0
  9 15  1  0  0  0  0
 10 15  1  0  0  0  0
 11 15  2  0  0  0  0
 12 15  2  0  0  0  0
  1 16  1  0  0  0  0
  2 17  1  0  0  0  0
  3 18  1  0  0  0  0
  7 19  1  0  0  0  0
  7 20  1  0  0  0  0
  7 21  1  0  0  0  0
  8 22  1  0  0  0  0
  8 23  1  0  0  0  0
  8 24  1  0  0  0  0
  9 25  1  0  0  0  0
  9 26  1  0  0  0  0
 10 27  1  0  0  0  0
 10 28  1  0  0  0  0
M  END
> <Mol Weight>
231,27

> <Formula>
C9H13NO4S

> <ID>
EN300-679657

> <name>
Sulfonamides

> <LogP>
0,03

> <ROCS_ShapeQuery>
x0310_0A_x0719_0A_x1080_0A_x0739_0A_x0929_0A_x0526_0A_x0911_0A

> <ROCS_TanimotoCombo>
0.304 

> <ROCS_ShapeTanimoto>
0.183 

> <ROCS_ColorTanimoto>
0.121 

> <ROCS_RefTversky>
0.174 

> <ROCS_RefColorTversky>
0.135 

> <ROCS_RefTverskyCombo>
0.309 

> <ROCS_FitTversky>
1.373 

> <ROCS_FitColorTversky>
0.542 

> <ROCS_FitTverskyCombo>
1.915 

> <ROCS_ColorScore>
-3.911

> <ROCS_Overlap>
1397.757

> <ROCS_Rank>
363                 

$$$$
untitled-dbase-2554_86
  -OEChem-02092407103D

 39 39  0     0  0  0  0  0  0999 V2000
    3.7263   11.8959   20.6117 C   0  0  0  0  0  0  0  0  0  0  0  0
    2.5523   12.4271   20.0779 C   0  0  0  0  0  0  0  0  0  0  0  0
    3.0388   11.3731   17.9590 C   0  0  0  0  0  0  0  0  0  0  0  0
    4.2129   10.8418   18.4929 C   0  0  0  0  0  0  0  0  0  0  0  0
    4.5567   11.1033   19.8192 C   0  0  0  0  0  0  0  0  0  0  0  0
    2.2085   12.1657   18.7516 C   0  0  0  0  0  0  0  0  0  0  0  0
    8.3700   13.3942   22.2585 C   0  0  0  0  0  0  0  0  0  0  0  0
    5.6455   10.7689   16.4203 C   0  0  0  0  0  0  0  0  0  0  0  0
    4.3829    8.7136   17.1529 C   0  0  0  0  0  0  0  0  0  0  0  0
    8.5647   11.8949   22.4178 C   0  0  0  0  0  0  0  0  0  0  0  0
    7.8318   11.1169   21.3287 C   0  0  0  0  0  0  0  0  0  0  0  0
    6.3288   11.3503   21.3859 C   0  0  0  0  0  0  0  0  0  0  0  0
    5.0898    9.9955   17.6303 C   0  0  0  0  0  0  0  0  0  0  0  0
   -0.3756   11.5876   18.4467 N   0  0  0  0  0  0  0  0  0  0  0  0
    0.3832   14.0183   18.8482 O   0  0  0  0  0  0  0  0  0  0  0  0
    0.8861   12.9190   16.6377 O   0  0  0  0  0  0  0  0  0  0  0  0
    5.7067   10.5892   20.3598 O   0  0  0  0  0  0  0  0  0  0  0  0
    0.7388   12.8310   18.0839 S   0  0  0  0  0  0  0  0  0  0  0  0
    3.9883   12.1034   21.6457 H   0  0  0  0  0  0  0  0  0  0  0  0
    1.9128   13.0434   20.7041 H   0  0  0  0  0  0  0  0  0  0  0  0
    2.7717   11.1686   16.9249 H   0  0  0  0  0  0  0  0  0  0  0  0
    7.3079   13.6575   22.2897 H   0  0  0  0  0  0  0  0  0  0  0  0
    8.8838   13.9432   23.0542 H   0  0  0  0  0  0  0  0  0  0  0  0
    8.7749   13.7292   21.2985 H   0  0  0  0  0  0  0  0  0  0  0  0
    4.8418   11.1461   15.7786 H   0  0  0  0  0  0  0  0  0  0  0  0
    6.2929   10.1353   15.8041 H   0  0  0  0  0  0  0  0  0  0  0  0
    6.2373   11.6285   16.7542 H   0  0  0  0  0  0  0  0  0  0  0  0
    3.4914    8.9634   16.5669 H   0  0  0  0  0  0  0  0  0  0  0  0
    4.0654    8.0939   17.9985 H   0  0  0  0  0  0  0  0  0  0  0  0
    5.0375    8.1030   16.5212 H   0  0  0  0  0  0  0  0  0  0  0  0
    9.6361   11.6657   22.3822 H   0  0  0  0  0  0  0  0  0  0  0  0
    8.1998   11.5879   23.4049 H   0  0  0  0  0  0  0  0  0  0  0  0
    8.2066   11.4047   20.3385 H   0  0  0  0  0  0  0  0  0  0  0  0
    8.0366   10.0433   21.4257 H   0  0  0  0  0  0  0  0  0  0  0  0
    5.9206   11.0330   22.3507 H   0  0  0  0  0  0  0  0  0  0  0  0
    6.0910   12.4071   21.2281 H   0  0  0  0  0  0  0  0  0  0  0  0
    5.9710    9.6601   18.2086 H   0  0  0  0  0  0  0  0  0  0  0  0
   -1.0725   11.7641   19.1807 H   0  0  0  0  0  0  0  0  0  0  0  0
   -0.7264   11.0132   17.6707 H   0  0  0  0  0  0  0  0  0  0  0  0
  1  2  2  0  0  0  0
  1  5  1  0  0  0  0
  2  6  1  0  0  0  0
  3  4  1  0  0  0  0
  3  6  2  0  0  0  0
  4  5  2  0  0  0  0
  4 13  1  0  0  0  0
  5 17  1  0  0  0  0
  6 18  1  0  0  0  0
  7 10  1  0  0  0  0
  8 13  1  0  0  0  0
  9 13  1  0  0  0  0
 10 11  1  0  0  0  0
 11 12  1  0  0  0  0
 12 17  1  0  0  0  0
 14 18  1  0  0  0  0
 15 18  2  0  0  0  0
 16 18  2  0  0  0  0
  1 19  1  0  0  0  0
  2 20  1  0  0  0  0
  3 21  1  0  0  0  0
  7 22  1  0  0  0  0
  7 23  1  0  0  0  0
  7 24  1  0  0  0  0
  8 25  1  0  0  0  0
  8 26  1  0  0  0  0
  8 27  1  0  0  0  0
  9 28  1  0  0  0  0
  9 29  1  0  0  0  0
  9 30  1  0  0  0  0
 10 31  1  0  0  0  0
 10 32  1  0  0  0  0
 11 33  1  0  0  0  0
 11 34  1  0  0  0  0
 12 35  1  0  0  0  0
 12 36  1  0  0  0  0
 13 37  1  0  0  0  0
 14 38  1  0  0  0  0
 14 39  1  0  0  0  0
M  END
> <Mol Weight>
271,38

> <Formula>
C13H21NO3S

> <ID>
EN300-366272

> <name>
Sulfonamides

> <LogP>
2,99

> <ROCS_ShapeQuery>
x0310_0A_x0719_0A_x1080_0A_x0739_0A_x0929_0A_x0526_0A_x0911_0A

> <ROCS_TanimotoCombo>
0.304 

> <ROCS_ShapeTanimoto>
0.177 

> <ROCS_ColorTanimoto>
0.126 

> <ROCS_RefTversky>
0.172 

> <ROCS_RefColorTversky>
0.144 

> <ROCS_RefTverskyCombo>
0.315 

> <ROCS_FitTversky>
1.228 

> <ROCS_FitColorTversky>
0.513 

> <ROCS_FitTverskyCombo>
1.740 

> <ROCS_ColorScore>
-4.186

> <ROCS_Overlap>
1375.885

> <ROCS_Rank>
364                 

$$$$
untitled-dbase-182_8
  -OEChem-02092407103D

 19 19  0     1  0  0  0  0  0999 V2000
    9.6743   11.5565   22.9629 C   0  0  0  0  0  0  0  0  0  0  0  0
    9.0448   10.4449   23.8223 C   0  0  0  0  0  0  0  0  0  0  0  0
    7.8594   11.4084   24.0650 C   0  0  0  0  0  0  0  0  0  0  0  0
    8.6744   12.6060   23.4960 C   0  0  2  0  0  0  0  0  0  0  0  0
    7.9781   13.4472   22.4468 C   0  0  0  0  0  0  0  0  0  0  0  0
    6.1631   15.3199   21.9468 N   0  0  0  0  0  0  0  0  0  0  0  0
   10.5932   11.5885   22.1727 O   0  0  0  0  0  0  0  0  0  0  0  0
    6.6143   14.5772   24.3678 O   0  0  0  0  0  0  0  0  0  0  0  0
    8.3556   15.9376   23.1419 O   0  0  0  0  0  0  0  0  0  0  0  0
    7.3135   14.9244   23.1419 S   0  0  0  0  0  0  0  0  0  0  0  0
    8.7990    9.5325   23.2754 H   0  0  0  0  0  0  0  0  0  0  0  0
    9.6346   10.2072   24.7117 H   0  0  0  0  0  0  0  0  0  0  0  0
    6.9667   11.1497   23.4833 H   0  0  0  0  0  0  0  0  0  0  0  0
    7.5650   11.5141   25.1138 H   0  0  0  0  0  0  0  0  0  0  0  0
    9.1270   13.2246   24.2815 H   0  0  0  0  0  0  0  0  0  0  0  0
    7.1468   12.8988   21.9968 H   0  0  0  0  0  0  0  0  0  0  0  0
    8.6757   13.7447   21.6603 H   0  0  0  0  0  0  0  0  0  0  0  0
    6.5116   15.6552   21.0403 H   0  0  0  0  0  0  0  0  0  0  0  0
    5.3258   14.7288   21.8755 H   0  0  0  0  0  0  0  0  0  0  0  0
  1  2  1  0  0  0  0
  1  4  1  0  0  0  0
  1  7  2  0  0  0  0
  2  3  1  0  0  0  0
  3  4  1  0  0  0  0
  4  5  1  0  0  0  0
  5 10  1  0  0  0  0
  6 10  1  0  0  0  0
  8 10  2  0  0  0  0
  9 10  2  0  0  0  0
  2 11  1  0  0  0  0
  2 12  1  0  0  0  0
  3 13  1  0  0  0  0
  3 14  1  0  0  0  0
  4 15  1  0  0  0  0
  5 16  1  0  0  0  0
  5 17  1  0  0  0  0
  6 18  1  0  0  0  0
  6 19  1  0  0  0  0
M  END
> <Mol Weight>
163,19

> <Formula>
C5H9NO3S

> <ID>
EN300-7437297

> <name>
Sulfonamides

> <LogP>
-1,00

> <ROCS_ShapeQuery>
x0310_0A_x0719_0A_x1080_0A_x0739_0A_x0929_0A_x0526_0A_x0911_0A

> <ROCS_TanimotoCombo>
0.304 

> <ROCS_ShapeTanimoto>
0.147 

> <ROCS_ColorTanimoto>
0.156 

> <ROCS_RefTversky>
0.141 

> <ROCS_RefColorTversky>
0.164 

> <ROCS_RefTverskyCombo>
0.306 

> <ROCS_FitTversky>
1.419 

> <ROCS_FitColorTversky>
0.761 

> <ROCS_FitTverskyCombo>
2.180 

> <ROCS_ColorScore>
-4.769

> <ROCS_Overlap>
1129.908

> <ROCS_Rank>
365                 

$$$$
untitled-dbase-2327_335
  -OEChem-02092407103D

 34 35  0     0  0  0  0  0  0999 V2000
    6.4860   11.4426   21.2233 C   0  0  0  0  0  0  0  0  0  0  0  0
    6.4375   13.7127   22.0487 C   0  0  0  0  0  0  0  0  0  0  0  0
    5.3108   11.6770   20.5095 C   0  0  0  0  0  0  0  0  0  0  0  0
    5.2622   13.9471   21.3350 C   0  0  0  0  0  0  0  0  0  0  0  0
    7.0494   12.4605   21.9929 C   0  0  0  0  0  0  0  0  0  0  0  0
    4.6989   12.9293   20.5654 C   0  0  0  0  0  0  0  0  0  0  0  0
    9.1582   10.0115   23.1145 C   0  0  0  0  0  0  0  0  0  0  0  0
    8.2716   11.3039   24.9613 C   0  0  0  0  0  0  0  0  0  0  0  0
    9.2376   11.2746   22.2567 C   0  0  0  0  0  0  0  0  0  0  0  0
    8.3208   12.5861   24.1218 C   0  0  0  0  0  0  0  0  0  0  0  0
    2.4534   10.7274   19.4318 C   0  0  0  0  0  0  0  0  0  0  0  0
    9.2921   10.3397   24.5379 N   0  0  0  0  0  0  0  0  0  0  0  0
    8.2196   12.2270   22.7039 N   0  0  0  0  0  0  0  0  0  0  0  0
    3.4972   13.1691   19.8330 N   0  0  0  0  0  0  0  0  0  0  0  0
    2.0136   12.6875   17.7790 O   0  0  0  0  0  0  0  0  0  0  0  0
    4.3154   11.6671   17.8515 O   0  0  0  0  0  0  0  0  0  0  0  0
    3.1136   12.1109   18.5294 S   0  0  0  0  0  0  0  0  0  0  0  0
    6.9546   10.4633   21.1719 H   0  0  0  0  0  0  0  0  0  0  0  0
    6.8692   14.5131   22.6444 H   0  0  0  0  0  0  0  0  0  0  0  0
    4.8805   10.8772   19.9124 H   0  0  0  0  0  0  0  0  0  0  0  0
    4.7927   14.9263   21.3849 H   0  0  0  0  0  0  0  0  0  0  0  0
    8.2166    9.4850   22.9329 H   0  0  0  0  0  0  0  0  0  0  0  0
    9.9683    9.3351   22.8316 H   0  0  0  0  0  0  0  0  0  0  0  0
    8.4442   11.5610   26.0122 H   0  0  0  0  0  0  0  0  0  0  0  0
    7.2740   10.8507   24.9050 H   0  0  0  0  0  0  0  0  0  0  0  0
   10.2318   11.7216   22.3441 H   0  0  0  0  0  0  0  0  0  0  0  0
    9.0737   11.0037   21.2112 H   0  0  0  0  0  0  0  0  0  0  0  0
    7.4915   13.2301   24.4123 H   0  0  0  0  0  0  0  0  0  0  0  0
    9.2565   13.1150   24.3077 H   0  0  0  0  0  0  0  0  0  0  0  0
    2.1602    9.9577   18.7161 H   0  0  0  0  0  0  0  0  0  0  0  0
    3.2284   10.3515   20.1014 H   0  0  0  0  0  0  0  0  0  0  0  0
    1.5881   11.0693   20.0016 H   0  0  0  0  0  0  0  0  0  0  0  0
    9.1940    9.4831   25.0894 H   0  0  0  0  0  0  0  0  0  0  0  0
    2.6898   13.4394   20.4189 H   0  0  0  0  0  0  0  0  0  0  0  0
  1  3  2  0  0  0  0
  1  5  1  0  0  0  0
  2  4  1  0  0  0  0
  2  5  2  0  0  0  0
  3  6  1  0  0  0  0
  4  6  2  0  0  0  0
  5 13  1  0  0  0  0
  6 14  1  0  0  0  0
  7  9  1  0  0  0  0
  7 12  1  0  0  0  0
  8 10  1  0  0  0  0
  8 12  1  0  0  0  0
  9 13  1  0  0  0  0
 10 13  1  0  0  0  0
 11 17  1  0  0  0  0
 14 17  1  0  0  0  0
 15 17  2  0  0  0  0
 16 17  2  0  0  0  0
  1 18  1  0  0  0  0
  2 19  1  0  0  0  0
  3 20  1  0  0  0  0
  4 21  1  0  0  0  0
  7 22  1  0  0  0  0
  7 23  1  0  0  0  0
  8 24  1  0  0  0  0
  8 25  1  0  0  0  0
  9 26  1  0  0  0  0
  9 27  1  0  0  0  0
 10 28  1  0  0  0  0
 10 29  1  0  0  0  0
 11 30  1  0  0  0  0
 11 31  1  0  0  0  0
 11 32  1  0  0  0  0
 12 33  1  0  0  0  0
 14 34  1  0  0  0  0
M  END
> <Mol Weight>
255,34

> <Formula>
C11H17N3O2S

> <ID>
EN300-123446

> <name>
Sulfonamides

> <LogP>
-0,08

> <ROCS_ShapeQuery>
x0310_0A_x0719_0A_x1080_0A_x0739_0A_x0929_0A_x0526_0A_x0911_0A

> <ROCS_TanimotoCombo>
0.304 

> <ROCS_ShapeTanimoto>
0.205 

> <ROCS_ColorTanimoto>
0.099 

> <ROCS_RefTversky>
0.193 

> <ROCS_RefColorTversky>
0.115 

> <ROCS_RefTverskyCombo>
0.309 

> <ROCS_FitTversky>
1.398 

> <ROCS_FitColorTversky>
0.411 

> <ROCS_FitTverskyCombo>
1.809 

> <ROCS_ColorScore>
-3.353

> <ROCS_Overlap>
1550.439

> <ROCS_Rank>
366                 

$$$$
untitled-dbase-2755_335
  -OEChem-02092407103D

 34 35  0     0  0  0  0  0  0999 V2000
    6.4860   11.4426   21.2233 C   0  0  0  0  0  0  0  0  0  0  0  0
    6.4375   13.7127   22.0487 C   0  0  0  0  0  0  0  0  0  0  0  0
    5.3108   11.6770   20.5095 C   0  0  0  0  0  0  0  0  0  0  0  0
    5.2622   13.9471   21.3350 C   0  0  0  0  0  0  0  0  0  0  0  0
    7.0494   12.4605   21.9929 C   0  0  0  0  0  0  0  0  0  0  0  0
    4.6989   12.9293   20.5654 C   0  0  0  0  0  0  0  0  0  0  0  0
    9.1582   10.0115   23.1145 C   0  0  0  0  0  0  0  0  0  0  0  0
    8.2716   11.3039   24.9613 C   0  0  0  0  0  0  0  0  0  0  0  0
    9.2376   11.2746   22.2567 C   0  0  0  0  0  0  0  0  0  0  0  0
    8.3208   12.5861   24.1218 C   0  0  0  0  0  0  0  0  0  0  0  0
    2.4534   10.7274   19.4318 C   0  0  0  0  0  0  0  0  0  0  0  0
    9.2921   10.3397   24.5379 N   0  0  0  0  0  0  0  0  0  0  0  0
    8.2196   12.2270   22.7039 N   0  0  0  0  0  0  0  0  0  0  0  0
    3.4972   13.1691   19.8330 N   0  0  0  0  0  0  0  0  0  0  0  0
    2.0136   12.6875   17.7790 O   0  0  0  0  0  0  0  0  0  0  0  0
    4.3154   11.6671   17.8515 O   0  0  0  0  0  0  0  0  0  0  0  0
    3.1136   12.1109   18.5294 S   0  0  0  0  0  0  0  0  0  0  0  0
    6.9546   10.4633   21.1719 H   0  0  0  0  0  0  0  0  0  0  0  0
    6.8692   14.5131   22.6444 H   0  0  0  0  0  0  0  0  0  0  0  0
    4.8805   10.8772   19.9124 H   0  0  0  0  0  0  0  0  0  0  0  0
    4.7927   14.9263   21.3849 H   0  0  0  0  0  0  0  0  0  0  0  0
    8.2166    9.4850   22.9329 H   0  0  0  0  0  0  0  0  0  0  0  0
    9.9683    9.3351   22.8316 H   0  0  0  0  0  0  0  0  0  0  0  0
    8.4442   11.5610   26.0122 H   0  0  0  0  0  0  0  0  0  0  0  0
    7.2740   10.8507   24.9050 H   0  0  0  0  0  0  0  0  0  0  0  0
   10.2318   11.7216   22.3441 H   0  0  0  0  0  0  0  0  0  0  0  0
    9.0737   11.0037   21.2112 H   0  0  0  0  0  0  0  0  0  0  0  0
    7.4915   13.2301   24.4123 H   0  0  0  0  0  0  0  0  0  0  0  0
    9.2565   13.1150   24.3077 H   0  0  0  0  0  0  0  0  0  0  0  0
    2.1602    9.9577   18.7161 H   0  0  0  0  0  0  0  0  0  0  0  0
    3.2284   10.3515   20.1014 H   0  0  0  0  0  0  0  0  0  0  0  0
    1.5881   11.0693   20.0016 H   0  0  0  0  0  0  0  0  0  0  0  0
    9.1940    9.4831   25.0894 H   0  0  0  0  0  0  0  0  0  0  0  0
    2.6898   13.4394   20.4189 H   0  0  0  0  0  0  0  0  0  0  0  0
  1  3  2  0  0  0  0
  1  5  1  0  0  0  0
  2  4  1  0  0  0  0
  2  5  2  0  0  0  0
  3  6  1  0  0  0  0
  4  6  2  0  0  0  0
  5 13  1  0  0  0  0
  6 14  1  0  0  0  0
  7  9  1  0  0  0  0
  7 12  1  0  0  0  0
  8 10  1  0  0  0  0
  8 12  1  0  0  0  0
  9 13  1  0  0  0  0
 10 13  1  0  0  0  0
 11 17  1  0  0  0  0
 14 17  1  0  0  0  0
 15 17  2  0  0  0  0
 16 17  2  0  0  0  0
  1 18  1  0  0  0  0
  2 19  1  0  0  0  0
  3 20  1  0  0  0  0
  4 21  1  0  0  0  0
  7 22  1  0  0  0  0
  7 23  1  0  0  0  0
  8 24  1  0  0  0  0
  8 25  1  0  0  0  0
  9 26  1  0  0  0  0
  9 27  1  0  0  0  0
 10 28  1  0  0  0  0
 10 29  1  0  0  0  0
 11 30  1  0  0  0  0
 11 31  1  0  0  0  0
 11 32  1  0  0  0  0
 12 33  1  0  0  0  0
 14 34  1  0  0  0  0
M  END
> <Mol Weight>
291,79

> <Formula>
C11H18ClN3O2S

> <ID>
EN300-123596

> <name>
Sulfonamides

> <LogP>
-0,08

> <ROCS_ShapeQuery>
x0310_0A_x0719_0A_x1080_0A_x0739_0A_x0929_0A_x0526_0A_x0911_0A

> <ROCS_TanimotoCombo>
0.304 

> <ROCS_ShapeTanimoto>
0.205 

> <ROCS_ColorTanimoto>
0.099 

> <ROCS_RefTversky>
0.193 

> <ROCS_RefColorTversky>
0.115 

> <ROCS_RefTverskyCombo>
0.309 

> <ROCS_FitTversky>
1.398 

> <ROCS_FitColorTversky>
0.411 

> <ROCS_FitTverskyCombo>
1.809 

> <ROCS_ColorScore>
-3.353

> <ROCS_Overlap>
1550.439

> <ROCS_Rank>
367                 

$$$$
untitled-dbase-2654_419
  -OEChem-02092407103D

 38 38  0     1  0  0  0  0  0999 V2000
    9.8481    9.1636   22.5137 C   0  0  0  0  0  0  0  0  0  0  0  0
    9.4382   10.5452   24.5916 C   0  0  0  0  0  0  0  0  0  0  0  0
    8.0817   10.9096   22.5661 C   0  0  0  0  0  0  0  0  0  0  0  0
    9.5291   12.0577   24.7389 C   0  0  0  0  0  0  0  0  0  0  0  0
    8.2345   12.4142   22.7920 C   0  0  1  0  0  0  0  0  0  0  0  0
   11.7344   10.1702   20.9929 C   0  0  0  0  0  0  0  0  0  0  0  0
   13.4088    9.6131   22.7803 C   0  0  0  0  0  0  0  0  0  0  0  0
   12.4477    7.7836   21.3531 C   0  0  0  0  0  0  0  0  0  0  0  0
    7.0190   13.1730   22.2805 C   0  0  0  0  0  0  0  0  0  0  0  0
   12.1745    9.1300   22.0219 C   0  0  0  0  0  0  0  0  0  0  0  0
    9.1880   10.1888   23.1932 N   0  0  0  0  0  0  0  0  0  0  0  0
    6.0545   15.4941   21.4240 N   0  0  0  0  0  0  0  0  0  0  0  0
    9.3524    8.5073   21.5996 O   0  0  0  0  0  0  0  0  0  0  0  0
    6.7049   15.2028   23.8956 O   0  0  0  0  0  0  0  0  0  0  0  0
    8.5185   15.3083   22.1391 O   0  0  0  0  0  0  0  0  0  0  0  0
    8.3631   12.6826   24.1954 O   0  0  0  0  0  0  0  0  0  0  0  0
   11.1208    8.9593   22.9768 O   0  0  0  0  0  0  0  0  0  0  0  0
    7.1855   14.9033   22.5561 S   0  0  0  0  0  0  0  0  0  0  0  0
   10.3461   10.0725   24.9747 H   0  0  0  0  0  0  0  0  0  0  0  0
    8.5866   10.1603   25.1648 H   0  0  0  0  0  0  0  0  0  0  0  0
    7.1653   10.5380   23.0409 H   0  0  0  0  0  0  0  0  0  0  0  0
    8.0243   10.6802   21.4972 H   0  0  0  0  0  0  0  0  0  0  0  0
    9.5843   12.3256   25.7987 H   0  0  0  0  0  0  0  0  0  0  0  0
   10.4244   12.4572   24.2481 H   0  0  0  0  0  0  0  0  0  0  0  0
    9.1263   12.7906   22.2742 H   0  0  0  0  0  0  0  0  0  0  0  0
   10.8486    9.8271   20.4463 H   0  0  0  0  0  0  0  0  0  0  0  0
   11.5017   11.1306   21.4642 H   0  0  0  0  0  0  0  0  0  0  0  0
   12.5165   10.3333   20.2426 H   0  0  0  0  0  0  0  0  0  0  0  0
   13.7282    8.8698   23.5198 H   0  0  0  0  0  0  0  0  0  0  0  0
   13.1894   10.5300   23.3393 H   0  0  0  0  0  0  0  0  0  0  0  0
   14.2466    9.8114   22.1040 H   0  0  0  0  0  0  0  0  0  0  0  0
   12.7634    7.0372   22.0910 H   0  0  0  0  0  0  0  0  0  0  0  0
   11.5614    7.4035   20.8347 H   0  0  0  0  0  0  0  0  0  0  0  0
   13.2658    7.8673   20.6285 H   0  0  0  0  0  0  0  0  0  0  0  0
    6.1175   12.8434   22.7974 H   0  0  0  0  0  0  0  0  0  0  0  0
    6.8975   13.0213   21.2079 H   0  0  0  0  0  0  0  0  0  0  0  0
    6.2925   15.4185   20.4274 H   0  0  0  0  0  0  0  0  0  0  0  0
    5.0576   15.3468   21.6239 H   0  0  0  0  0  0  0  0  0  0  0  0
  1 11  1  0  0  0  0
  1 13  2  0  0  0  0
  1 17  1  0  0  0  0
  2  4  1  0  0  0  0
  2 11  1  0  0  0  0
  3  5  1  0  0  0  0
  3 11  1  0  0  0  0
  4 16  1  0  0  0  0
  5  9  1  6  0  0  0
  5 16  1  0  0  0  0
  6 10  1  0  0  0  0
  7 10  1  0  0  0  0
  8 10  1  0  0  0  0
  9 18  1  0  0  0  0
 10 17  1  0  0  0  0
 12 18  1  0  0  0  0
 14 18  2  0  0  0  0
 15 18  2  0  0  0  0
  2 19  1  0  0  0  0
  2 20  1  0  0  0  0
  3 21  1  0  0  0  0
  3 22  1  0  0  0  0
  4 23  1  0  0  0  0
  4 24  1  0  0  0  0
  5 25  1  0  0  0  0
  6 26  1  0  0  0  0
  6 27  1  0  0  0  0
  6 28  1  0  0  0  0
  7 29  1  0  0  0  0
  7 30  1  0  0  0  0
  7 31  1  0  0  0  0
  8 32  1  0  0  0  0
  8 33  1  0  0  0  0
  8 34  1  0  0  0  0
  9 35  1  0  0  0  0
  9 36  1  0  0  0  0
 12 37  1  0  0  0  0
 12 38  1  0  0  0  0
M  END
> <Mol Weight>
280,34

> <Formula>
C10H20N2O5S

> <ID>
EN300-28338208

> <name>
Sulfonamides

> <LogP>
-0,62

> <ROCS_ShapeQuery>
x0310_0A_x0719_0A_x1080_0A_x0739_0A_x0929_0A_x0526_0A_x0911_0A

> <ROCS_TanimotoCombo>
0.303 

> <ROCS_ShapeTanimoto>
0.158 

> <ROCS_ColorTanimoto>
0.146 

> <ROCS_RefTversky>
0.155 

> <ROCS_RefColorTversky>
0.163 

> <ROCS_RefTverskyCombo>
0.318 

> <ROCS_FitTversky>
1.096 

> <ROCS_FitColorTversky>
0.581 

> <ROCS_FitTverskyCombo>
1.677 

> <ROCS_ColorScore>
-4.747

> <ROCS_Overlap>
1245.816

> <ROCS_Rank>
368                 

$$$$
untitled-dbase-628_106
  -OEChem-02092407103D

 22 22  0     0  0  0  0  0  0999 V2000
    8.6347   11.8081   22.5391 C   0  0  0  0  0  0  0  0  0  0  0  0
    8.2022   12.5491   23.6525 C   0  0  0  0  0  0  0  0  0  0  0  0
    9.3440   10.7746   23.0913 C   0  0  0  0  0  0  0  0  0  0  0  0
   10.0727    9.6292   22.5325 C   0  0  0  0  0  0  0  0  0  0  0  0
    4.7089   14.8967   21.8013 C   0  0  0  0  0  0  0  0  0  0  0  0
    7.3790   13.8001   23.6588 C   0  0  0  0  0  0  0  0  0  0  0  0
    8.6120   12.0159   24.8069 N   0  0  0  0  0  0  0  0  0  0  0  0
    6.0351   15.4844   22.0630 N   0  0  0  0  0  0  0  0  0  0  0  0
    8.6099   15.2926   21.8959 O   0  0  0  0  0  0  0  0  0  0  0  0
    7.1613   13.3923   21.0914 O   0  0  0  0  0  0  0  0  0  0  0  0
    9.3376   10.8875   24.4441 O   0  0  0  0  0  0  0  0  0  0  0  0
    7.4150   14.4803   22.0163 S   0  0  0  0  0  0  0  0  0  0  0  0
    8.4579   11.9967   21.4903 H   0  0  0  0  0  0  0  0  0  0  0  0
   11.1313    9.8790   22.3363 H   0  0  0  0  0  0  0  0  0  0  0  0
   10.0619    8.7525   23.2073 H   0  0  0  0  0  0  0  0  0  0  0  0
    9.6364    9.2763   21.5788 H   0  0  0  0  0  0  0  0  0  0  0  0
    4.8004   14.1084   21.0396 H   0  0  0  0  0  0  0  0  0  0  0  0
    4.3100   14.4638   22.7306 H   0  0  0  0  0  0  0  0  0  0  0  0
    4.0262   15.6793   21.4388 H   0  0  0  0  0  0  0  0  0  0  0  0
    7.7786   14.5501   24.3472 H   0  0  0  0  0  0  0  0  0  0  0  0
    6.3362   13.6032   23.9232 H   0  0  0  0  0  0  0  0  0  0  0  0
    6.0281   16.2325   22.7684 H   0  0  0  0  0  0  0  0  0  0  0  0
  1  2  1  0  0  0  0
  1  3  2  0  0  0  0
  2  6  1  0  0  0  0
  2  7  2  0  0  0  0
  3  4  1  0  0  0  0
  3 11  1  0  0  0  0
  5  8  1  0  0  0  0
  6 12  1  0  0  0  0
  7 11  1  0  0  0  0
  8 12  1  0  0  0  0
  9 12  2  0  0  0  0
 10 12  2  0  0  0  0
  1 13  1  0  0  0  0
  4 14  1  0  0  0  0
  4 15  1  0  0  0  0
  4 16  1  0  0  0  0
  5 17  1  0  0  0  0
  5 18  1  0  0  0  0
  5 19  1  0  0  0  0
  6 20  1  0  0  0  0
  6 21  1  0  0  0  0
  8 22  1  0  0  0  0
M  END
> <Mol Weight>
190,22

> <Formula>
C6H10N2O3S

> <ID>
EN300-42709

> <name>
Sulfonamides

> <LogP>
-0,48

> <ROCS_ShapeQuery>
x0310_0A_x0719_0A_x1080_0A_x0739_0A_x0929_0A_x0526_0A_x0911_0A

> <ROCS_TanimotoCombo>
0.303 

> <ROCS_ShapeTanimoto>
0.153 

> <ROCS_ColorTanimoto>
0.150 

> <ROCS_RefTversky>
0.148 

> <ROCS_RefColorTversky>
0.159 

> <ROCS_RefTverskyCombo>
0.306 

> <ROCS_FitTversky>
1.325 

> <ROCS_FitColorTversky>
0.736 

> <ROCS_FitTverskyCombo>
2.060 

> <ROCS_ColorScore>
-4.609

> <ROCS_Overlap>
1181.232

> <ROCS_Rank>
369                 

$$$$
untitled-dbase-1422_8
  -OEChem-02092407103D

 24 24  0     0  0  0  0  0  0999 V2000
    8.7663    9.8661   22.9289 C   0  0  0  0  0  0  0  0  0  0  0  0
    9.8303   10.7621   22.8264 C   0  0  0  0  0  0  0  0  0  0  0  0
    7.7442   10.0992   23.8490 C   0  0  0  0  0  0  0  0  0  0  0  0
    9.8723   11.8914   23.6442 C   0  0  0  0  0  0  0  0  0  0  0  0
    7.7861   11.2285   24.6668 C   0  0  0  0  0  0  0  0  0  0  0  0
    8.8502   12.1246   24.5644 C   0  0  0  0  0  0  0  0  0  0  0  0
    8.9063   14.8562   24.3444 C   0  0  0  0  0  0  0  0  0  0  0  0
    7.6547   14.7652   23.4913 C   0  0  0  0  0  0  0  0  0  0  0  0
    6.1475   15.6805   21.5059 N   0  0  0  0  0  0  0  0  0  0  0  0
    7.4978   17.3184   22.9587 O   0  0  0  0  0  0  0  0  0  0  0  0
    8.7115   15.8049   21.3396 O   0  0  0  0  0  0  0  0  0  0  0  0
    8.9044   13.5670   25.6095 S   0  0  0  0  0  0  0  0  0  0  0  0
    7.6255   16.0445   22.2734 S   0  0  0  0  0  0  0  0  0  0  0  0
    8.7342    8.9869   22.2919 H   0  0  0  0  0  0  0  0  0  0  0  0
   10.6265   10.5806   22.1103 H   0  0  0  0  0  0  0  0  0  0  0  0
    6.9160    9.4011   23.9281 H   0  0  0  0  0  0  0  0  0  0  0  0
   10.7099   12.5782   23.5500 H   0  0  0  0  0  0  0  0  0  0  0  0
    6.9805   11.3931   25.3781 H   0  0  0  0  0  0  0  0  0  0  0  0
    8.9665   15.8312   24.8389 H   0  0  0  0  0  0  0  0  0  0  0  0
    9.8042   14.7432   23.7283 H   0  0  0  0  0  0  0  0  0  0  0  0
    6.7450   14.8856   24.0885 H   0  0  0  0  0  0  0  0  0  0  0  0
    7.6008   13.8176   22.9460 H   0  0  0  0  0  0  0  0  0  0  0  0
    6.1069   14.8363   20.9217 H   0  0  0  0  0  0  0  0  0  0  0  0
    5.2804   15.8673   22.0244 H   0  0  0  0  0  0  0  0  0  0  0  0
  1  2  1  0  0  0  0
  1  3  2  0  0  0  0
  2  4  2  0  0  0  0
  3  5  1  0  0  0  0
  4  6  1  0  0  0  0
  5  6  2  0  0  0  0
  6 12  1  0  0  0  0
  7  8  1  0  0  0  0
  7 12  1  0  0  0  0
  8 13  1  0  0  0  0
  9 13  1  0  0  0  0
 10 13  2  0  0  0  0
 11 13  2  0  0  0  0
  1 14  1  0  0  0  0
  2 15  1  0  0  0  0
  3 16  1  0  0  0  0
  4 17  1  0  0  0  0
  5 18  1  0  0  0  0
  7 19  1  0  0  0  0
  7 20  1  0  0  0  0
  8 21  1  0  0  0  0
  8 22  1  0  0  0  0
  9 23  1  0  0  0  0
  9 24  1  0  0  0  0
M  END
> <Mol Weight>
217,30

> <Formula>
C8H11NO2S2

> <ID>
EN300-91946

> <name>
Sulfonamides

> <LogP>
0,79

> <ROCS_ShapeQuery>
x0310_0A_x0719_0A_x1080_0A_x0739_0A_x0929_0A_x0526_0A_x0911_0A

> <ROCS_TanimotoCombo>
0.303 

> <ROCS_ShapeTanimoto>
0.158 

> <ROCS_ColorTanimoto>
0.145 

> <ROCS_RefTversky>
0.152 

> <ROCS_RefColorTversky>
0.150 

> <ROCS_RefTverskyCombo>
0.302 

> <ROCS_FitTversky>
1.345 

> <ROCS_FitColorTversky>
0.817 

> <ROCS_FitTverskyCombo>
2.162 

> <ROCS_ColorScore>
-4.345

> <ROCS_Overlap>
1217.284

> <ROCS_Rank>
370                 

$$$$
untitled-dbase-2238_3
  -OEChem-02092407103D

 19 19  0     0  0  0  0  0  0999 V2000
    9.6682   10.5382   24.2796 C   0  0  0  0  0  0  0  0  0  0  0  0
    8.3167   10.2146   24.2343 C   0  0  0  0  0  0  0  0  0  0  0  0
   10.0828   11.6853   23.6221 C   0  0  0  0  0  0  0  0  0  0  0  0
    7.4336   11.0363   23.5429 C   0  0  0  0  0  0  0  0  0  0  0  0
    7.9482   12.1612   22.9186 C   0  0  0  0  0  0  0  0  0  0  0  0
    7.0632   13.0931   22.1566 C   0  0  0  0  0  0  0  0  0  0  0  0
    9.2546   12.5080   22.9404 N   0  0  0  0  0  0  0  0  0  0  0  0
    5.7204   15.3775   22.3284 N   0  0  0  0  0  0  0  0  0  0  0  0
    7.0219   14.4923   24.3629 O   0  0  0  0  0  0  0  0  0  0  0  0
    8.2924   15.3890   22.3711 O   0  0  0  0  0  0  0  0  0  0  0  0
    7.1546   14.6760   22.9273 S   0  0  0  0  0  0  0  0  0  0  0  0
    5.5986   10.5866   23.4881 Br  0  0  0  0  0  0  0  0  0  0  0  0
   10.3750    9.9123   24.8125 H   0  0  0  0  0  0  0  0  0  0  0  0
    7.9700    9.3190   24.7430 H   0  0  0  0  0  0  0  0  0  0  0  0
   11.1267   11.9814   23.6268 H   0  0  0  0  0  0  0  0  0  0  0  0
    6.0168   12.7710   22.1674 H   0  0  0  0  0  0  0  0  0  0  0  0
    7.3806   13.2051   21.1146 H   0  0  0  0  0  0  0  0  0  0  0  0
    5.6922   15.6321   21.3334 H   0  0  0  0  0  0  0  0  0  0  0  0
    4.8271   15.0215   22.6901 H   0  0  0  0  0  0  0  0  0  0  0  0
  1  2  2  0  0  0  0
  1  3  1  0  0  0  0
  2  4  1  0  0  0  0
  3  7  2  0  0  0  0
  4  5  2  0  0  0  0
  4 12  1  0  0  0  0
  5  6  1  0  0  0  0
  5  7  1  0  0  0  0
  6 11  1  0  0  0  0
  8 11  1  0  0  0  0
  9 11  2  0  0  0  0
 10 11  2  0  0  0  0
  1 13  1  0  0  0  0
  2 14  1  0  0  0  0
  3 15  1  0  0  0  0
  6 16  1  0  0  0  0
  6 17  1  0  0  0  0
  8 18  1  0  0  0  0
  8 19  1  0  0  0  0
M  END
> <Mol Weight>
251,10

> <Formula>
C6H7BrN2O2S

> <ID>
EN300-293119

> <name>
Sulfonamides

> <LogP>
0,28

> <ROCS_ShapeQuery>
x0310_0A_x0719_0A_x1080_0A_x0739_0A_x0929_0A_x0526_0A_x0911_0A

> <ROCS_TanimotoCombo>
0.303 

> <ROCS_ShapeTanimoto>
0.150 

> <ROCS_ColorTanimoto>
0.153 

> <ROCS_RefTversky>
0.145 

> <ROCS_RefColorTversky>
0.165 

> <ROCS_RefTverskyCombo>
0.311 

> <ROCS_FitTversky>
1.314 

> <ROCS_FitColorTversky>
0.666 

> <ROCS_FitTverskyCombo>
1.980 

> <ROCS_ColorScore>
-4.805

> <ROCS_Overlap>
1161.966

> <ROCS_Rank>
371                 

$$$$
untitled-dbase-1646_0
  -OEChem-02092407103D

 24 25  0     0  0  0  0  0  0999 V2000
    2.7268   11.5735   17.6742 C   0  0  0  0  0  0  0  0  0  0  0  0
    2.1983   12.2759   18.7315 C   0  0  0  0  0  0  0  0  0  0  0  0
    4.4119   12.1680   18.8472 C   0  0  0  0  0  0  0  0  0  0  0  0
    5.6708   12.4460   19.4566 C   0  0  0  0  0  0  0  0  0  0  0  0
    4.5028   13.6534   21.2393 C   0  0  0  0  0  0  0  0  0  0  0  0
    3.3149   13.3932   20.6684 C   0  0  0  0  0  0  0  0  0  0  0  0
    5.7153   13.1566   20.6007 C   0  0  0  0  0  0  0  0  0  0  0  0
    8.0213   12.9241   20.5249 C   0  0  0  0  0  0  0  0  0  0  0  0
    4.0951   11.5100   17.7507 N   0  0  0  0  0  0  0  0  0  0  0  0
    3.2771   12.6589   19.4866 N   0  0  0  0  0  0  0  0  0  0  0  0
   -0.2912   11.9263   17.8455 N   0  0  0  0  0  0  0  0  0  0  0  0
    0.2029   11.9752   20.3751 O   0  0  0  0  0  0  0  0  0  0  0  0
    0.3732   14.1077   19.0442 O   0  0  0  0  0  0  0  0  0  0  0  0
    6.9129   13.4458   21.2182 O   0  0  0  0  0  0  0  0  0  0  0  0
    0.5264   12.6694   19.1439 S   0  0  0  0  0  0  0  0  0  0  0  0
    2.1912   11.1091   16.8589 H   0  0  0  0  0  0  0  0  0  0  0  0
    6.5774   12.0795   18.9864 H   0  0  0  0  0  0  0  0  0  0  0  0
    4.5696   14.2216   22.1595 H   0  0  0  0  0  0  0  0  0  0  0  0
    2.3815   13.7357   21.0973 H   0  0  0  0  0  0  0  0  0  0  0  0
    8.9398   13.1827   21.0575 H   0  0  0  0  0  0  0  0  0  0  0  0
    8.0460   13.3359   19.5129 H   0  0  0  0  0  0  0  0  0  0  0  0
    7.9276   11.8368   20.4715 H   0  0  0  0  0  0  0  0  0  0  0  0
   -0.8357   11.0784   18.0453 H   0  0  0  0  0  0  0  0  0  0  0  0
   -0.7170   12.5357   17.1365 H   0  0  0  0  0  0  0  0  0  0  0  0
  1  2  2  0  0  0  0
  1  9  1  0  0  0  0
  2 10  1  0  0  0  0
  2 15  1  0  0  0  0
  3  4  1  0  0  0  0
  3  9  2  0  0  0  0
  3 10  1  0  0  0  0
  4  7  2  0  0  0  0
  5  6  2  0  0  0  0
  5  7  1  0  0  0  0
  6 10  1  0  0  0  0
  7 14  1  0  0  0  0
  8 14  1  0  0  0  0
 11 15  1  0  0  0  0
 12 15  2  0  0  0  0
 13 15  2  0  0  0  0
  1 16  1  0  0  0  0
  4 17  1  0  0  0  0
  5 18  1  0  0  0  0
  6 19  1  0  0  0  0
  8 20  1  0  0  0  0
  8 21  1  0  0  0  0
  8 22  1  0  0  0  0
 11 23  1  0  0  0  0
 11 24  1  0  0  0  0
M  END
> <Mol Weight>
227,24

> <Formula>
C8H9N3O3S

> <ID>
EN300-39914102

> <name>
Sulfonamides

> <LogP>
-0,70

> <ROCS_ShapeQuery>
x0310_0A_x0719_0A_x1080_0A_x0739_0A_x0929_0A_x0526_0A_x0911_0A

> <ROCS_TanimotoCombo>
0.303 

> <ROCS_ShapeTanimoto>
0.158 

> <ROCS_ColorTanimoto>
0.145 

> <ROCS_RefTversky>
0.154 

> <ROCS_RefColorTversky>
0.167 

> <ROCS_RefTverskyCombo>
0.321 

> <ROCS_FitTversky>
1.170 

> <ROCS_FitColorTversky>
0.532 

> <ROCS_FitTverskyCombo>
1.702 

> <ROCS_ColorScore>
-4.862

> <ROCS_Overlap>
1234.555

> <ROCS_Rank>
372                 

$$$$
untitled-dbase-1409_26
  -OEChem-02092407103D

 25 26  0     1  0  0  0  0  0999 V2000
    6.2208   13.3082   20.6988 C   0  0  0  0  0  0  0  0  0  0  0  0
    6.7495   11.2193   21.1367 C   0  0  0  0  0  0  0  0  0  0  0  0
    5.8075   11.9792   20.4875 C   0  0  0  0  0  0  0  0  0  0  0  0
    8.7753   12.3627   23.8649 C   0  0  0  0  0  0  0  0  0  0  0  0
    8.1757   11.2483   24.6974 C   0  0  0  0  0  0  0  0  0  0  0  0
    9.0463   10.2922   22.7518 C   0  0  0  0  0  0  0  0  0  0  0  0
    8.8231   11.7732   22.4682 C   0  0  1  0  0  0  0  0  0  0  0  0
    7.3383   13.3913   21.4256 N   0  0  0  0  0  0  0  0  0  0  0  0
    7.6351   12.1048   21.6768 N   0  0  0  0  0  0  0  0  0  0  0  0
    4.5705    9.7270   19.7787 N   0  0  0  0  0  0  0  0  0  0  0  0
    3.2143   11.8554   20.3042 O   0  0  0  0  0  0  0  0  0  0  0  0
    4.5898   11.7592   18.1955 O   0  0  0  0  0  0  0  0  0  0  0  0
    8.4813   10.0115   24.0413 O   0  0  0  0  0  0  0  0  0  0  0  0
    4.4505   11.4343   19.6247 S   0  0  0  0  0  0  0  0  0  0  0  0
    5.7562   14.2215   20.3551 H   0  0  0  0  0  0  0  0  0  0  0  0
    6.8625   10.1505   21.2578 H   0  0  0  0  0  0  0  0  0  0  0  0
    8.2143   13.2983   23.9507 H   0  0  0  0  0  0  0  0  0  0  0  0
    9.7998   12.5521   24.2084 H   0  0  0  0  0  0  0  0  0  0  0  0
    8.5688   11.2306   25.7180 H   0  0  0  0  0  0  0  0  0  0  0  0
    7.0853   11.3365   24.7488 H   0  0  0  0  0  0  0  0  0  0  0  0
    8.5999    9.6249   22.0080 H   0  0  0  0  0  0  0  0  0  0  0  0
   10.1176   10.0721   22.8169 H   0  0  0  0  0  0  0  0  0  0  0  0
    9.6767   12.2117   21.8696 H   0  0  0  0  0  0  0  0  0  0  0  0
    5.3033    9.2380   19.2502 H   0  0  0  0  0  0  0  0  0  0  0  0
    4.3622    9.3017   20.6903 H   0  0  0  0  0  0  0  0  0  0  0  0
  1  3  1  0  0  0  0
  1  8  2  0  0  0  0
  2  3  2  0  0  0  0
  2  9  1  0  0  0  0
  3 14  1  0  0  0  0
  4  5  1  0  0  0  0
  4  7  1  0  0  0  0
  5 13  1  0  0  0  0
  6  7  1  0  0  0  0
  6 13  1  0  0  0  0
  7  9  1  0  0  0  0
  8  9  1  0  0  0  0
 10 14  1  0  0  0  0
 11 14  2  0  0  0  0
 12 14  2  0  0  0  0
  1 15  1  0  0  0  0
  2 16  1  0  0  0  0
  4 17  1  0  0  0  0
  4 18  1  0  0  0  0
  5 19  1  0  0  0  0
  5 20  1  0  0  0  0
  6 21  1  0  0  0  0
  6 22  1  0  0  0  0
  7 23  1  0  0  0  0
 10 24  1  0  0  0  0
 10 25  1  0  0  0  0
M  END
> <Mol Weight>
217,24

> <Formula>
C7H11N3O3S

> <ID>
EN300-225065

> <name>
Sulfonamides

> <LogP>
-1,09

> <ROCS_ShapeQuery>
x0310_0A_x0719_0A_x1080_0A_x0739_0A_x0929_0A_x0526_0A_x0911_0A

> <ROCS_TanimotoCombo>
0.303 

> <ROCS_ShapeTanimoto>
0.153 

> <ROCS_ColorTanimoto>
0.150 

> <ROCS_RefTversky>
0.149 

> <ROCS_RefColorTversky>
0.167 

> <ROCS_RefTverskyCombo>
0.316 

> <ROCS_FitTversky>
1.196 

> <ROCS_FitColorTversky>
0.597 

> <ROCS_FitTverskyCombo>
1.793 

> <ROCS_ColorScore>
-4.876

> <ROCS_Overlap>
1191.744

> <ROCS_Rank>
373                 

$$$$
untitled-dbase-1988_58
  -OEChem-02092407103D

 28 29  0     0  0  0  0  0  0999 V2000
    4.5265   11.2328   18.7367 C   0  0  0  0  0  0  0  0  0  0  0  0
    3.8543   12.2946   20.8002 C   0  0  0  0  0  0  0  0  0  0  0  0
    3.3181   11.6082   18.1499 C   0  0  0  0  0  0  0  0  0  0  0  0
    2.6459   12.6700   20.2133 C   0  0  0  0  0  0  0  0  0  0  0  0
    4.7946   11.5760   20.0619 C   0  0  0  0  0  0  0  0  0  0  0  0
    2.3777   12.3268   18.8882 C   0  0  0  0  0  0  0  0  0  0  0  0
    6.9950   12.0278   21.1925 C   0  0  0  0  0  0  0  0  0  0  0  0
    9.3332   11.9725   22.2477 C   0  0  0  0  0  0  0  0  0  0  0  0
    8.4074   11.2705   23.1949 C   0  0  0  0  0  0  0  0  0  0  0  0
    8.1553   11.2296   21.7320 C   0  0  0  0  0  0  0  0  0  0  0  0
   -0.1126   11.4465   18.5301 N   0  0  0  0  0  0  0  0  0  0  0  0
    6.0033   11.2004   20.6488 N   0  0  0  0  0  0  0  0  0  0  0  0
    6.9896   13.2527   21.2604 O   0  0  0  0  0  0  0  0  0  0  0  0
    0.3519   13.9603   18.8626 O   0  0  0  0  0  0  0  0  0  0  0  0
    1.0491   12.8518   16.7102 O   0  0  0  0  0  0  0  0  0  0  0  0
    0.8650   12.7964   18.1537 S   0  0  0  0  0  0  0  0  0  0  0  0
    5.2519   10.6728   18.1519 H   0  0  0  0  0  0  0  0  0  0  0  0
    4.0526   12.5675   21.8335 H   0  0  0  0  0  0  0  0  0  0  0  0
    3.1192   11.3355   17.1169 H   0  0  0  0  0  0  0  0  0  0  0  0
    1.9203   13.2297   20.7975 H   0  0  0  0  0  0  0  0  0  0  0  0
    9.3313   13.0557   22.2516 H   0  0  0  0  0  0  0  0  0  0  0  0
   10.3041   11.5272   22.0678 H   0  0  0  0  0  0  0  0  0  0  0  0
    8.7553   10.3527   23.6532 H   0  0  0  0  0  0  0  0  0  0  0  0
    7.7855   11.8829   23.8365 H   0  0  0  0  0  0  0  0  0  0  0  0
    8.3049   10.3144   21.2014 H   0  0  0  0  0  0  0  0  0  0  0  0
   -0.8489   11.5666   19.2364 H   0  0  0  0  0  0  0  0  0  0  0  0
   -0.3701   10.8098   17.7662 H   0  0  0  0  0  0  0  0  0  0  0  0
    6.1958   10.1930   20.6914 H   0  0  0  0  0  0  0  0  0  0  0  0
  1  3  2  0  0  0  0
  1  5  1  0  0  0  0
  2  4  1  0  0  0  0
  2  5  2  0  0  0  0
  3  6  1  0  0  0  0
  4  6  2  0  0  0  0
  5 12  1  0  0  0  0
  6 16  1  0  0  0  0
  7 10  1  0  0  0  0
  7 12  1  0  0  0  0
  7 13  2  0  0  0  0
  8  9  1  0  0  0  0
  8 10  1  0  0  0  0
  9 10  1  0  0  0  0
 11 16  1  0  0  0  0
 14 16  2  0  0  0  0
 15 16  2  0  0  0  0
  1 17  1  0  0  0  0
  2 18  1  0  0  0  0
  3 19  1  0  0  0  0
  4 20  1  0  0  0  0
  8 21  1  0  0  0  0
  8 22  1  0  0  0  0
  9 23  1  0  0  0  0
  9 24  1  0  0  0  0
 10 25  1  0  0  0  0
 11 26  1  0  0  0  0
 11 27  1  0  0  0  0
 12 28  1  0  0  0  0
M  END
> <Mol Weight>
240,28

> <Formula>
C10H12N2O3S

> <ID>
EN300-1260739

> <name>
Sulfonamides

> <LogP>
0,60

> <ROCS_ShapeQuery>
x0310_0A_x0719_0A_x1080_0A_x0739_0A_x0929_0A_x0526_0A_x0911_0A

> <ROCS_TanimotoCombo>
0.303 

> <ROCS_ShapeTanimoto>
0.189 

> <ROCS_ColorTanimoto>
0.114 

> <ROCS_RefTversky>
0.180 

> <ROCS_RefColorTversky>
0.128 

> <ROCS_RefTverskyCombo>
0.308 

> <ROCS_FitTversky>
1.348 

> <ROCS_FitColorTversky>
0.516 

> <ROCS_FitTverskyCombo>
1.864 

> <ROCS_ColorScore>
-3.724

> <ROCS_Overlap>
1440.509

> <ROCS_Rank>
374                 

$$$$
untitled-dbase-1774_431
  -OEChem-02092407103D

 28 28  0     0  0  0  0  0  0999 V2000
    4.4689   11.3217   18.8936 C   0  0  0  0  0  0  0  0  0  0  0  0
    4.7468   11.7949   20.1760 C   0  0  0  0  0  0  0  0  0  0  0  0
    3.2532   11.6318   18.2840 C   0  0  0  0  0  0  0  0  0  0  0  0
    2.5933   12.8884   20.2391 C   0  0  0  0  0  0  0  0  0  0  0  0
    3.8090   12.5782   20.8487 C   0  0  0  0  0  0  0  0  0  0  0  0
    2.3154   12.4151   18.9568 C   0  0  0  0  0  0  0  0  0  0  0  0
    7.6611   12.8365   24.0961 C   0  0  0  0  0  0  0  0  0  0  0  0
    5.4484   13.2848   22.4201 C   0  0  0  0  0  0  0  0  0  0  0  0
    5.5384   13.8117   23.8393 C   0  0  0  0  0  0  0  0  0  0  0  0
   -0.1734   11.4945   18.7061 N   0  0  0  0  0  0  0  0  0  0  0  0
    0.2818   14.0305   18.7889 O   0  0  0  0  0  0  0  0  0  0  0  0
    0.9678   12.7208   16.7489 O   0  0  0  0  0  0  0  0  0  0  0  0
    4.0798   13.0393   22.1005 O   0  0  0  0  0  0  0  0  0  0  0  0
    6.9047   14.0371   24.1649 O   0  0  0  0  0  0  0  0  0  0  0  0
    0.7946   12.8053   18.1922 S   0  0  0  0  0  0  0  0  0  0  0  0
    5.1989   10.7115   18.3701 H   0  0  0  0  0  0  0  0  0  0  0  0
    5.6954   11.5497   20.6455 H   0  0  0  0  0  0  0  0  0  0  0  0
    3.0473   11.2590   17.2844 H   0  0  0  0  0  0  0  0  0  0  0  0
    1.8655   13.4991   20.7679 H   0  0  0  0  0  0  0  0  0  0  0  0
    8.7027   13.0461   24.3514 H   0  0  0  0  0  0  0  0  0  0  0  0
    7.5985   12.4226   23.0865 H   0  0  0  0  0  0  0  0  0  0  0  0
    7.2514   12.1169   24.8088 H   0  0  0  0  0  0  0  0  0  0  0  0
    5.9974   12.3442   22.3129 H   0  0  0  0  0  0  0  0  0  0  0  0
    5.8385   14.0222   21.7125 H   0  0  0  0  0  0  0  0  0  0  0  0
    5.1321   13.0899   24.5548 H   0  0  0  0  0  0  0  0  0  0  0  0
    5.0033   14.7615   23.9297 H   0  0  0  0  0  0  0  0  0  0  0  0
    0.0120   10.5698   18.2987 H   0  0  0  0  0  0  0  0  0  0  0  0
   -0.4592   11.4639   19.6923 H   0  0  0  0  0  0  0  0  0  0  0  0
  1  2  2  0  0  0  0
  1  3  1  0  0  0  0
  2  5  1  0  0  0  0
  3  6  2  0  0  0  0
  4  5  2  0  0  0  0
  4  6  1  0  0  0  0
  5 13  1  0  0  0  0
  6 15  1  0  0  0  0
  7 14  1  0  0  0  0
  8  9  1  0  0  0  0
  8 13  1  0  0  0  0
  9 14  1  0  0  0  0
 10 15  1  0  0  0  0
 11 15  2  0  0  0  0
 12 15  2  0  0  0  0
  1 16  1  0  0  0  0
  2 17  1  0  0  0  0
  3 18  1  0  0  0  0
  4 19  1  0  0  0  0
  7 20  1  0  0  0  0
  7 21  1  0  0  0  0
  7 22  1  0  0  0  0
  8 23  1  0  0  0  0
  8 24  1  0  0  0  0
  9 25  1  0  0  0  0
  9 26  1  0  0  0  0
 10 27  1  0  0  0  0
 10 28  1  0  0  0  0
M  END
> <Mol Weight>
231,27

> <Formula>
C9H13NO4S

> <ID>
EN300-208854

> <name>
Sulfonamides

> <LogP>
0,37

> <ROCS_ShapeQuery>
x0310_0A_x0719_0A_x1080_0A_x0739_0A_x0929_0A_x0526_0A_x0911_0A

> <ROCS_TanimotoCombo>
0.303 

> <ROCS_ShapeTanimoto>
0.182 

> <ROCS_ColorTanimoto>
0.121 

> <ROCS_RefTversky>
0.173 

> <ROCS_RefColorTversky>
0.135 

> <ROCS_RefTverskyCombo>
0.308 

> <ROCS_FitTversky>
1.373 

> <ROCS_FitColorTversky>
0.544 

> <ROCS_FitTverskyCombo>
1.917 

> <ROCS_ColorScore>
-3.924

> <ROCS_Overlap>
1385.924

> <ROCS_Rank>
375                 

$$$$
untitled-dbase-1869_8407
  -OEChem-02092407103D

 35 34  0     0  0  0  0  0  0999 V2000
    3.8484   11.4678   18.8949 C   0  0  0  0  0  0  0  0  0  0  0  0
    0.7522   12.9654   20.2847 C   0  0  0  0  0  0  0  0  0  0  0  0
    0.1332   13.8022   18.0094 C   0  0  0  0  0  0  0  0  0  0  0  0
    2.4775   10.8260   19.0275 C   0  0  0  0  0  0  0  0  0  0  0  0
    1.3957   11.6020   18.2754 C   0  0  0  0  0  0  0  0  0  0  0  0
    5.6977   13.3801   21.5140 C   0  0  0  0  0  0  0  0  0  0  0  0
    5.6503   12.4643   20.2963 C   0  0  0  0  0  0  0  0  0  0  0  0
    7.0612   14.0323   21.6988 C   0  0  0  0  0  0  0  0  0  0  0  0
    1.1763   13.0269   18.8154 C   0  0  0  0  0  0  0  0  0  0  0  0
    5.5445   15.7747   23.0083 N   0  0  0  0  0  0  0  0  0  0  0  0
    4.3638   11.8273   20.1319 N   0  0  0  0  0  0  0  0  0  0  0  0
    4.4080   11.6425   17.8159 O   0  0  0  0  0  0  0  0  0  0  0  0
    7.1199   14.2084   24.3051 O   0  0  0  0  0  0  0  0  0  0  0  0
    8.0962   16.0910   22.9309 O   0  0  0  0  0  0  0  0  0  0  0  0
    7.0891   15.0636   23.1313 S   0  0  0  0  0  0  0  0  0  0  0  0
   -0.1956   12.4274   20.3947 H   0  0  0  0  0  0  0  0  0  0  0  0
    1.5052   12.4546   20.8948 H   0  0  0  0  0  0  0  0  0  0  0  0
    0.6117   13.9724   20.6918 H   0  0  0  0  0  0  0  0  0  0  0  0
   -0.8386   13.2999   18.0274 H   0  0  0  0  0  0  0  0  0  0  0  0
    0.4356   13.8831   16.9596 H   0  0  0  0  0  0  0  0  0  0  0  0
    0.0016   14.8161   18.4019 H   0  0  0  0  0  0  0  0  0  0  0  0
    2.5402    9.8023   18.6399 H   0  0  0  0  0  0  0  0  0  0  0  0
    2.2396   10.7725   20.0955 H   0  0  0  0  0  0  0  0  0  0  0  0
    1.6502   11.6419   17.2082 H   0  0  0  0  0  0  0  0  0  0  0  0
    0.4501   11.0480   18.3443 H   0  0  0  0  0  0  0  0  0  0  0  0
    5.4544   12.7919   22.4073 H   0  0  0  0  0  0  0  0  0  0  0  0
    4.9262   14.1557   21.4300 H   0  0  0  0  0  0  0  0  0  0  0  0
    5.8687   13.0189   19.3781 H   0  0  0  0  0  0  0  0  0  0  0  0
    6.3912   11.6653   20.3979 H   0  0  0  0  0  0  0  0  0  0  0  0
    7.8460   13.2818   21.8332 H   0  0  0  0  0  0  0  0  0  0  0  0
    7.3233   14.6691   20.8489 H   0  0  0  0  0  0  0  0  0  0  0  0
    2.1263   13.5735   18.7629 H   0  0  0  0  0  0  0  0  0  0  0  0
    5.3927   16.4622   22.2600 H   0  0  0  0  0  0  0  0  0  0  0  0
    4.7280   15.1801   23.1961 H   0  0  0  0  0  0  0  0  0  0  0  0
    3.8108   11.6609   20.9675 H   0  0  0  0  0  0  0  0  0  0  0  0
  1  4  1  0  0  0  0
  1 11  1  0  0  0  0
  1 12  2  0  0  0  0
  2  9  1  0  0  0  0
  3  9  1  0  0  0  0
  4  5  1  0  0  0  0
  5  9  1  0  0  0  0
  6  7  1  0  0  0  0
  6  8  1  0  0  0  0
  7 11  1  0  0  0  0
  8 15  1  0  0  0  0
 10 15  1  0  0  0  0
 13 15  2  0  0  0  0
 14 15  2  0  0  0  0
  2 16  1  0  0  0  0
  2 17  1  0  0  0  0
  2 18  1  0  0  0  0
  3 19  1  0  0  0  0
  3 20  1  0  0  0  0
  3 21  1  0  0  0  0
  4 22  1  0  0  0  0
  4 23  1  0  0  0  0
  5 24  1  0  0  0  0
  5 25  1  0  0  0  0
  6 26  1  0  0  0  0
  6 27  1  0  0  0  0
  7 28  1  0  0  0  0
  7 29  1  0  0  0  0
  8 30  1  0  0  0  0
  8 31  1  0  0  0  0
  9 32  1  0  0  0  0
 10 33  1  0  0  0  0
 10 34  1  0  0  0  0
 11 35  1  0  0  0  0
M  END
> <Mol Weight>
236,33

> <Formula>
C9H20N2O3S

> <ID>
EN300-105715

> <name>
Sulfonamides

> <LogP>
-0,42

> <ROCS_ShapeQuery>
x0310_0A_x0719_0A_x1080_0A_x0739_0A_x0929_0A_x0526_0A_x0911_0A

> <ROCS_TanimotoCombo>
0.303 

> <ROCS_ShapeTanimoto>
0.186 

> <ROCS_ColorTanimoto>
0.117 

> <ROCS_RefTversky>
0.176 

> <ROCS_RefColorTversky>
0.131 

> <ROCS_RefTverskyCombo>
0.306 

> <ROCS_FitTversky>
1.454 

> <ROCS_FitColorTversky>
0.526 

> <ROCS_FitTverskyCombo>
1.980 

> <ROCS_ColorScore>
-3.795

> <ROCS_Overlap>
1407.746

> <ROCS_Rank>
376                 

$$$$
untitled-dbase-678_0
  -OEChem-02092407103D

 16 16  0     0  0  0  0  0  0999 V2000
   10.2450   11.2939   23.9399 C   0  0  0  0  0  0  0  0  0  0  0  0
    9.6712   10.0485   24.1389 C   0  0  0  0  0  0  0  0  0  0  0  0
    7.5680   10.8429   23.6662 C   0  0  0  0  0  0  0  0  0  0  0  0
    8.0432   12.1256   23.4452 C   0  0  0  0  0  0  0  0  0  0  0  0
    9.4086   12.3469   23.5867 C   0  0  0  0  0  0  0  0  0  0  0  0
    8.3495    9.7950   24.0107 N   0  0  0  0  0  0  0  0  0  0  0  0
    5.4454   12.5158   22.9938 N   0  0  0  0  0  0  0  0  0  0  0  0
    6.8763   14.3627   24.0834 O   0  0  0  0  0  0  0  0  0  0  0  0
    7.2140   13.8176   21.6469 O   0  0  0  0  0  0  0  0  0  0  0  0
    6.9162   13.3851   23.0051 S   0  0  0  0  0  0  0  0  0  0  0  0
   10.1093   13.9038   23.3356 Cl  0  0  0  0  0  0  0  0  0  0  0  0
   11.3151   11.4267   24.0599 H   0  0  0  0  0  0  0  0  0  0  0  0
   10.2802    9.1943   24.4157 H   0  0  0  0  0  0  0  0  0  0  0  0
    6.5125   10.6066   23.5713 H   0  0  0  0  0  0  0  0  0  0  0  0
    4.7733   12.6961   23.7497 H   0  0  0  0  0  0  0  0  0  0  0  0
    5.0064   12.3231   22.0853 H   0  0  0  0  0  0  0  0  0  0  0  0
  1  2  2  0  0  0  0
  1  5  1  0  0  0  0
  2  6  1  0  0  0  0
  3  4  1  0  0  0  0
  3  6  2  0  0  0  0
  4  5  2  0  0  0  0
  4 10  1  0  0  0  0
  5 11  1  0  0  0  0
  7 10  1  0  0  0  0
  8 10  2  0  0  0  0
  9 10  2  0  0  0  0
  1 12  1  0  0  0  0
  2 13  1  0  0  0  0
  3 14  1  0  0  0  0
  7 15  1  0  0  0  0
  7 16  1  0  0  0  0
M  END
> <Mol Weight>
192,62

> <Formula>
C5H5ClN2O2S

> <ID>
EN300-270986

> <name>
Sulfonamides

> <LogP>
-0,03

> <ROCS_ShapeQuery>
x0310_0A_x0719_0A_x1080_0A_x0739_0A_x0929_0A_x0526_0A_x0911_0A

> <ROCS_TanimotoCombo>
0.303 

> <ROCS_ShapeTanimoto>
0.136 

> <ROCS_ColorTanimoto>
0.167 

> <ROCS_RefTversky>
0.132 

> <ROCS_RefColorTversky>
0.174 

> <ROCS_RefTverskyCombo>
0.306 

> <ROCS_FitTversky>
1.248 

> <ROCS_FitColorTversky>
0.805 

> <ROCS_FitTverskyCombo>
2.053 

> <ROCS_ColorScore>
-5.044

> <ROCS_Overlap>
1059.064

> <ROCS_Rank>
377                 

$$$$
untitled-dbase-904_28
  -OEChem-02092407103D

 24 24  0     0  0  0  0  0  0999 V2000
    8.2737   10.1906   24.0150 C   0  0  0  0  0  0  0  0  0  0  0  0
   10.1563   11.7003   23.8970 C   0  0  0  0  0  0  0  0  0  0  0  0
    7.4927   11.1098   23.3145 C   0  0  0  0  0  0  0  0  0  0  0  0
    9.3752   12.6195   23.1965 C   0  0  0  0  0  0  0  0  0  0  0  0
    9.6056   10.4859   24.3063 C   0  0  0  0  0  0  0  0  0  0  0  0
    8.0434   12.3242   22.9052 C   0  0  0  0  0  0  0  0  0  0  0  0
   10.4413    9.5038   25.0551 C   0  0  0  0  0  0  0  0  0  0  0  0
    7.2080   13.3057   22.1548 C   0  0  0  0  0  0  0  0  0  0  0  0
    5.7300   15.4956   22.4217 N   0  0  0  0  0  0  0  0  0  0  0  0
    6.8244   14.4206   24.4866 O   0  0  0  0  0  0  0  0  0  0  0  0
    8.2736   15.6057   22.7892 O   0  0  0  0  0  0  0  0  0  0  0  0
   10.9034   10.0993   26.2613 O   0  0  0  0  0  0  0  0  0  0  0  0
    7.1184   14.7851   23.1110 S   0  0  0  0  0  0  0  0  0  0  0  0
    7.8362    9.2471   24.3305 H   0  0  0  0  0  0  0  0  0  0  0  0
   11.1934   11.9380   24.1187 H   0  0  0  0  0  0  0  0  0  0  0  0
    6.4565   10.8707   23.0906 H   0  0  0  0  0  0  0  0  0  0  0  0
    9.8121   13.5635   22.8814 H   0  0  0  0  0  0  0  0  0  0  0  0
    9.8694    8.6001   25.3067 H   0  0  0  0  0  0  0  0  0  0  0  0
   11.3105    9.1883   24.4618 H   0  0  0  0  0  0  0  0  0  0  0  0
    6.1855   12.9453   21.9948 H   0  0  0  0  0  0  0  0  0  0  0  0
    7.6399   13.5602   21.1801 H   0  0  0  0  0  0  0  0  0  0  0  0
    5.8076   15.8690   21.4677 H   0  0  0  0  0  0  0  0  0  0  0  0
    4.8208   15.0620   22.6239 H   0  0  0  0  0  0  0  0  0  0  0  0
   10.1150   10.3428   26.7722 H   0  0  0  0  0  0  0  0  0  0  0  0
  1  3  2  0  0  0  0
  1  5  1  0  0  0  0
  2  4  1  0  0  0  0
  2  5  2  0  0  0  0
  3  6  1  0  0  0  0
  4  6  2  0  0  0  0
  5  7  1  0  0  0  0
  6  8  1  0  0  0  0
  7 12  1  0  0  0  0
  8 13  1  0  0  0  0
  9 13  1  0  0  0  0
 10 13  2  0  0  0  0
 11 13  2  0  0  0  0
  1 14  1  0  0  0  0
  2 15  1  0  0  0  0
  3 16  1  0  0  0  0
  4 17  1  0  0  0  0
  7 18  1  0  0  0  0
  7 19  1  0  0  0  0
  8 20  1  0  0  0  0
  8 21  1  0  0  0  0
  9 22  1  0  0  0  0
  9 23  1  0  0  0  0
 12 24  1  0  0  0  0
M  END
> <Mol Weight>
201,24

> <Formula>
C8H11NO3S

> <ID>
EN300-115707

> <name>
Sulfonamides

> <LogP>
-0,43

> <ROCS_ShapeQuery>
x0310_0A_x0719_0A_x1080_0A_x0739_0A_x0929_0A_x0526_0A_x0911_0A

> <ROCS_TanimotoCombo>
0.303 

> <ROCS_ShapeTanimoto>
0.149 

> <ROCS_ColorTanimoto>
0.153 

> <ROCS_RefTversky>
0.145 

> <ROCS_RefColorTversky>
0.166 

> <ROCS_RefTverskyCombo>
0.311 

> <ROCS_FitTversky>
1.251 

> <ROCS_FitColorTversky>
0.668 

> <ROCS_FitTverskyCombo>
1.919 

> <ROCS_ColorScore>
-4.823

> <ROCS_Overlap>
1161.463

> <ROCS_Rank>
378                 

$$$$
untitled-dbase-2809_13
  -OEChem-02092407103D

 40 41  0     0  0  0  0  0  0999 V2000
    5.4908   12.8328   20.7838 B   0  0  0  0  0  0  0  0  0  0  0  0
    4.4189   11.0406   17.5423 C   0  0  0  0  0  0  0  0  0  0  0  0
    5.1852   11.4813   18.6213 C   0  0  0  0  0  0  0  0  0  0  0  0
    3.0942   11.4572   17.4112 C   0  0  0  0  0  0  0  0  0  0  0  0
    3.3019   12.7552   19.4383 C   0  0  0  0  0  0  0  0  0  0  0  0
    4.6267   12.3385   19.5693 C   0  0  0  0  0  0  0  0  0  0  0  0
    2.5357   12.3145   18.3593 C   0  0  0  0  0  0  0  0  0  0  0  0
    6.0259   13.7565   22.8100 C   0  0  0  0  0  0  0  0  0  0  0  0
    7.3239   13.2631   22.0875 C   0  0  0  0  0  0  0  0  0  0  0  0
    5.5489   12.8586   23.9737 C   0  0  0  0  0  0  0  0  0  0  0  0
    6.0891   15.2012   23.3253 C   0  0  0  0  0  0  0  0  0  0  0  0
    8.2374   12.3767   22.9458 C   0  0  0  0  0  0  0  0  0  0  0  0
    8.1921   14.3846   21.4739 C   0  0  0  0  0  0  0  0  0  0  0  0
   -0.3126   10.3582   18.3948 C   0  0  0  0  0  0  0  0  0  0  0  0
    0.0257   11.6272   19.0549 N   0  0  0  0  0  0  0  0  0  0  0  0
    0.7122   14.1047   18.8889 O   0  0  0  0  0  0  0  0  0  0  0  0
    0.5195   12.7400   16.7854 O   0  0  0  0  0  0  0  0  0  0  0  0
    4.9990   13.6895   21.7686 O   0  0  0  0  0  0  0  0  0  0  0  0
    6.8196   12.4549   20.9758 O   0  0  0  0  0  0  0  0  0  0  0  0
    0.8767   12.8341   18.1946 S   0  0  0  0  0  0  0  0  0  0  0  0
    4.8529   10.3730   16.8036 H   0  0  0  0  0  0  0  0  0  0  0  0
    6.2158   11.1399   18.6984 H   0  0  0  0  0  0  0  0  0  0  0  0
    2.5066   11.1073   16.5671 H   0  0  0  0  0  0  0  0  0  0  0  0
    2.8503   13.4239   20.1695 H   0  0  0  0  0  0  0  0  0  0  0  0
    4.6509   13.2862   24.4017 H   0  0  0  0  0  0  0  0  0  0  0  0
    6.3295   12.8102   24.7225 H   0  0  0  0  0  0  0  0  0  0  0  0
    5.3411   11.8676   23.5900 H   0  0  0  0  0  0  0  0  0  0  0  0
    5.1499   15.4536   23.8088 H   0  0  0  0  0  0  0  0  0  0  0  0
    6.2602   15.8750   22.4909 H   0  0  0  0  0  0  0  0  0  0  0  0
    6.9018   15.2945   24.0398 H   0  0  0  0  0  0  0  0  0  0  0  0
    9.1071   12.0845   22.3644 H   0  0  0  0  0  0  0  0  0  0  0  0
    7.6928   11.4893   23.2549 H   0  0  0  0  0  0  0  0  0  0  0  0
    8.5571   12.9307   23.8236 H   0  0  0  0  0  0  0  0  0  0  0  0
    9.0587   13.9390   21.0019 H   0  0  0  0  0  0  0  0  0  0  0  0
    8.5044   15.0577   22.2623 H   0  0  0  0  0  0  0  0  0  0  0  0
    7.6046   14.9209   20.7393 H   0  0  0  0  0  0  0  0  0  0  0  0
    0.4101   10.1590   17.5898 H   0  0  0  0  0  0  0  0  0  0  0  0
   -0.2762    9.5412   19.1304 H   0  0  0  0  0  0  0  0  0  0  0  0
   -1.3251   10.4244   17.9702 H   0  0  0  0  0  0  0  0  0  0  0  0
   -0.5893   11.9113   19.8272 H   0  0  0  0  0  0  0  0  0  0  0  0
  1  6  1  0  0  0  0
  1 18  1  0  0  0  0
  1 19  1  0  0  0  0
  2  3  1  0  0  0  0
  2  4  2  0  0  0  0
  3  6  2  0  0  0  0
  4  7  1  0  0  0  0
  5  6  1  0  0  0  0
  5  7  2  0  0  0  0
  7 20  1  0  0  0  0
  8  9  1  0  0  0  0
  8 10  1  0  0  0  0
  8 11  1  0  0  0  0
  8 18  1  0  0  0  0
  9 12  1  0  0  0  0
  9 13  1  0  0  0  0
  9 19  1  0  0  0  0
 14 15  1  0  0  0  0
 15 20  1  0  0  0  0
 16 20  2  0  0  0  0
 17 20  2  0  0  0  0
  2 21  1  0  0  0  0
  3 22  1  0  0  0  0
  4 23  1  0  0  0  0
  5 24  1  0  0  0  0
 10 25  1  0  0  0  0
 10 26  1  0  0  0  0
 10 27  1  0  0  0  0
 11 28  1  0  0  0  0
 11 29  1  0  0  0  0
 11 30  1  0  0  0  0
 12 31  1  0  0  0  0
 12 32  1  0  0  0  0
 12 33  1  0  0  0  0
 13 34  1  0  0  0  0
 13 35  1  0  0  0  0
 13 36  1  0  0  0  0
 14 37  1  0  0  0  0
 14 38  1  0  0  0  0
 14 39  1  0  0  0  0
 15 40  1  0  0  0  0
M  END
> <Mol Weight>
297,18

> <Formula>
C13H20BNO4S

> <ID>
EN300-7410935

> <name>
Sulfonamides

> <LogP>
2,78

> <ROCS_ShapeQuery>
x0310_0A_x0719_0A_x1080_0A_x0739_0A_x0929_0A_x0526_0A_x0911_0A

> <ROCS_TanimotoCombo>
0.303 

> <ROCS_ShapeTanimoto>
0.205 

> <ROCS_ColorTanimoto>
0.098 

> <ROCS_RefTversky>
0.196 

> <ROCS_RefColorTversky>
0.114 

> <ROCS_RefTverskyCombo>
0.310 

> <ROCS_FitTversky>
1.278 

> <ROCS_FitColorTversky>
0.406 

> <ROCS_FitTverskyCombo>
1.683 

> <ROCS_ColorScore>
-3.315

> <ROCS_Overlap>
1574.321

> <ROCS_Rank>
379                 

$$$$
untitled-dbase-2393_37
  -OEChem-02092407103D

 27 27  0     0  0  0  0  0  0999 V2000
   10.9940    9.6207   22.6542 C   0  0  0  0  0  0  0  0  0  0  0  0
   11.9015    8.9553   22.2338 C   0  0  0  0  0  0  0  0  0  0  0  0
    7.6540   10.5766   23.9912 C   0  0  0  0  0  0  0  0  0  0  0  0
    8.7085    9.8045   23.5040 C   0  0  0  0  0  0  0  0  0  0  0  0
    7.8045   11.9568   24.1266 C   0  0  0  0  0  0  0  0  0  0  0  0
   10.0642   11.7926   23.2876 C   0  0  0  0  0  0  0  0  0  0  0  0
    9.9137   10.4125   23.1522 C   0  0  0  0  0  0  0  0  0  0  0  0
    9.0096   12.5647   23.7748 C   0  0  0  0  0  0  0  0  0  0  0  0
    7.4571   14.3156   21.8644 C   0  0  0  0  0  0  0  0  0  0  0  0
   13.0056    8.1434   21.7243 C   0  0  0  0  0  0  0  0  0  0  0  0
   13.4101    8.5826   20.4182 N   0  0  0  0  0  0  0  0  0  0  0  0
    9.1625   13.9776   23.9114 N   0  0  0  0  0  0  0  0  0  0  0  0
    6.7159   14.6768   24.3316 O   0  0  0  0  0  0  0  0  0  0  0  0
    8.2719   16.3576   23.2835 O   0  0  0  0  0  0  0  0  0  0  0  0
    7.8393   14.9865   23.4670 S   0  0  0  0  0  0  0  0  0  0  0  0
    6.7151   10.1032   24.2645 H   0  0  0  0  0  0  0  0  0  0  0  0
    8.5761    8.7298   23.4046 H   0  0  0  0  0  0  0  0  0  0  0  0
    6.9761   12.5492   24.5063 H   0  0  0  0  0  0  0  0  0  0  0  0
   11.0030   12.2713   23.0153 H   0  0  0  0  0  0  0  0  0  0  0  0
    6.6149   14.8720   21.4501 H   0  0  0  0  0  0  0  0  0  0  0  0
    8.3366   14.4228   21.2276 H   0  0  0  0  0  0  0  0  0  0  0  0
    7.1979   13.2627   21.9848 H   0  0  0  0  0  0  0  0  0  0  0  0
   12.7126    7.0926   21.6431 H   0  0  0  0  0  0  0  0  0  0  0  0
   13.8798    8.2091   22.3785 H   0  0  0  0  0  0  0  0  0  0  0  0
   14.1812    8.0289   20.1026 H   0  0  0  0  0  0  0  0  0  0  0  0
   12.6460    8.4826   19.7803 H   0  0  0  0  0  0  0  0  0  0  0  0
   10.0896   14.3337   23.6256 H   0  0  0  0  0  0  0  0  0  0  0  0
  1  2  3  0  0  0  0
  1  7  1  0  0  0  0
  2 10  1  0  0  0  0
  3  4  1  0  0  0  0
  3  5  2  0  0  0  0
  4  7  2  0  0  0  0
  5  8  1  0  0  0  0
  6  7  1  0  0  0  0
  6  8  2  0  0  0  0
  8 12  1  0  0  0  0
  9 15  1  0  0  0  0
 10 11  1  0  0  0  0
 12 15  1  0  0  0  0
 13 15  2  0  0  0  0
 14 15  2  0  0  0  0
  3 16  1  0  0  0  0
  4 17  1  0  0  0  0
  5 18  1  0  0  0  0
  6 19  1  0  0  0  0
  9 20  1  0  0  0  0
  9 21  1  0  0  0  0
  9 22  1  0  0  0  0
 10 23  1  0  0  0  0
 10 24  1  0  0  0  0
 11 25  1  0  0  0  0
 11 26  1  0  0  0  0
 12 27  1  0  0  0  0
M  END
> <Mol Weight>
260,74

> <Formula>
C10H13ClN2O2S

> <ID>
EN300-41322

> <name>
Sulfonamides

> <LogP>
-0,27

> <ROCS_ShapeQuery>
x0310_0A_x0719_0A_x1080_0A_x0739_0A_x0929_0A_x0526_0A_x0911_0A

> <ROCS_TanimotoCombo>
0.303 

> <ROCS_ShapeTanimoto>
0.171 

> <ROCS_ColorTanimoto>
0.131 

> <ROCS_RefTversky>
0.165 

> <ROCS_RefColorTversky>
0.145 

> <ROCS_RefTverskyCombo>
0.310 

> <ROCS_FitTversky>
1.309 

> <ROCS_FitColorTversky>
0.583 

> <ROCS_FitTverskyCombo>
1.892 

> <ROCS_ColorScore>
-4.209

> <ROCS_Overlap>
1319.157

> <ROCS_Rank>
380                 

$$$$
untitled-dbase-1949_29
  -OEChem-02092407103D

 25 26  0     0  0  0  0  0  0999 V2000
    7.9198   11.5330   20.6254 C   0  0  0  0  0  0  0  0  0  0  0  0
    6.7670   11.3791   19.8555 C   0  0  0  0  0  0  0  0  0  0  0  0
    8.0116   12.5805   21.5420 C   0  0  0  0  0  0  0  0  0  0  0  0
    5.7978   13.3201   20.9186 C   0  0  0  0  0  0  0  0  0  0  0  0
    5.7060   12.2726   20.0020 C   0  0  0  0  0  0  0  0  0  0  0  0
    6.9506   13.4740   21.6886 C   0  0  0  0  0  0  0  0  0  0  0  0
    4.5137   12.1125   19.2056 C   0  0  0  0  0  0  0  0  0  0  0  0
    2.8402   13.0845   20.8379 C   0  0  0  0  0  0  0  0  0  0  0  0
    4.4335   11.6017   17.9986 N   0  0  0  0  0  0  0  0  0  0  0  0
    3.1008   11.6602   17.6585 N   0  0  0  0  0  0  0  0  0  0  0  0
    2.3816   12.1949   18.6378 N   0  0  0  0  0  0  0  0  0  0  0  0
    3.2671   12.4770   19.6036 N   0  0  0  0  0  0  0  0  0  0  0  0
    5.5506   15.5434   22.6172 N   0  0  0  0  0  0  0  0  0  0  0  0
    7.1193   14.2192   24.1764 O   0  0  0  0  0  0  0  0  0  0  0  0
    8.1125   15.6962   22.3932 O   0  0  0  0  0  0  0  0  0  0  0  0
    7.0661   14.7853   22.8359 S   0  0  0  0  0  0  0  0  0  0  0  0
    8.7462   10.8376   20.5114 H   0  0  0  0  0  0  0  0  0  0  0  0
    6.7103   10.5575   19.1452 H   0  0  0  0  0  0  0  0  0  0  0  0
    8.9146   12.6906   22.1365 H   0  0  0  0  0  0  0  0  0  0  0  0
    4.9730   14.0200   21.0360 H   0  0  0  0  0  0  0  0  0  0  0  0
    2.8836   14.1696   20.7124 H   0  0  0  0  0  0  0  0  0  0  0  0
    1.8191   12.7665   21.0663 H   0  0  0  0  0  0  0  0  0  0  0  0
    3.5040   12.7652   21.6463 H   0  0  0  0  0  0  0  0  0  0  0  0
    4.8518   15.4481   23.3643 H   0  0  0  0  0  0  0  0  0  0  0  0
    5.5315   16.4554   22.1448 H   0  0  0  0  0  0  0  0  0  0  0  0
  1  2  2  0  0  0  0
  1  3  1  0  0  0  0
  2  5  1  0  0  0  0
  3  6  2  0  0  0  0
  4  5  2  0  0  0  0
  4  6  1  0  0  0  0
  5  7  1  0  0  0  0
  6 16  1  0  0  0  0
  7  9  2  0  0  0  0
  7 12  1  0  0  0  0
  8 12  1  0  0  0  0
  9 10  1  0  0  0  0
 10 11  2  0  0  0  0
 11 12  1  0  0  0  0
 13 16  1  0  0  0  0
 14 16  2  0  0  0  0
 15 16  2  0  0  0  0
  1 17  1  0  0  0  0
  2 18  1  0  0  0  0
  3 19  1  0  0  0  0
  4 20  1  0  0  0  0
  8 21  1  0  0  0  0
  8 22  1  0  0  0  0
  8 23  1  0  0  0  0
 13 24  1  0  0  0  0
 13 25  1  0  0  0  0
M  END
> <Mol Weight>
239,25

> <Formula>
C8H9N5O2S

> <ID>
EN300-51303

> <name>
Sulfonamides

> <LogP>
-0,02

> <ROCS_ShapeQuery>
x0310_0A_x0719_0A_x1080_0A_x0739_0A_x0929_0A_x0526_0A_x0911_0A

> <ROCS_TanimotoCombo>
0.303 

> <ROCS_ShapeTanimoto>
0.158 

> <ROCS_ColorTanimoto>
0.144 

> <ROCS_RefTversky>
0.155 

> <ROCS_RefColorTversky>
0.168 

> <ROCS_RefTverskyCombo>
0.323 

> <ROCS_FitTversky>
1.138 

> <ROCS_FitColorTversky>
0.504 

> <ROCS_FitTverskyCombo>
1.642 

> <ROCS_ColorScore>
-4.909

> <ROCS_Overlap>
1244.732

> <ROCS_Rank>
381                 

$$$$
untitled-dbase-2057_0
  -OEChem-02092407103D

 22 23  0     0  0  0  0  0  0999 V2000
    9.6233   10.5432   24.4454 C   0  0  0  0  0  0  0  0  0  0  0  0
    9.0490   10.1742   23.2375 C   0  0  0  0  0  0  0  0  0  0  0  0
    7.6783   10.7493   21.2902 C   0  0  0  0  0  0  0  0  0  0  0  0
    6.7391   12.9551   21.1192 C   0  0  0  0  0  0  0  0  0  0  0  0
    9.3987   11.8296   24.8921 C   0  0  0  0  0  0  0  0  0  0  0  0
    8.2735   11.0919   22.5162 C   0  0  0  0  0  0  0  0  0  0  0  0
    8.1013   12.3841   23.0552 C   0  0  0  0  0  0  0  0  0  0  0  0
    7.3310   13.2955   22.3381 C   0  0  0  0  0  0  0  0  0  0  0  0
    6.9127   11.6805   20.5943 C   0  0  0  0  0  0  0  0  0  0  0  0
    8.6574   12.7451   24.2271 N   0  0  0  0  0  0  0  0  0  0  0  0
    6.1004   15.5739   21.7062 N   0  0  0  0  0  0  0  0  0  0  0  0
    6.2955   14.8306   24.1669 O   0  0  0  0  0  0  0  0  0  0  0  0
    8.3576   15.6105   22.9474 O   0  0  0  0  0  0  0  0  0  0  0  0
    7.0772   14.9231   22.9454 S   0  0  0  0  0  0  0  0  0  0  0  0
    6.1885   11.2558   19.0932 Cl  0  0  0  0  0  0  0  0  0  0  0  0
   10.2261    9.8464   25.0154 H   0  0  0  0  0  0  0  0  0  0  0  0
    9.2100    9.1664   22.8614 H   0  0  0  0  0  0  0  0  0  0  0  0
    7.8181    9.7501   20.8814 H   0  0  0  0  0  0  0  0  0  0  0  0
    6.1438   13.6903   20.5822 H   0  0  0  0  0  0  0  0  0  0  0  0
    9.8228   12.1748   25.8294 H   0  0  0  0  0  0  0  0  0  0  0  0
    5.1090   15.7438   21.9154 H   0  0  0  0  0  0  0  0  0  0  0  0
    6.5190   16.2745   21.0824 H   0  0  0  0  0  0  0  0  0  0  0  0
  1  2  2  0  0  0  0
  1  5  1  0  0  0  0
  2  6  1  0  0  0  0
  3  6  2  0  0  0  0
  3  9  1  0  0  0  0
  4  8  1  0  0  0  0
  4  9  2  0  0  0  0
  5 10  2  0  0  0  0
  6  7  1  0  0  0  0
  7  8  2  0  0  0  0
  7 10  1  0  0  0  0
  8 14  1  0  0  0  0
  9 15  1  0  0  0  0
 11 14  1  0  0  0  0
 12 14  2  0  0  0  0
 13 14  2  0  0  0  0
  1 16  1  0  0  0  0
  2 17  1  0  0  0  0
  3 18  1  0  0  0  0
  4 19  1  0  0  0  0
  5 20  1  0  0  0  0
 11 21  1  0  0  0  0
 11 22  1  0  0  0  0
M  END
> <Mol Weight>
242,68

> <Formula>
C9H7ClN2O2S

> <ID>
EN300-272017

> <name>
Sulfonamides

> <LogP>
1,34

> <ROCS_ShapeQuery>
x0310_0A_x0719_0A_x1080_0A_x0739_0A_x0929_0A_x0526_0A_x0911_0A

> <ROCS_TanimotoCombo>
0.303 

> <ROCS_ShapeTanimoto>
0.153 

> <ROCS_ColorTanimoto>
0.149 

> <ROCS_RefTversky>
0.150 

> <ROCS_RefColorTversky>
0.162 

> <ROCS_RefTverskyCombo>
0.312 

> <ROCS_FitTversky>
1.155 

> <ROCS_FitColorTversky>
0.652 

> <ROCS_FitTverskyCombo>
1.807 

> <ROCS_ColorScore>
-4.713

> <ROCS_Overlap>
1203.416

> <ROCS_Rank>
382                 

$$$$
untitled-dbase-2163_4
  -OEChem-02092407103D

 28 29  0     0  0  0  0  0  0999 V2000
    9.3722   10.4673   24.5484 C   0  0  0  0  0  0  0  0  0  0  0  0
    9.8829   10.6100   23.2583 C   0  0  0  0  0  0  0  0  0  0  0  0
    8.3102   11.2672   24.9706 C   0  0  0  0  0  0  0  0  0  0  0  0
    9.3318   11.5526   22.3903 C   0  0  0  0  0  0  0  0  0  0  0  0
    7.7591   12.2098   24.1026 C   0  0  0  0  0  0  0  0  0  0  0  0
    5.3690   12.9942   21.6058 C   0  0  0  0  0  0  0  0  0  0  0  0
    6.9426   12.3383   19.8938 C   0  0  0  0  0  0  0  0  0  0  0  0
    4.3127   12.5871   20.7909 C   0  0  0  0  0  0  0  0  0  0  0  0
    5.8863   11.9312   19.0789 C   0  0  0  0  0  0  0  0  0  0  0  0
    8.2699   12.3525   22.8124 C   0  0  0  0  0  0  0  0  0  0  0  0
    6.6840   12.8698   21.1573 C   0  0  0  0  0  0  0  0  0  0  0  0
    4.5713   12.0556   19.5274 C   0  0  0  0  0  0  0  0  0  0  0  0
    3.0824    9.9136   18.9801 N   0  0  0  0  0  0  0  0  0  0  0  0
    2.0536   12.2762   18.9062 O   0  0  0  0  0  0  0  0  0  0  0  0
    3.6925   11.5887   17.1203 O   0  0  0  0  0  0  0  0  0  0  0  0
    7.7328   13.2735   21.9665 O   0  0  0  0  0  0  0  0  0  0  0  0
    3.2489   11.5468   18.5067 S   0  0  0  0  0  0  0  0  0  0  0  0
    9.8007    9.7331   25.2243 H   0  0  0  0  0  0  0  0  0  0  0  0
   10.7099    9.9873   22.9295 H   0  0  0  0  0  0  0  0  0  0  0  0
    7.9130   11.1554   25.9753 H   0  0  0  0  0  0  0  0  0  0  0  0
    9.7352   11.6598   21.3871 H   0  0  0  0  0  0  0  0  0  0  0  0
    6.9332   12.8314   24.4374 H   0  0  0  0  0  0  0  0  0  0  0  0
    5.1614   13.4068   22.5894 H   0  0  0  0  0  0  0  0  0  0  0  0
    7.9647   12.2390   19.5390 H   0  0  0  0  0  0  0  0  0  0  0  0
    3.2923   12.6886   21.1502 H   0  0  0  0  0  0  0  0  0  0  0  0
    6.0988   11.5188   18.0962 H   0  0  0  0  0  0  0  0  0  0  0  0
    2.2590    9.6550   19.5374 H   0  0  0  0  0  0  0  0  0  0  0  0
    3.3803    9.1870   18.3178 H   0  0  0  0  0  0  0  0  0  0  0  0
  1  2  1  0  0  0  0
  1  3  2  0  0  0  0
  2  4  2  0  0  0  0
  3  5  1  0  0  0  0
  4 10  1  0  0  0  0
  5 10  2  0  0  0  0
  6  8  2  0  0  0  0
  6 11  1  0  0  0  0
  7  9  1  0  0  0  0
  7 11  2  0  0  0  0
  8 12  1  0  0  0  0
  9 12  2  0  0  0  0
 10 16  1  0  0  0  0
 11 16  1  0  0  0  0
 12 17  1  0  0  0  0
 13 17  1  0  0  0  0
 14 17  2  0  0  0  0
 15 17  2  0  0  0  0
  1 18  1  0  0  0  0
  2 19  1  0  0  0  0
  3 20  1  0  0  0  0
  4 21  1  0  0  0  0
  5 22  1  0  0  0  0
  6 23  1  0  0  0  0
  7 24  1  0  0  0  0
  8 25  1  0  0  0  0
  9 26  1  0  0  0  0
 13 27  1  0  0  0  0
 13 28  1  0  0  0  0
M  END
> <Mol Weight>
249,28

> <Formula>
C12H11NO3S

> <ID>
EN300-270594

> <name>
Sulfonamides

> <LogP>
2,08

> <ROCS_ShapeQuery>
x0310_0A_x0719_0A_x1080_0A_x0739_0A_x0929_0A_x0526_0A_x0911_0A

> <ROCS_TanimotoCombo>
0.302 

> <ROCS_ShapeTanimoto>
0.200 

> <ROCS_ColorTanimoto>
0.102 

> <ROCS_RefTversky>
0.190 

> <ROCS_RefColorTversky>
0.116 

> <ROCS_RefTverskyCombo>
0.306 

> <ROCS_FitTversky>
1.356 

> <ROCS_FitColorTversky>
0.465 

> <ROCS_FitTverskyCombo>
1.821 

> <ROCS_ColorScore>
-3.357

> <ROCS_Overlap>
1526.389

> <ROCS_Rank>
383                 

$$$$
untitled-dbase-1926_6
  -OEChem-02092407103D

 26 27  0     0  0  0  0  0  0999 V2000
    9.6291   10.5722   24.4972 C   0  0  0  0  0  0  0  0  0  0  0  0
    9.0933   10.1972   23.2736 C   0  0  0  0  0  0  0  0  0  0  0  0
    7.7706   10.7572   21.2891 C   0  0  0  0  0  0  0  0  0  0  0  0
    7.0135   11.6796   20.5725 C   0  0  0  0  0  0  0  0  0  0  0  0
    9.3766   11.8555   24.9381 C   0  0  0  0  0  0  0  0  0  0  0  0
    8.3271   11.1061   22.5313 C   0  0  0  0  0  0  0  0  0  0  0  0
    8.1243   12.3957   23.0659 C   0  0  0  0  0  0  0  0  0  0  0  0
    6.8099   12.9516   21.0929 C   0  0  0  0  0  0  0  0  0  0  0  0
    7.3633   13.2982   22.3280 C   0  0  0  0  0  0  0  0  0  0  0  0
    5.5437   13.3960   19.1294 C   0  0  0  0  0  0  0  0  0  0  0  0
    8.6431   12.7624   24.2530 N   0  0  0  0  0  0  0  0  0  0  0  0
    6.1316   15.5777   21.7022 N   0  0  0  0  0  0  0  0  0  0  0  0
    6.2781   14.8000   24.1557 O   0  0  0  0  0  0  0  0  0  0  0  0
    8.3610   15.6105   22.9928 O   0  0  0  0  0  0  0  0  0  0  0  0
    6.0662   13.8429   20.3787 O   0  0  0  0  0  0  0  0  0  0  0  0
    7.0849   14.9189   22.9544 S   0  0  0  0  0  0  0  0  0  0  0  0
   10.2232    9.8824   25.0850 H   0  0  0  0  0  0  0  0  0  0  0  0
    9.2759    9.1915   22.9028 H   0  0  0  0  0  0  0  0  0  0  0  0
    7.9236    9.7639   20.8727 H   0  0  0  0  0  0  0  0  0  0  0  0
    6.5876   11.3986   19.6136 H   0  0  0  0  0  0  0  0  0  0  0  0
    9.7690   12.2047   25.8876 H   0  0  0  0  0  0  0  0  0  0  0  0
    4.9715   14.2021   18.6637 H   0  0  0  0  0  0  0  0  0  0  0  0
    4.9023   12.5262   19.2919 H   0  0  0  0  0  0  0  0  0  0  0  0
    6.3740   13.1171   18.4763 H   0  0  0  0  0  0  0  0  0  0  0  0
    6.5923   15.7875   20.8083 H   0  0  0  0  0  0  0  0  0  0  0  0
    5.1680   15.2359   21.6024 H   0  0  0  0  0  0  0  0  0  0  0  0
  1  2  2  0  0  0  0
  1  5  1  0  0  0  0
  2  6  1  0  0  0  0
  3  4  2  0  0  0  0
  3  6  1  0  0  0  0
  4  8  1  0  0  0  0
  5 11  2  0  0  0  0
  6  7  2  0  0  0  0
  7  9  1  0  0  0  0
  7 11  1  0  0  0  0
  8  9  2  0  0  0  0
  8 15  1  0  0  0  0
  9 16  1  0  0  0  0
 10 15  1  0  0  0  0
 12 16  1  0  0  0  0
 13 16  2  0  0  0  0
 14 16  2  0  0  0  0
  1 17  1  0  0  0  0
  2 18  1  0  0  0  0
  3 19  1  0  0  0  0
  4 20  1  0  0  0  0
  5 21  1  0  0  0  0
 10 22  1  0  0  0  0
 10 23  1  0  0  0  0
 10 24  1  0  0  0  0
 12 25  1  0  0  0  0
 12 26  1  0  0  0  0
M  END
> <Mol Weight>
238,26

> <Formula>
C10H10N2O3S

> <ID>
EN300-319584

> <name>
Sulfonamides

> <LogP>
0,58

> <ROCS_ShapeQuery>
x0310_0A_x0719_0A_x1080_0A_x0739_0A_x0929_0A_x0526_0A_x0911_0A

> <ROCS_TanimotoCombo>
0.302 

> <ROCS_ShapeTanimoto>
0.156 

> <ROCS_ColorTanimoto>
0.146 

> <ROCS_RefTversky>
0.154 

> <ROCS_RefColorTversky>
0.163 

> <ROCS_RefTverskyCombo>
0.317 

> <ROCS_FitTversky>
1.121 

> <ROCS_FitColorTversky>
0.581 

> <ROCS_FitTverskyCombo>
1.702 

> <ROCS_ColorScore>
-4.751

> <ROCS_Overlap>
1232.386

> <ROCS_Rank>
384                 

$$$$
untitled-dbase-1123_4
  -OEChem-02092407103D

 20 20  0     0  0  0  0  0  0999 V2000
    9.3013   12.0385   22.8958 C   0  0  0  0  0  0  0  0  0  0  0  0
    7.9261   12.0364   22.8080 C   0  0  0  0  0  0  0  0  0  0  0  0
    9.7416   10.9516   23.7041 C   0  0  0  0  0  0  0  0  0  0  0  0
   12.0409   11.5056   23.4552 C   0  0  0  0  0  0  0  0  0  0  0  0
    6.9979   12.9625   22.0843 C   0  0  0  0  0  0  0  0  0  0  0  0
    8.8062   10.1551   24.2158 N   0  0  0  0  0  0  0  0  0  0  0  0
    6.0978   15.4455   21.8092 N   0  0  0  0  0  0  0  0  0  0  0  0
    6.7643   14.5671   24.1332 O   0  0  0  0  0  0  0  0  0  0  0  0
    8.5620   15.0289   22.4184 O   0  0  0  0  0  0  0  0  0  0  0  0
   11.0191   10.6571   23.9980 O   0  0  0  0  0  0  0  0  0  0  0  0
    7.3234   10.7159   23.7172 S   0  0  0  0  0  0  0  0  0  0  0  0
    7.2233   14.5897   22.7586 S   0  0  0  0  0  0  0  0  0  0  0  0
    9.9441   12.7649   22.4161 H   0  0  0  0  0  0  0  0  0  0  0  0
   13.0219   11.1469   23.7761 H   0  0  0  0  0  0  0  0  0  0  0  0
   11.8854   12.5310   23.8000 H   0  0  0  0  0  0  0  0  0  0  0  0
   11.9840   11.4775   22.3645 H   0  0  0  0  0  0  0  0  0  0  0  0
    5.9500   12.6800   22.2187 H   0  0  0  0  0  0  0  0  0  0  0  0
    7.2141   13.0047   21.0131 H   0  0  0  0  0  0  0  0  0  0  0  0
    6.3231   15.5980   20.8184 H   0  0  0  0  0  0  0  0  0  0  0  0
    5.0989   15.2836   21.9864 H   0  0  0  0  0  0  0  0  0  0  0  0
  1  2  2  0  0  0  0
  1  3  1  0  0  0  0
  2  5  1  0  0  0  0
  2 11  1  0  0  0  0
  3  6  2  0  0  0  0
  3 10  1  0  0  0  0
  4 10  1  0  0  0  0
  5 12  1  0  0  0  0
  6 11  1  0  0  0  0
  7 12  1  0  0  0  0
  8 12  2  0  0  0  0
  9 12  2  0  0  0  0
  1 13  1  0  0  0  0
  4 14  1  0  0  0  0
  4 15  1  0  0  0  0
  4 16  1  0  0  0  0
  5 17  1  0  0  0  0
  5 18  1  0  0  0  0
  7 19  1  0  0  0  0
  7 20  1  0  0  0  0
M  END
> <Mol Weight>
208,25

> <Formula>
C5H8N2O3S2

> <ID>
EN300-302317

> <name>
Sulfonamides

> <LogP>
-0,12

> <ROCS_ShapeQuery>
x0310_0A_x0719_0A_x1080_0A_x0739_0A_x0929_0A_x0526_0A_x0911_0A

> <ROCS_TanimotoCombo>
0.302 

> <ROCS_ShapeTanimoto>
0.139 

> <ROCS_ColorTanimoto>
0.163 

> <ROCS_RefTversky>
0.135 

> <ROCS_RefColorTversky>
0.175 

> <ROCS_RefTverskyCombo>
0.311 

> <ROCS_FitTversky>
1.235 

> <ROCS_FitColorTversky>
0.705 

> <ROCS_FitTverskyCombo>
1.940 

> <ROCS_ColorScore>
-5.096

> <ROCS_Overlap>
1083.467

> <ROCS_Rank>
385                 

$$$$
untitled-dbase-1421_21
  -OEChem-02092407103D

 29 29  0     0  0  0  0  0  0999 V2000
    8.0007   11.9842   23.4611 C   0  0  0  0  0  0  0  0  0  0  0  0
    7.6149   10.6526   23.7056 C   0  0  0  0  0  0  0  0  0  0  0  0
    9.3616   11.9870   23.6463 C   0  0  0  0  0  0  0  0  0  0  0  0
    5.4098   10.4258   24.8770 C   0  0  0  0  0  0  0  0  0  0  0  0
   10.7124   13.4156   22.0904 C   0  0  0  0  0  0  0  0  0  0  0  0
   11.0167   10.2017   24.2703 C   0  0  0  0  0  0  0  0  0  0  0  0
    6.2592   10.0777   23.6489 C   0  0  0  0  0  0  0  0  0  0  0  0
   10.3582   13.0698   23.5409 C   0  0  0  0  0  0  0  0  0  0  0  0
    8.6474    9.8665   24.0219 N   0  0  0  0  0  0  0  0  0  0  0  0
    9.6954   10.7066   23.9773 N   0  0  0  0  0  0  0  0  0  0  0  0
    5.4485   12.5832   22.9792 N   0  0  0  0  0  0  0  0  0  0  0  0
    7.0044   14.2991   24.1107 O   0  0  0  0  0  0  0  0  0  0  0  0
    7.3335   13.7563   21.6725 O   0  0  0  0  0  0  0  0  0  0  0  0
    7.0098   13.2979   23.0327 S   0  0  0  0  0  0  0  0  0  0  0  0
    5.9106   10.1069   25.7974 H   0  0  0  0  0  0  0  0  0  0  0  0
    4.4314    9.9367   24.8364 H   0  0  0  0  0  0  0  0  0  0  0  0
    5.2462   11.5069   24.9409 H   0  0  0  0  0  0  0  0  0  0  0  0
   11.0705   12.5288   21.5565 H   0  0  0  0  0  0  0  0  0  0  0  0
   11.4956   14.1787   22.0437 H   0  0  0  0  0  0  0  0  0  0  0  0
    9.8349   13.7971   21.5574 H   0  0  0  0  0  0  0  0  0  0  0  0
   11.1879   10.3081   25.3447 H   0  0  0  0  0  0  0  0  0  0  0  0
   11.0783    9.1504   23.9756 H   0  0  0  0  0  0  0  0  0  0  0  0
   11.7564   10.7759   23.7054 H   0  0  0  0  0  0  0  0  0  0  0  0
    5.7164   10.4169   22.7442 H   0  0  0  0  0  0  0  0  0  0  0  0
    6.2945    8.9742   23.5529 H   0  0  0  0  0  0  0  0  0  0  0  0
   10.0022   13.9914   24.0415 H   0  0  0  0  0  0  0  0  0  0  0  0
   11.2927   12.8068   24.0743 H   0  0  0  0  0  0  0  0  0  0  0  0
    4.7818   12.8075   23.7280 H   0  0  0  0  0  0  0  0  0  0  0  0
    5.0089   12.4358   22.0625 H   0  0  0  0  0  0  0  0  0  0  0  0
  1  2  1  0  0  0  0
  1  3  2  0  0  0  0
  1 14  1  0  0  0  0
  2  7  1  0  0  0  0
  2  9  2  0  0  0  0
  3  8  1  0  0  0  0
  3 10  1  0  0  0  0
  4  7  1  0  0  0  0
  5  8  1  0  0  0  0
  6 10  1  0  0  0  0
  9 10  1  0  0  0  0
 11 14  1  0  0  0  0
 12 14  2  0  0  0  0
 13 14  2  0  0  0  0
  4 15  1  0  0  0  0
  4 16  1  0  0  0  0
  4 17  1  0  0  0  0
  5 18  1  0  0  0  0
  5 19  1  0  0  0  0
  5 20  1  0  0  0  0
  6 21  1  0  0  0  0
  6 22  1  0  0  0  0
  6 23  1  0  0  0  0
  7 24  1  0  0  0  0
  7 25  1  0  0  0  0
  8 26  1  0  0  0  0
  8 27  1  0  0  0  0
 11 28  1  0  0  0  0
 11 29  1  0  0  0  0
M  END
> <Mol Weight>
217,29

> <Formula>
C8H15N3O2S

> <ID>
EN300-115660

> <name>
Sulfonamides

> <LogP>
0,56

> <ROCS_ShapeQuery>
x0310_0A_x0719_0A_x1080_0A_x0739_0A_x0929_0A_x0526_0A_x0911_0A

> <ROCS_TanimotoCombo>
0.302 

> <ROCS_ShapeTanimoto>
0.147 

> <ROCS_ColorTanimoto>
0.155 

> <ROCS_RefTversky>
0.144 

> <ROCS_RefColorTversky>
0.172 

> <ROCS_RefTverskyCombo>
0.316 

> <ROCS_FitTversky>
1.183 

> <ROCS_FitColorTversky>
0.612 

> <ROCS_FitTverskyCombo>
1.795 

> <ROCS_ColorScore>
-4.998

> <ROCS_Overlap>
1154.103

> <ROCS_Rank>
386                 

$$$$
untitled-dbase-1473_46
  -OEChem-02092407103D

 26 26  0     0  0  0  0  0  0999 V2000
    3.9543   11.5580   19.4144 C   0  0  0  0  0  0  0  0  0  0  0  0
    2.4160   12.3392   18.0981 C   0  0  0  0  0  0  0  0  0  0  0  0
    4.6493   11.1483   20.6478 C   0  0  0  0  0  0  0  0  0  0  0  0
   -1.5685   11.3600   21.5355 C   0  0  0  0  0  0  0  0  0  0  0  0
    1.8478   12.3628   20.5614 C   0  0  0  0  0  0  0  0  0  0  0  0
    0.5009   11.6592   20.4628 C   0  0  0  0  0  0  0  0  0  0  0  0
    4.4074   11.4734   18.1839 N   0  0  0  0  0  0  0  0  0  0  0  0
    3.4287   11.9704   17.3465 N   0  0  0  0  0  0  0  0  0  0  0  0
    2.7038   12.0975   19.4071 N   0  0  0  0  0  0  0  0  0  0  0  0
   -0.0013   11.6269   17.2296 N   0  0  0  0  0  0  0  0  0  0  0  0
    0.3236   13.8216   18.5423 O   0  0  0  0  0  0  0  0  0  0  0  0
    1.2152   13.6471   16.1923 O   0  0  0  0  0  0  0  0  0  0  0  0
   -0.2951   11.9885   21.5932 O   0  0  0  0  0  0  0  0  0  0  0  0
    0.9381   13.0318   17.4836 S   0  0  0  0  0  0  0  0  0  0  0  0
    5.2428   11.9786   21.0665 H   0  0  0  0  0  0  0  0  0  0  0  0
    3.9457   10.8138   21.4303 H   0  0  0  0  0  0  0  0  0  0  0  0
    5.3364   10.3009   20.4761 H   0  0  0  0  0  0  0  0  0  0  0  0
   -2.1516   11.6348   22.4179 H   0  0  0  0  0  0  0  0  0  0  0  0
   -1.4390   10.2755   21.4945 H   0  0  0  0  0  0  0  0  0  0  0  0
   -2.0908   11.6968   20.6370 H   0  0  0  0  0  0  0  0  0  0  0  0
    2.3944   12.0469   21.4576 H   0  0  0  0  0  0  0  0  0  0  0  0
    1.7101   13.4487   20.6169 H   0  0  0  0  0  0  0  0  0  0  0  0
   -0.0300   11.9995   19.5683 H   0  0  0  0  0  0  0  0  0  0  0  0
    0.6120   10.5711   20.4158 H   0  0  0  0  0  0  0  0  0  0  0  0
   -0.7885   11.4516   17.8661 H   0  0  0  0  0  0  0  0  0  0  0  0
   -0.1770   11.3326   16.2612 H   0  0  0  0  0  0  0  0  0  0  0  0
  1  3  1  0  0  0  0
  1  7  2  0  0  0  0
  1  9  1  0  0  0  0
  2  8  2  0  0  0  0
  2  9  1  0  0  0  0
  2 14  1  0  0  0  0
  4 13  1  0  0  0  0
  5  6  1  0  0  0  0
  5  9  1  0  0  0  0
  6 13  1  0  0  0  0
  7  8  1  0  0  0  0
 10 14  1  0  0  0  0
 11 14  2  0  0  0  0
 12 14  2  0  0  0  0
  3 15  1  0  0  0  0
  3 16  1  0  0  0  0
  3 17  1  0  0  0  0
  4 18  1  0  0  0  0
  4 19  1  0  0  0  0
  4 20  1  0  0  0  0
  5 21  1  0  0  0  0
  5 22  1  0  0  0  0
  6 23  1  0  0  0  0
  6 24  1  0  0  0  0
 10 25  1  0  0  0  0
 10 26  1  0  0  0  0
M  END
> <Mol Weight>
220,25

> <Formula>
C6H12N4O3S

> <ID>
EN300-2171602

> <name>
Sulfonamides

> <LogP>
-1,52

> <ROCS_ShapeQuery>
x0310_0A_x0719_0A_x1080_0A_x0739_0A_x0929_0A_x0526_0A_x0911_0A

> <ROCS_TanimotoCombo>
0.302 

> <ROCS_ShapeTanimoto>
0.168 

> <ROCS_ColorTanimoto>
0.134 

> <ROCS_RefTversky>
0.162 

> <ROCS_RefColorTversky>
0.152 

> <ROCS_RefTverskyCombo>
0.314 

> <ROCS_FitTversky>
1.322 

> <ROCS_FitColorTversky>
0.526 

> <ROCS_FitTverskyCombo>
1.848 

> <ROCS_ColorScore>
-4.441

> <ROCS_Overlap>
1293.298

> <ROCS_Rank>
387                 

$$$$
untitled-dbase-1441_265
  -OEChem-02092407103D

 23 23  0     0  0  0  0  0  0999 V2000
    9.7015   10.6163   24.0015 C   0  0  0  0  0  0  0  0  0  0  0  0
    9.4535   11.9612   23.6676 C   0  0  0  0  0  0  0  0  0  0  0  0
    8.0960   12.0205   23.4670 C   0  0  0  0  0  0  0  0  0  0  0  0
   10.3755   13.0497   23.5518 C   0  0  0  0  0  0  0  0  0  0  0  0
    9.5222   15.7095   21.5371 C   0  0  0  0  0  0  0  0  0  0  0  0
   10.6947   14.9935   22.1729 C   0  0  0  0  0  0  0  0  0  0  0  0
    8.5906    9.8747   24.0136 N   0  0  0  0  0  0  0  0  0  0  0  0
    7.6315   10.7567   23.6849 N   0  0  0  0  0  0  0  0  0  0  0  0
    5.5141   12.4949   23.0046 N   0  0  0  0  0  0  0  0  0  0  0  0
   11.1083   13.4778   24.4714 O   0  0  0  0  0  0  0  0  0  0  0  0
    6.9974   14.2905   24.1099 O   0  0  0  0  0  0  0  0  0  0  0  0
    7.3300   13.7460   21.6726 O   0  0  0  0  0  0  0  0  0  0  0  0
   10.3830   13.6012   22.2902 O   0  0  0  0  0  0  0  0  0  0  0  0
    7.0015   13.3293   23.0230 S   0  0  0  0  0  0  0  0  0  0  0  0
   10.6442   10.1426   24.2366 H   0  0  0  0  0  0  0  0  0  0  0  0
    9.3172   15.3125   20.5390 H   0  0  0  0  0  0  0  0  0  0  0  0
    8.6232   15.6000   22.1526 H   0  0  0  0  0  0  0  0  0  0  0  0
    9.7235   16.7828   21.4558 H   0  0  0  0  0  0  0  0  0  0  0  0
   10.8944   15.3953   23.1708 H   0  0  0  0  0  0  0  0  0  0  0  0
   11.5918   15.1032   21.5563 H   0  0  0  0  0  0  0  0  0  0  0  0
    6.6764   10.4259   23.6268 H   0  0  0  0  0  0  0  0  0  0  0  0
    5.3483   11.8281   22.2410 H   0  0  0  0  0  0  0  0  0  0  0  0
    5.1186   12.2007   23.9059 H   0  0  0  0  0  0  0  0  0  0  0  0
  1  2  1  0  0  0  0
  1  7  2  0  0  0  0
  2  3  2  0  0  0  0
  2  4  1  0  0  0  0
  3  8  1  0  0  0  0
  3 14  1  0  0  0  0
  4 10  2  0  0  0  0
  4 13  1  0  0  0  0
  5  6  1  0  0  0  0
  6 13  1  0  0  0  0
  7  8  1  0  0  0  0
  9 14  1  0  0  0  0
 11 14  2  0  0  0  0
 12 14  2  0  0  0  0
  1 15  1  0  0  0  0
  5 16  1  0  0  0  0
  5 17  1  0  0  0  0
  5 18  1  0  0  0  0
  6 19  1  0  0  0  0
  6 20  1  0  0  0  0
  8 21  1  0  0  0  0
  9 22  1  0  0  0  0
  9 23  1  0  0  0  0
M  END
> <Mol Weight>
219,22

> <Formula>
C6H9N3O4S

> <ID>
EN300-51207

> <name>
Sulfonamides

> <LogP>
-0,67

> <ROCS_ShapeQuery>
x0310_0A_x0719_0A_x1080_0A_x0739_0A_x0929_0A_x0526_0A_x0911_0A

> <ROCS_TanimotoCombo>
0.302 

> <ROCS_ShapeTanimoto>
0.145 

> <ROCS_ColorTanimoto>
0.156 

> <ROCS_RefTversky>
0.143 

> <ROCS_RefColorTversky>
0.173 

> <ROCS_RefTverskyCombo>
0.316 

> <ROCS_FitTversky>
1.158 

> <ROCS_FitColorTversky>
0.617 

> <ROCS_FitTverskyCombo>
1.775 

> <ROCS_ColorScore>
-5.042

> <ROCS_Overlap>
1142.325

> <ROCS_Rank>
388                 

$$$$
untitled-dbase-2650_61
  -OEChem-02092407103D

 24 24  0     0  0  0  0  0  0999 V2000
    7.4766   11.0661   23.8460 C   0  0  0  0  0  0  0  0  0  0  0  0
    8.4565   10.2517   24.4137 C   0  0  0  0  0  0  0  0  0  0  0  0
   10.1685   11.5097   23.2633 C   0  0  0  0  0  0  0  0  0  0  0  0
    7.8427   12.1022   22.9869 C   0  0  0  0  0  0  0  0  0  0  0  0
    9.1887   12.3241   22.6956 C   0  0  0  0  0  0  0  0  0  0  0  0
    9.8024   10.4735   24.1224 C   0  0  0  0  0  0  0  0  0  0  0  0
    9.6573   13.0199   20.4703 C   0  0  0  0  0  0  0  0  0  0  0  0
    6.7805   12.9636   22.3878 C   0  0  0  0  0  0  0  0  0  0  0  0
    5.7635   15.4043   22.1433 N   0  0  0  0  0  0  0  0  0  0  0  0
    6.8385   14.6733   24.3629 O   0  0  0  0  0  0  0  0  0  0  0  0
    8.3076   15.0836   22.3482 O   0  0  0  0  0  0  0  0  0  0  0  0
    9.5631   13.3319   21.8586 O   0  0  0  0  0  0  0  0  0  0  0  0
    7.0583   14.6192   22.9274 S   0  0  0  0  0  0  0  0  0  0  0  0
   11.1297    9.3705   24.8934 Br  0  0  0  0  0  0  0  0  0  0  0  0
    6.4307   10.8844   24.0785 H   0  0  0  0  0  0  0  0  0  0  0  0
    8.1549    9.4476   25.0799 H   0  0  0  0  0  0  0  0  0  0  0  0
   11.2153   11.6903   23.0302 H   0  0  0  0  0  0  0  0  0  0  0  0
    9.9645   13.9101   19.9160 H   0  0  0  0  0  0  0  0  0  0  0  0
    8.6877   12.6687   20.1082 H   0  0  0  0  0  0  0  0  0  0  0  0
   10.4023   12.2326   20.3326 H   0  0  0  0  0  0  0  0  0  0  0  0
    5.7763   12.6673   22.7094 H   0  0  0  0  0  0  0  0  0  0  0  0
    6.8092   12.9558   21.2928 H   0  0  0  0  0  0  0  0  0  0  0  0
    4.9865   15.7418   22.7247 H   0  0  0  0  0  0  0  0  0  0  0  0
    5.9870   16.0210   21.3525 H   0  0  0  0  0  0  0  0  0  0  0  0
  1  2  2  0  0  0  0
  1  4  1  0  0  0  0
  2  6  1  0  0  0  0
  3  5  1  0  0  0  0
  3  6  2  0  0  0  0
  4  5  2  0  0  0  0
  4  8  1  0  0  0  0
  5 12  1  0  0  0  0
  6 14  1  0  0  0  0
  7 12  1  0  0  0  0
  8 13  1  0  0  0  0
  9 13  1  0  0  0  0
 10 13  2  0  0  0  0
 11 13  2  0  0  0  0
  1 15  1  0  0  0  0
  2 16  1  0  0  0  0
  3 17  1  0  0  0  0
  7 18  1  0  0  0  0
  7 19  1  0  0  0  0
  7 20  1  0  0  0  0
  8 21  1  0  0  0  0
  8 22  1  0  0  0  0
  9 23  1  0  0  0  0
  9 24  1  0  0  0  0
M  END
> <Mol Weight>
280,14

> <Formula>
C8H10BrNO3S

> <ID>
EN300-1989145

> <name>
Sulfonamides

> <LogP>
0,95

> <ROCS_ShapeQuery>
x0310_0A_x0719_0A_x1080_0A_x0739_0A_x0929_0A_x0526_0A_x0911_0A

> <ROCS_TanimotoCombo>
0.302 

> <ROCS_ShapeTanimoto>
0.157 

> <ROCS_ColorTanimoto>
0.144 

> <ROCS_RefTversky>
0.152 

> <ROCS_RefColorTversky>
0.158 

> <ROCS_RefTverskyCombo>
0.310 

> <ROCS_FitTversky>
1.263 

> <ROCS_FitColorTversky>
0.634 

> <ROCS_FitTverskyCombo>
1.897 

> <ROCS_ColorScore>
-4.579

> <ROCS_Overlap>
1218.810

> <ROCS_Rank>
389                 

$$$$
untitled-dbase-1127_9
  -OEChem-02092407103D

 18 18  0     0  0  0  0  0  0999 V2000
    9.6349   10.0622   24.2390 C   0  0  0  0  0  0  0  0  0  0  0  0
   10.3171   11.2458   24.0621 C   0  0  0  0  0  0  0  0  0  0  0  0
    7.6849   11.0968   23.6418 C   0  0  0  0  0  0  0  0  0  0  0  0
    8.3669   12.2806   23.4656 C   0  0  0  0  0  0  0  0  0  0  0  0
    6.2158   11.0059   23.4106 C   0  0  0  0  0  0  0  0  0  0  0  0
    8.3066    9.9664   24.0320 N   0  0  0  0  0  0  0  0  0  0  0  0
    9.6953   12.3762   23.6722 N   0  0  0  0  0  0  0  0  0  0  0  0
    9.0100   14.8148   22.9472 N   0  0  0  0  0  0  0  0  0  0  0  0
    7.1534   13.6346   21.6035 O   0  0  0  0  0  0  0  0  0  0  0  0
    6.7374   14.2372   24.0142 O   0  0  0  0  0  0  0  0  0  0  0  0
    5.9345   10.1157   22.4223 F   0  0  0  0  0  0  0  0  0  0  0  0
    5.7146   12.2023   23.0037 F   0  0  0  0  0  0  0  0  0  0  0  0
    7.6483   13.7793   22.9692 S   0  0  0  0  0  0  0  0  0  0  0  0
   10.1353    9.1543   24.5525 H   0  0  0  0  0  0  0  0  0  0  0  0
   11.3848   11.3216   24.2277 H   0  0  0  0  0  0  0  0  0  0  0  0
    5.6674   10.6993   24.3040 H   0  0  0  0  0  0  0  0  0  0  0  0
    9.4178   15.0970   23.8469 H   0  0  0  0  0  0  0  0  0  0  0  0
    9.7025   14.6877   22.1991 H   0  0  0  0  0  0  0  0  0  0  0  0
  1  2  1  0  0  0  0
  1  6  2  0  0  0  0
  2  7  2  0  0  0  0
  3  4  2  0  0  0  0
  3  5  1  0  0  0  0
  3  6  1  0  0  0  0
  4  7  1  0  0  0  0
  4 13  1  0  0  0  0
  5 11  1  0  0  0  0
  5 12  1  0  0  0  0
  8 13  1  0  0  0  0
  9 13  2  0  0  0  0
 10 13  2  0  0  0  0
  1 14  1  0  0  0  0
  2 15  1  0  0  0  0
  5 16  1  0  0  0  0
  8 17  1  0  0  0  0
  8 18  1  0  0  0  0
M  END
> <Mol Weight>
209,17

> <Formula>
C5H5F2N3O2S

> <ID>
EN300-384040

> <name>
Sulfonamides

> <LogP>
-0,72

> <ROCS_ShapeQuery>
x0310_0A_x0719_0A_x1080_0A_x0739_0A_x0929_0A_x0526_0A_x0911_0A

> <ROCS_TanimotoCombo>
0.301 

> <ROCS_ShapeTanimoto>
0.143 

> <ROCS_ColorTanimoto>
0.158 

> <ROCS_RefTversky>
0.140 

> <ROCS_RefColorTversky>
0.171 

> <ROCS_RefTverskyCombo>
0.311 

> <ROCS_FitTversky>
1.173 

> <ROCS_FitColorTversky>
0.687 

> <ROCS_FitTverskyCombo>
1.860 

> <ROCS_ColorScore>
-4.962

> <ROCS_Overlap>
1121.419

> <ROCS_Rank>
390                 

$$$$
untitled-dbase-409_87
  -OEChem-02092407103D

 24 24  0     1  0  0  0  0  0999 V2000
    9.4212   10.2635   22.9212 C   0  0  0  0  0  0  0  0  0  0  0  0
    8.9808   11.4311   22.0434 C   0  0  0  0  0  0  0  0  0  0  0  0
    9.7780   10.7423   24.3213 C   0  0  0  0  0  0  0  0  0  0  0  0
    7.6397   11.8392   24.1481 C   0  0  0  0  0  0  0  0  0  0  0  0
    8.0571   12.4081   22.7895 C   0  0  1  0  0  0  0  0  0  0  0  0
    8.7336   13.7726   22.9551 C   0  0  0  0  0  0  0  0  0  0  0  0
    6.6156   14.9122   21.8297 N   0  0  0  0  0  0  0  0  0  0  0  0
    6.7250   14.6377   24.3850 O   0  0  0  0  0  0  0  0  0  0  0  0
    8.2322   16.3198   23.2517 O   0  0  0  0  0  0  0  0  0  0  0  0
    8.7600   11.5089   24.9643 O   0  0  0  0  0  0  0  0  0  0  0  0
    7.5474   15.0365   23.2534 S   0  0  0  0  0  0  0  0  0  0  0  0
    8.5947    9.5441   22.9865 H   0  0  0  0  0  0  0  0  0  0  0  0
   10.2733    9.7462   22.4663 H   0  0  0  0  0  0  0  0  0  0  0  0
    9.8761   11.9686   21.6832 H   0  0  0  0  0  0  0  0  0  0  0  0
    8.4742   11.0463   21.1417 H   0  0  0  0  0  0  0  0  0  0  0  0
    9.9905    9.8668   24.9707 H   0  0  0  0  0  0  0  0  0  0  0  0
   10.7207   11.3349   24.3103 H   0  0  0  0  0  0  0  0  0  0  0  0
    6.9874   12.5409   24.6973 H   0  0  0  0  0  0  0  0  0  0  0  0
    7.0551   10.9162   24.0057 H   0  0  0  0  0  0  0  0  0  0  0  0
    7.1547   12.5447   22.1797 H   0  0  0  0  0  0  0  0  0  0  0  0
    9.2785   14.0377   22.0501 H   0  0  0  0  0  0  0  0  0  0  0  0
    9.4186   13.7557   23.8015 H   0  0  0  0  0  0  0  0  0  0  0  0
    5.6678   14.5243   21.9120 H   0  0  0  0  0  0  0  0  0  0  0  0
    6.6945   15.6698   21.1402 H   0  0  0  0  0  0  0  0  0  0  0  0
  1  2  1  0  0  0  0
  1  3  1  0  0  0  0
  2  5  1  0  0  0  0
  3 10  1  0  0  0  0
  4  5  1  0  0  0  0
  4 10  1  0  0  0  0
  5  6  1  0  0  0  0
  6 11  1  0  0  0  0
  7 11  1  0  0  0  0
  8 11  2  0  0  0  0
  9 11  2  0  0  0  0
  1 12  1  0  0  0  0
  1 13  1  0  0  0  0
  2 14  1  0  0  0  0
  2 15  1  0  0  0  0
  3 16  1  0  0  0  0
  3 17  1  0  0  0  0
  4 18  1  0  0  0  0
  4 19  1  0  0  0  0
  5 20  1  0  0  0  0
  6 21  1  0  0  0  0
  6 22  1  0  0  0  0
  7 23  1  0  0  0  0
  7 24  1  0  0  0  0
M  END
> <Mol Weight>
179,23

> <Formula>
C6H13NO3S

> <ID>
EN300-127519

> <name>
Sulfonamides

> <LogP>
-0,92

> <ROCS_ShapeQuery>
x0310_0A_x0719_0A_x1080_0A_x0739_0A_x0929_0A_x0526_0A_x0911_0A

> <ROCS_TanimotoCombo>
0.301 

> <ROCS_ShapeTanimoto>
0.149 

> <ROCS_ColorTanimoto>
0.152 

> <ROCS_RefTversky>
0.143 

> <ROCS_RefColorTversky>
0.160 

> <ROCS_RefTverskyCombo>
0.304 

> <ROCS_FitTversky>
1.378 

> <ROCS_FitColorTversky>
0.742 

> <ROCS_FitTverskyCombo>
2.120 

> <ROCS_ColorScore>
-4.652

> <ROCS_Overlap>
1146.830

> <ROCS_Rank>
391                 

$$$$
untitled-dbase-2610_50
  -OEChem-02092407103D

 32 33  0     0  0  0  0  0  0999 V2000
    3.3112   11.8892   24.1572 C   0  0  0  0  0  0  0  0  0  0  0  0
    2.8521   11.2933   22.9826 C   0  0  0  0  0  0  0  0  0  0  0  0
    4.4243   12.7293   24.1241 C   0  0  0  0  0  0  0  0  0  0  0  0
    4.6190   12.3775   21.7418 C   0  0  0  0  0  0  0  0  0  0  0  0
    3.5059   11.5374   21.7750 C   0  0  0  0  0  0  0  0  0  0  0  0
    5.0782   12.9734   22.9164 C   0  0  0  0  0  0  0  0  0  0  0  0
    4.1270   10.5087   19.5105 C   0  0  0  0  0  0  0  0  0  0  0  0
    1.8745   11.6711   19.8016 C   0  0  0  0  0  0  0  0  0  0  0  0
    4.4866   11.6075   18.5117 C   0  0  0  0  0  0  0  0  0  0  0  0
    2.3563   12.7068   18.7868 C   0  0  0  0  0  0  0  0  0  0  0  0
    3.0024   10.8843   20.4889 C   0  0  0  0  0  0  0  0  0  0  0  0
    3.3027   12.1308   17.8348 N   0  0  0  0  0  0  0  0  0  0  0  0
    5.7311   15.5374   22.5928 N   0  0  0  0  0  0  0  0  0  0  0  0
    7.0761   14.0372   24.2010 O   0  0  0  0  0  0  0  0  0  0  0  0
    7.2806   13.6753   21.7160 O   0  0  0  0  0  0  0  0  0  0  0  0
    6.4719   14.0239   22.8760 S   0  0  0  0  0  0  0  0  0  0  0  0
    2.8017   11.6997   25.0975 H   0  0  0  0  0  0  0  0  0  0  0  0
    1.9834   10.6410   23.0178 H   0  0  0  0  0  0  0  0  0  0  0  0
    4.7736   13.1877   25.0454 H   0  0  0  0  0  0  0  0  0  0  0  0
    5.1276   12.5672   20.7996 H   0  0  0  0  0  0  0  0  0  0  0  0
    3.8477    9.5868   18.9544 H   0  0  0  0  0  0  0  0  0  0  0  0
    5.0407   10.2231   20.0798 H   0  0  0  0  0  0  0  0  0  0  0  0
    1.2479   12.1795   20.5693 H   0  0  0  0  0  0  0  0  0  0  0  0
    1.1777   10.9649   19.2989 H   0  0  0  0  0  0  0  0  0  0  0  0
    4.9868   12.4291   19.0386 H   0  0  0  0  0  0  0  0  0  0  0  0
    5.2045   11.2302   17.7715 H   0  0  0  0  0  0  0  0  0  0  0  0
    1.5022   13.1394   18.2491 H   0  0  0  0  0  0  0  0  0  0  0  0
    2.8429   13.5357   19.3150 H   0  0  0  0  0  0  0  0  0  0  0  0
    2.5364    9.8926   20.8418 H   0  0  0  0  0  0  0  0  0  0  0  0
    2.8448   11.3694   17.3332 H   0  0  0  0  0  0  0  0  0  0  0  0
    5.7099   16.2154   23.3643 H   0  0  0  0  0  0  0  0  0  0  0  0
    5.8488   15.9659   21.6666 H   0  0  0  0  0  0  0  0  0  0  0  0
  1  2  1  0  0  0  0
  1  3  2  0  0  0  0
  2  5  2  0  0  0  0
  3  6  1  0  0  0  0
  4  5  1  0  0  0  0
  4  6  2  0  0  0  0
  5 11  1  0  0  0  0
  6 16  1  0  0  0  0
  7  9  1  0  0  0  0
  7 11  1  0  0  0  0
  8 10  1  0  0  0  0
  8 11  1  0  0  0  0
  9 12  1  0  0  0  0
 10 12  1  0  0  0  0
 13 16  1  0  0  0  0
 14 16  2  0  0  0  0
 15 16  2  0  0  0  0
  1 17  1  0  0  0  0
  2 18  1  0  0  0  0
  3 19  1  0  0  0  0
  4 20  1  0  0  0  0
  7 21  1  0  0  0  0
  7 22  1  0  0  0  0
  8 23  1  0  0  0  0
  8 24  1  0  0  0  0
  9 25  1  0  0  0  0
  9 26  1  0  0  0  0
 10 27  1  0  0  0  0
 10 28  1  0  0  0  0
 11 29  1  0  0  0  0
 12 30  1  0  0  0  0
 13 31  1  0  0  0  0
 13 32  1  0  0  0  0
M  END
> <Mol Weight>
276,78

> <Formula>
C11H17ClN2O2S

> <ID>
EN300-1067003

> <name>
Sulfonamides

> <LogP>
0,22

> <ROCS_ShapeQuery>
x0310_0A_x0719_0A_x1080_0A_x0739_0A_x0929_0A_x0526_0A_x0911_0A

> <ROCS_TanimotoCombo>
0.301 

> <ROCS_ShapeTanimoto>
0.142 

> <ROCS_ColorTanimoto>
0.159 

> <ROCS_RefTversky>
0.141 

> <ROCS_RefColorTversky>
0.176 

> <ROCS_RefTverskyCombo>
0.317 

> <ROCS_FitTversky>
1.063 

> <ROCS_FitColorTversky>
0.627 

> <ROCS_FitTverskyCombo>
1.690 

> <ROCS_ColorScore>
-5.123

> <ROCS_Overlap>
1126.429

> <ROCS_Rank>
392                 

$$$$
untitled-dbase-1122_0
  -OEChem-02092407103D

 22 23  0     0  0  0  0  0  0999 V2000
    6.9402   11.6887   20.5836 C   0  0  0  0  0  0  0  0  0  0  0  0
    9.6214   10.5502   24.4548 C   0  0  0  0  0  0  0  0  0  0  0  0
    7.7016   10.7577   21.2843 C   0  0  0  0  0  0  0  0  0  0  0  0
    9.0575   10.1820   23.2418 C   0  0  0  0  0  0  0  0  0  0  0  0
    6.7602   12.9622   21.1089 C   0  0  0  0  0  0  0  0  0  0  0  0
    9.3911   11.8355   24.9016 C   0  0  0  0  0  0  0  0  0  0  0  0
    8.2863   11.0995   22.5155 C   0  0  0  0  0  0  0  0  0  0  0  0
    8.1076   12.3906   23.0550 C   0  0  0  0  0  0  0  0  0  0  0  0
    7.3416   13.3018   22.3331 C   0  0  0  0  0  0  0  0  0  0  0  0
    8.6537   12.7508   24.2319 N   0  0  0  0  0  0  0  0  0  0  0  0
    6.1054   15.5763   21.6981 N   0  0  0  0  0  0  0  0  0  0  0  0
    6.2857   14.8274   24.1582 O   0  0  0  0  0  0  0  0  0  0  0  0
    8.3532   15.6197   22.9560 O   0  0  0  0  0  0  0  0  0  0  0  0
    7.0760   14.9264   22.9427 S   0  0  0  0  0  0  0  0  0  0  0  0
    6.4912   11.4205   19.6324 H   0  0  0  0  0  0  0  0  0  0  0  0
   10.2206    9.8537   25.0291 H   0  0  0  0  0  0  0  0  0  0  0  0
    7.8373    9.7634   20.8646 H   0  0  0  0  0  0  0  0  0  0  0  0
    9.2234    9.1749   22.8658 H   0  0  0  0  0  0  0  0  0  0  0  0
    6.1654   13.6864   20.5584 H   0  0  0  0  0  0  0  0  0  0  0  0
    9.8066   12.1799   25.8428 H   0  0  0  0  0  0  0  0  0  0  0  0
    5.1118   15.7412   21.9003 H   0  0  0  0  0  0  0  0  0  0  0  0
    6.5255   16.2804   21.0792 H   0  0  0  0  0  0  0  0  0  0  0  0
  1  3  1  0  0  0  0
  1  5  2  0  0  0  0
  2  4  2  0  0  0  0
  2  6  1  0  0  0  0
  3  7  2  0  0  0  0
  4  7  1  0  0  0  0
  5  9  1  0  0  0  0
  6 10  2  0  0  0  0
  7  8  1  0  0  0  0
  8  9  2  0  0  0  0
  8 10  1  0  0  0  0
  9 14  1  0  0  0  0
 11 14  1  0  0  0  0
 12 14  2  0  0  0  0
 13 14  2  0  0  0  0
  1 15  1  0  0  0  0
  2 16  1  0  0  0  0
  3 17  1  0  0  0  0
  4 18  1  0  0  0  0
  5 19  1  0  0  0  0
  6 20  1  0  0  0  0
 11 21  1  0  0  0  0
 11 22  1  0  0  0  0
M  END
> <Mol Weight>
208,24

> <Formula>
C9H8N2O2S

> <ID>
EN300-77791

> <name>
Sulfonamides

> <LogP>
0,74

> <ROCS_ShapeQuery>
x0310_0A_x0719_0A_x1080_0A_x0739_0A_x0929_0A_x0526_0A_x0911_0A

> <ROCS_TanimotoCombo>
0.301 

> <ROCS_ShapeTanimoto>
0.152 

> <ROCS_ColorTanimoto>
0.149 

> <ROCS_RefTversky>
0.148 

> <ROCS_RefColorTversky>
0.162 

> <ROCS_RefTverskyCombo>
0.311 

> <ROCS_FitTversky>
1.178 

> <ROCS_FitColorTversky>
0.653 

> <ROCS_FitTverskyCombo>
1.831 

> <ROCS_ColorScore>
-4.716

> <ROCS_Overlap>
1187.643

> <ROCS_Rank>
393                 

$$$$
untitled-dbase-724_65
  -OEChem-02092407103D

 26 26  0     1  0  0  0  0  0999 V2000
    8.7070   10.6842   25.1461 C   0  0  0  0  0  0  0  0  0  0  0  0
    8.6381   12.1708   24.8053 C   0  0  0  0  0  0  0  0  0  0  0  0
    8.2798    9.8154   23.9659 C   0  0  0  0  0  0  0  0  0  0  0  0
    9.0288   11.6298   22.3665 C   0  0  0  0  0  0  0  0  0  0  0  0
    9.4621   12.5023   23.5538 C   0  0  1  0  0  0  0  0  0  0  0  0
    9.0745   10.1449   22.7089 C   0  0  1  0  0  0  0  0  0  0  0  0
    9.3408   13.9848   23.2055 C   0  0  0  0  0  0  0  0  0  0  0  0
    7.8586   16.0809   22.5269 N   0  0  0  0  0  0  0  0  0  0  0  0
    7.2508   13.7377   21.6569 O   0  0  0  0  0  0  0  0  0  0  0  0
    6.9038   14.2832   24.0998 O   0  0  0  0  0  0  0  0  0  0  0  0
   10.3747    9.7907   22.9162 F   0  0  0  0  0  0  0  0  0  0  0  0
    7.6709   14.4204   22.8711 S   0  0  0  0  0  0  0  0  0  0  0  0
    9.7314   10.4247   25.4401 H   0  0  0  0  0  0  0  0  0  0  0  0
    8.0652   10.4738   26.0091 H   0  0  0  0  0  0  0  0  0  0  0  0
    7.5902   12.4577   24.6502 H   0  0  0  0  0  0  0  0  0  0  0  0
    9.0043   12.7539   25.6588 H   0  0  0  0  0  0  0  0  0  0  0  0
    8.4285    8.7622   24.2288 H   0  0  0  0  0  0  0  0  0  0  0  0
    7.2103    9.9610   23.7736 H   0  0  0  0  0  0  0  0  0  0  0  0
    8.0111   11.8992   22.0567 H   0  0  0  0  0  0  0  0  0  0  0  0
    9.6934   11.8234   21.5162 H   0  0  0  0  0  0  0  0  0  0  0  0
   10.5181   12.2930   23.7703 H   0  0  0  0  0  0  0  0  0  0  0  0
    8.7098    9.5511   21.8647 H   0  0  0  0  0  0  0  0  0  0  0  0
    9.9275   14.2118   22.3175 H   0  0  0  0  0  0  0  0  0  0  0  0
    9.6834   14.5961   24.0378 H   0  0  0  0  0  0  0  0  0  0  0  0
    8.0843   16.7077   23.3091 H   0  0  0  0  0  0  0  0  0  0  0  0
    8.3204   16.3360   21.6453 H   0  0  0  0  0  0  0  0  0  0  0  0
  1  2  1  0  0  0  0
  1  3  1  0  0  0  0
  2  5  1  0  0  0  0
  3  6  1  0  0  0  0
  4  5  1  0  0  0  0
  4  6  1  0  0  0  0
  5  7  1  0  0  0  0
  6 11  1  0  0  0  0
  7 12  1  0  0  0  0
  8 12  1  0  0  0  0
  9 12  2  0  0  0  0
 10 12  2  0  0  0  0
  1 13  1  0  0  0  0
  1 14  1  0  0  0  0
  2 15  1  0  0  0  0
  2 16  1  0  0  0  0
  3 17  1  0  0  0  0
  3 18  1  0  0  0  0
  4 19  1  0  0  0  0
  4 20  1  0  0  0  0
  5 21  1  0  0  0  0
  6 22  1  0  0  0  0
  7 23  1  0  0  0  0
  7 24  1  0  0  0  0
  8 25  1  0  0  0  0
  8 26  1  0  0  0  0
M  END
> <Mol Weight>
195,25

> <Formula>
C7H14FNO2S

> <ID>
EN300-1699982

> <name>
Sulfonamides

> <LogP>
0,24

> <ROCS_ShapeQuery>
x0310_0A_x0719_0A_x1080_0A_x0739_0A_x0929_0A_x0526_0A_x0911_0A

> <ROCS_TanimotoCombo>
0.301 

> <ROCS_ShapeTanimoto>
0.162 

> <ROCS_ColorTanimoto>
0.139 

> <ROCS_RefTversky>
0.154 

> <ROCS_RefColorTversky>
0.145 

> <ROCS_RefTverskyCombo>
0.299 

> <ROCS_FitTversky>
1.417 

> <ROCS_FitColorTversky>
0.788 

> <ROCS_FitTverskyCombo>
2.204 

> <ROCS_ColorScore>
-4.188

> <ROCS_Overlap>
1235.586

> <ROCS_Rank>
394                 

$$$$
untitled-dbase-2373_32
  -OEChem-02092407103D

 21 21  0     0  0  0  0  0  0999 V2000
    8.6076   11.3780   25.0179 C   0  0  0  0  0  0  0  0  0  0  0  0
    9.2395   10.3076   24.3848 C   0  0  0  0  0  0  0  0  0  0  0  0
    9.1632   11.5034   22.2869 C   0  0  0  0  0  0  0  0  0  0  0  0
    8.2535   12.5110   24.2855 C   0  0  0  0  0  0  0  0  0  0  0  0
    9.5173   10.3704   23.0194 C   0  0  0  0  0  0  0  0  0  0  0  0
    8.5313   12.5738   22.9200 C   0  0  0  0  0  0  0  0  0  0  0  0
    6.3906   13.2938   25.5619 C   0  0  0  0  0  0  0  0  0  0  0  0
    7.3785   14.9630   23.1805 N   0  0  0  0  0  0  0  0  0  0  0  0
    9.3206   14.6208   21.5201 O   0  0  0  0  0  0  0  0  0  0  0  0
    7.0744   13.5960   21.0181 O   0  0  0  0  0  0  0  0  0  0  0  0
    7.6373   13.5447   24.9243 O   0  0  0  0  0  0  0  0  0  0  0  0
   10.1239    9.3424   22.4116 F   0  0  0  0  0  0  0  0  0  0  0  0
    5.7095   12.3147   24.9298 F   0  0  0  0  0  0  0  0  0  0  0  0
    5.6430   14.4198   25.5127 F   0  0  0  0  0  0  0  0  0  0  0  0
    6.5652   12.9673   26.8601 F   0  0  0  0  0  0  0  0  0  0  0  0
    8.0960   13.9830   21.9795 S   0  0  0  0  0  0  0  0  0  0  0  0
    8.3950   11.3223   26.0820 H   0  0  0  0  0  0  0  0  0  0  0  0
    9.5153    9.4254   24.9552 H   0  0  0  0  0  0  0  0  0  0  0  0
    9.3853   11.5392   21.2238 H   0  0  0  0  0  0  0  0  0  0  0  0
    7.8936   15.7946   23.4942 H   0  0  0  0  0  0  0  0  0  0  0  0
    6.3599   15.0921   23.1512 H   0  0  0  0  0  0  0  0  0  0  0  0
  1  2  2  0  0  0  0
  1  4  1  0  0  0  0
  2  5  1  0  0  0  0
  3  5  2  0  0  0  0
  3  6  1  0  0  0  0
  4  6  2  0  0  0  0
  4 11  1  0  0  0  0
  5 12  1  0  0  0  0
  6 16  1  0  0  0  0
  7 11  1  0  0  0  0
  7 13  1  0  0  0  0
  7 14  1  0  0  0  0
  7 15  1  0  0  0  0
  8 16  1  0  0  0  0
  9 16  2  0  0  0  0
 10 16  2  0  0  0  0
  1 17  1  0  0  0  0
  2 18  1  0  0  0  0
  3 19  1  0  0  0  0
  8 20  1  0  0  0  0
  8 21  1  0  0  0  0
M  END
> <Mol Weight>
259,17

> <Formula>
C7H5F4NO3S

> <ID>
EN300-7506818

> <name>
Sulfonamides

> <LogP>
2,15

> <ROCS_ShapeQuery>
x0310_0A_x0719_0A_x1080_0A_x0739_0A_x0929_0A_x0526_0A_x0911_0A

> <ROCS_TanimotoCombo>
0.301 

> <ROCS_ShapeTanimoto>
0.172 

> <ROCS_ColorTanimoto>
0.129 

> <ROCS_RefTversky>
0.167 

> <ROCS_RefColorTversky>
0.139 

> <ROCS_RefTverskyCombo>
0.306 

> <ROCS_FitTversky>
1.228 

> <ROCS_FitColorTversky>
0.643 

> <ROCS_FitTverskyCombo>
1.871 

> <ROCS_ColorScore>
-4.030

> <ROCS_Overlap>
1335.124

> <ROCS_Rank>
395                 

$$$$
untitled-dbase-2571_61
  -OEChem-02092407103D

 29 29  0     0  0  0  0  0  0999 V2000
    6.5542   11.3251   20.0512 C   0  0  0  0  0  0  0  0  0  0  0  0
    7.6564   11.3998   20.9028 C   0  0  0  0  0  0  0  0  0  0  0  0
    5.7145   13.4021   20.9558 C   0  0  0  0  0  0  0  0  0  0  0  0
    5.5833   12.3263   20.0776 C   0  0  0  0  0  0  0  0  0  0  0  0
    7.7876   12.4756   21.7809 C   0  0  0  0  0  0  0  0  0  0  0  0
    6.8167   13.4768   21.8074 C   0  0  0  0  0  0  0  0  0  0  0  0
    4.4345   12.2476   19.1893 C   0  0  0  0  0  0  0  0  0  0  0  0
    8.9523   12.5191   22.6552 C   0  0  0  0  0  0  0  0  0  0  0  0
    2.1324   12.8296   18.9572 C   0  0  0  0  0  0  0  0  0  0  0  0
   11.2419   11.8841   22.8464 C   0  0  0  0  0  0  0  0  0  0  0  0
    5.5274   15.7053   22.4976 N   0  0  0  0  0  0  0  0  0  0  0  0
    4.4469   11.7088   18.0746 O   0  0  0  0  0  0  0  0  0  0  0  0
    8.9642   13.0418   23.7759 O   0  0  0  0  0  0  0  0  0  0  0  0
    6.8323   14.3492   24.2593 O   0  0  0  0  0  0  0  0  0  0  0  0
    8.1026   15.6327   22.5024 O   0  0  0  0  0  0  0  0  0  0  0  0
    3.3320   12.8433   19.7385 O   0  0  0  0  0  0  0  0  0  0  0  0
   10.0321   11.9076   22.0812 O   0  0  0  0  0  0  0  0  0  0  0  0
    6.9463   14.8424   22.8956 S   0  0  0  0  0  0  0  0  0  0  0  0
    6.4618   10.4822   19.3711 H   0  0  0  0  0  0  0  0  0  0  0  0
    8.4062   10.6133   20.8726 H   0  0  0  0  0  0  0  0  0  0  0  0
    4.9566   14.1820   20.9753 H   0  0  0  0  0  0  0  0  0  0  0  0
    1.3333   13.3338   19.5061 H   0  0  0  0  0  0  0  0  0  0  0  0
    1.8470   11.7963   18.7442 H   0  0  0  0  0  0  0  0  0  0  0  0
    2.3143   13.3564   18.0174 H   0  0  0  0  0  0  0  0  0  0  0  0
   12.0225   11.3707   22.2796 H   0  0  0  0  0  0  0  0  0  0  0  0
   11.0651   11.3680   23.7934 H   0  0  0  0  0  0  0  0  0  0  0  0
   11.5559   12.9112   23.0466 H   0  0  0  0  0  0  0  0  0  0  0  0
    4.7605   15.7118   23.1812 H   0  0  0  0  0  0  0  0  0  0  0  0
    5.6295   16.5867   21.9799 H   0  0  0  0  0  0  0  0  0  0  0  0
  1  2  2  0  0  0  0
  1  4  1  0  0  0  0
  2  5  1  0  0  0  0
  3  4  2  0  0  0  0
  3  6  1  0  0  0  0
  4  7  1  0  0  0  0
  5  6  2  0  0  0  0
  5  8  1  0  0  0  0
  6 18  1  0  0  0  0
  7 12  2  0  0  0  0
  7 16  1  0  0  0  0
  8 13  2  0  0  0  0
  8 17  1  0  0  0  0
  9 16  1  0  0  0  0
 10 17  1  0  0  0  0
 11 18  1  0  0  0  0
 14 18  2  0  0  0  0
 15 18  2  0  0  0  0
  1 19  1  0  0  0  0
  2 20  1  0  0  0  0
  3 21  1  0  0  0  0
  9 22  1  0  0  0  0
  9 23  1  0  0  0  0
  9 24  1  0  0  0  0
 10 25  1  0  0  0  0
 10 26  1  0  0  0  0
 10 27  1  0  0  0  0
 11 28  1  0  0  0  0
 11 29  1  0  0  0  0
M  END
> <Mol Weight>
273,26

> <Formula>
C10H11NO6S

> <ID>
EN300-1617535

> <name>
Sulfonamides

> <LogP>
0,59

> <ROCS_ShapeQuery>
x0310_0A_x0719_0A_x1080_0A_x0739_0A_x0929_0A_x0526_0A_x0911_0A

> <ROCS_TanimotoCombo>
0.301 

> <ROCS_ShapeTanimoto>
0.186 

> <ROCS_ColorTanimoto>
0.115 

> <ROCS_RefTversky>
0.180 

> <ROCS_RefColorTversky>
0.128 

> <ROCS_RefTverskyCombo>
0.308 

> <ROCS_FitTversky>
1.242 

> <ROCS_FitColorTversky>
0.517 

> <ROCS_FitTverskyCombo>
1.758 

> <ROCS_ColorScore>
-3.730

> <ROCS_Overlap>
1440.875

> <ROCS_Rank>
396                 

$$$$
untitled-dbase-193_42
  -OEChem-02092407103D

 23 23  0     0  0  0  0  0  0999 V2000
    8.6806   10.1296   23.6894 C   0  0  0  0  0  0  0  0  0  0  0  0
    9.7275   11.1411   23.1828 C   0  0  0  0  0  0  0  0  0  0  0  0
    7.7672   11.3344   23.9883 C   0  0  0  0  0  0  0  0  0  0  0  0
    9.0551   12.1946   24.1047 C   0  0  0  0  0  0  0  0  0  0  0  0
    9.0194   13.6409   23.6710 C   0  0  0  0  0  0  0  0  0  0  0  0
    7.8792   13.9077   22.6993 C   0  0  0  0  0  0  0  0  0  0  0  0
    6.2414   15.7052   21.6326 N   0  0  0  0  0  0  0  0  0  0  0  0
    8.0101   16.4343   23.3521 O   0  0  0  0  0  0  0  0  0  0  0  0
    8.7441   15.7304   21.0388 O   0  0  0  0  0  0  0  0  0  0  0  0
    7.8529   15.5933   22.1779 S   0  0  0  0  0  0  0  0  0  0  0  0
    8.3052    9.4200   22.9482 H   0  0  0  0  0  0  0  0  0  0  0  0
    8.9944    9.5809   24.5848 H   0  0  0  0  0  0  0  0  0  0  0  0
   10.7679   10.9014   23.4175 H   0  0  0  0  0  0  0  0  0  0  0  0
    9.6453   11.3553   22.1107 H   0  0  0  0  0  0  0  0  0  0  0  0
    7.1131   11.6058   23.1512 H   0  0  0  0  0  0  0  0  0  0  0  0
    7.1652   11.2561   24.8973 H   0  0  0  0  0  0  0  0  0  0  0  0
    9.4777   12.1238   25.1513 H   0  0  0  0  0  0  0  0  0  0  0  0
    9.9755   13.9089   23.2019 H   0  0  0  0  0  0  0  0  0  0  0  0
    8.9134   14.2878   24.5521 H   0  0  0  0  0  0  0  0  0  0  0  0
    7.9764   13.2973   21.7965 H   0  0  0  0  0  0  0  0  0  0  0  0
    6.9086   13.7025   23.1607 H   0  0  0  0  0  0  0  0  0  0  0  0
    5.9954   15.2150   20.7638 H   0  0  0  0  0  0  0  0  0  0  0  0
    5.4957   15.6945   22.3393 H   0  0  0  0  0  0  0  0  0  0  0  0
  1  2  1  0  0  0  0
  1  3  1  0  0  0  0
  2  4  1  0  0  0  0
  3  4  1  0  0  0  0
  4  5  1  0  0  0  0
  5  6  1  0  0  0  0
  6 10  1  0  0  0  0
  7 10  1  0  0  0  0
  8 10  2  0  0  0  0
  9 10  2  0  0  0  0
  1 11  1  0  0  0  0
  1 12  1  0  0  0  0
  2 13  1  0  0  0  0
  2 14  1  0  0  0  0
  3 15  1  0  0  0  0
  3 16  1  0  0  0  0
  4 17  1  0  0  0  0
  5 18  1  0  0  0  0
  5 19  1  0  0  0  0
  6 20  1  0  0  0  0
  6 21  1  0  0  0  0
  7 22  1  0  0  0  0
  7 23  1  0  0  0  0
M  END
> <Mol Weight>
163,24

> <Formula>
C6H13NO2S

> <ID>
EN300-215959

> <name>
Sulfonamides

> <LogP>
0,21

> <ROCS_ShapeQuery>
x0310_0A_x0719_0A_x1080_0A_x0739_0A_x0929_0A_x0526_0A_x0911_0A

> <ROCS_TanimotoCombo>
0.301 

> <ROCS_ShapeTanimoto>
0.133 

> <ROCS_ColorTanimoto>
0.168 

> <ROCS_RefTversky>
0.129 

> <ROCS_RefColorTversky>
0.170 

> <ROCS_RefTverskyCombo>
0.299 

> <ROCS_FitTversky>
1.315 

> <ROCS_FitColorTversky>
0.925 

> <ROCS_FitTverskyCombo>
2.241 

> <ROCS_ColorScore>
-4.920

> <ROCS_Overlap>
1031.354

> <ROCS_Rank>
397                 

$$$$
untitled-dbase-1744_197
  -OEChem-02092407103D

 25 25  0     0  0  0  0  0  0999 V2000
    8.8570   11.6098   22.7071 C   0  0  0  0  0  0  0  0  0  0  0  0
    8.6492   12.8656   22.1477 C   0  0  0  0  0  0  0  0  0  0  0  0
    8.1572   12.4856   24.8046 C   0  0  0  0  0  0  0  0  0  0  0  0
    8.6087   11.4078   24.0601 C   0  0  0  0  0  0  0  0  0  0  0  0
    8.1958   13.8782   22.9777 C   0  0  0  0  0  0  0  0  0  0  0  0
    8.8170   10.1077   24.6731 C   0  0  0  0  0  0  0  0  0  0  0  0
   11.7716    9.0429   25.0618 C   0  0  0  0  0  0  0  0  0  0  0  0
   10.5214    8.9870   25.9135 C   0  0  0  0  0  0  0  0  0  0  0  0
    7.9436   13.7200   24.2964 N   0  0  0  0  0  0  0  0  0  0  0  0
    6.2583   15.3926   21.9493 N   0  0  0  0  0  0  0  0  0  0  0  0
    8.2325    9.0692   24.3328 O   0  0  0  0  0  0  0  0  0  0  0  0
    8.0045   16.4099   23.5497 O   0  0  0  0  0  0  0  0  0  0  0  0
    8.7068   15.7366   21.2257 O   0  0  0  0  0  0  0  0  0  0  0  0
    9.7440   10.1660   25.6787 O   0  0  0  0  0  0  0  0  0  0  0  0
    7.9003   15.4950   22.4177 S   0  0  0  0  0  0  0  0  0  0  0  0
    9.2128   10.7964   22.0805 H   0  0  0  0  0  0  0  0  0  0  0  0
    8.8381   13.0380   21.0937 H   0  0  0  0  0  0  0  0  0  0  0  0
    7.9466   12.3897   25.8655 H   0  0  0  0  0  0  0  0  0  0  0  0
   11.5181    9.0877   23.9990 H   0  0  0  0  0  0  0  0  0  0  0  0
   12.3748    9.9199   25.3187 H   0  0  0  0  0  0  0  0  0  0  0  0
   12.3986    8.1626   25.2386 H   0  0  0  0  0  0  0  0  0  0  0  0
   10.7820    8.9423   26.9752 H   0  0  0  0  0  0  0  0  0  0  0  0
    9.9195    8.1106   25.6550 H   0  0  0  0  0  0  0  0  0  0  0  0
    5.5586   15.8675   22.5326 H   0  0  0  0  0  0  0  0  0  0  0  0
    6.0401   15.4059   20.9456 H   0  0  0  0  0  0  0  0  0  0  0  0
  1  2  2  0  0  0  0
  1  4  1  0  0  0  0
  2  5  1  0  0  0  0
  3  4  2  0  0  0  0
  3  9  1  0  0  0  0
  4  6  1  0  0  0  0
  5  9  2  0  0  0  0
  5 15  1  0  0  0  0
  6 11  2  0  0  0  0
  6 14  1  0  0  0  0
  7  8  1  0  0  0  0
  8 14  1  0  0  0  0
 10 15  1  0  0  0  0
 12 15  2  0  0  0  0
 13 15  2  0  0  0  0
  1 16  1  0  0  0  0
  2 17  1  0  0  0  0
  3 18  1  0  0  0  0
  7 19  1  0  0  0  0
  7 20  1  0  0  0  0
  7 21  1  0  0  0  0
  8 22  1  0  0  0  0
  8 23  1  0  0  0  0
 10 24  1  0  0  0  0
 10 25  1  0  0  0  0
M  END
> <Mol Weight>
230,24

> <Formula>
C8H10N2O4S

> <ID>
EN300-120471

> <name>
Sulfonamides

> <LogP>
0,32

> <ROCS_ShapeQuery>
x0310_0A_x0719_0A_x1080_0A_x0739_0A_x0929_0A_x0526_0A_x0911_0A

> <ROCS_TanimotoCombo>
0.301 

> <ROCS_ShapeTanimoto>
0.155 

> <ROCS_ColorTanimoto>
0.145 

> <ROCS_RefTversky>
0.152 

> <ROCS_RefColorTversky>
0.158 

> <ROCS_RefTverskyCombo>
0.310 

> <ROCS_FitTversky>
1.186 

> <ROCS_FitColorTversky>
0.638 

> <ROCS_FitTverskyCombo>
1.823 

> <ROCS_ColorScore>
-4.602

> <ROCS_Overlap>
1214.580

> <ROCS_Rank>
398                 

$$$$
untitled-dbase-977_97
  -OEChem-02092407103D

 22 23  0     0  0  0  0  0  0999 V2000
    8.8876   10.6009   23.2079 C   0  0  0  0  0  0  0  0  0  0  0  0
    8.2201   12.4850   23.7408 C   0  0  0  0  0  0  0  0  0  0  0  0
   10.3940    8.5943   22.4487 C   0  0  0  0  0  0  0  0  0  0  0  0
    9.7257    9.1168   21.2156 C   0  0  0  0  0  0  0  0  0  0  0  0
    9.0211    9.2209   22.5500 C   0  0  0  0  0  0  0  0  0  0  0  0
    7.3799   13.7236   23.7924 C   0  0  0  0  0  0  0  0  0  0  0  0
    7.9114   11.4288   22.9338 N   0  0  0  0  0  0  0  0  0  0  0  0
    9.3219   12.3457   24.4840 N   0  0  0  0  0  0  0  0  0  0  0  0
    5.9857   15.4155   22.2941 N   0  0  0  0  0  0  0  0  0  0  0  0
    8.5452   15.3003   22.0653 O   0  0  0  0  0  0  0  0  0  0  0  0
    7.1355   13.3841   21.2131 O   0  0  0  0  0  0  0  0  0  0  0  0
    9.7747   11.0702   24.1240 O   0  0  0  0  0  0  0  0  0  0  0  0
    7.3798   14.4450   22.1699 S   0  0  0  0  0  0  0  0  0  0  0  0
   10.4669    7.5200   22.5677 H   0  0  0  0  0  0  0  0  0  0  0  0
   11.2460    9.1436   22.8306 H   0  0  0  0  0  0  0  0  0  0  0  0
   10.1267   10.0183   20.7682 H   0  0  0  0  0  0  0  0  0  0  0  0
    9.3467    8.3956   20.5016 H   0  0  0  0  0  0  0  0  0  0  0  0
    8.1853    8.5498   22.7191 H   0  0  0  0  0  0  0  0  0  0  0  0
    7.7801   14.4614   24.4935 H   0  0  0  0  0  0  0  0  0  0  0  0
    6.3443   13.5051   24.0681 H   0  0  0  0  0  0  0  0  0  0  0  0
    5.0729   14.9443   22.3121 H   0  0  0  0  0  0  0  0  0  0  0  0
    6.0331   16.2494   22.8923 H   0  0  0  0  0  0  0  0  0  0  0  0
  1  5  1  0  0  0  0
  1  7  2  0  0  0  0
  1 12  1  0  0  0  0
  2  6  1  0  0  0  0
  2  7  1  0  0  0  0
  2  8  2  0  0  0  0
  3  4  1  0  0  0  0
  3  5  1  0  0  0  0
  4  5  1  0  0  0  0
  6 13  1  0  0  0  0
  8 12  1  0  0  0  0
  9 13  1  0  0  0  0
 10 13  2  0  0  0  0
 11 13  2  0  0  0  0
  3 14  1  0  0  0  0
  3 15  1  0  0  0  0
  4 16  1  0  0  0  0
  4 17  1  0  0  0  0
  5 18  1  0  0  0  0
  6 19  1  0  0  0  0
  6 20  1  0  0  0  0
  9 21  1  0  0  0  0
  9 22  1  0  0  0  0
M  END
> <Mol Weight>
203,22

> <Formula>
C6H9N3O3S

> <ID>
EN300-286964

> <name>
Sulfonamides

> <LogP>
-0,07

> <ROCS_ShapeQuery>
x0310_0A_x0719_0A_x1080_0A_x0739_0A_x0929_0A_x0526_0A_x0911_0A

> <ROCS_TanimotoCombo>
0.301 

> <ROCS_ShapeTanimoto>
0.156 

> <ROCS_ColorTanimoto>
0.144 

> <ROCS_RefTversky>
0.151 

> <ROCS_RefColorTversky>
0.157 

> <ROCS_RefTverskyCombo>
0.309 

> <ROCS_FitTversky>
1.281 

> <ROCS_FitColorTversky>
0.633 

> <ROCS_FitTverskyCombo>
1.914 

> <ROCS_ColorScore>
-4.573

> <ROCS_Overlap>
1210.557

> <ROCS_Rank>
399                 

$$$$
untitled-dbase-640_53
  -OEChem-02092407103D

 21 21  0     0  0  0  0  0  0999 V2000
    2.3589   12.4897   18.6184 C   0  0  0  0  0  0  0  0  0  0  0  0
    4.9631   12.9745   20.9238 C   0  0  0  0  0  0  0  0  0  0  0  0
    3.9302   11.9173   20.5292 C   0  0  0  0  0  0  0  0  0  0  0  0
    5.3908   12.8729   22.3814 C   0  0  0  0  0  0  0  0  0  0  0  0
    2.3966   12.3617   17.3121 N   0  0  0  0  0  0  0  0  0  0  0  0
    3.6081   11.7712   17.0317 N   0  0  0  0  0  0  0  0  0  0  0  0
    4.2967   11.5440   18.1437 N   0  0  0  0  0  0  0  0  0  0  0  0
    3.5136   11.9938   19.1341 N   0  0  0  0  0  0  0  0  0  0  0  0
    5.7135   15.5081   22.4311 N   0  0  0  0  0  0  0  0  0  0  0  0
    6.8496   14.0375   24.2097 O   0  0  0  0  0  0  0  0  0  0  0  0
    7.6924   13.9793   21.8281 O   0  0  0  0  0  0  0  0  0  0  0  0
    6.6010   14.0948   22.7797 S   0  0  0  0  0  0  0  0  0  0  0  0
    1.5605   12.9129   19.2100 H   0  0  0  0  0  0  0  0  0  0  0  0
    4.5743   13.9806   20.7242 H   0  0  0  0  0  0  0  0  0  0  0  0
    5.8445   12.8521   20.2819 H   0  0  0  0  0  0  0  0  0  0  0  0
    4.3461   10.9137   20.6806 H   0  0  0  0  0  0  0  0  0  0  0  0
    3.0379   11.9898   21.1618 H   0  0  0  0  0  0  0  0  0  0  0  0
    5.8404   11.8994   22.5981 H   0  0  0  0  0  0  0  0  0  0  0  0
    4.5508   13.0355   23.0623 H   0  0  0  0  0  0  0  0  0  0  0  0
    5.5203   15.7205   21.4446 H   0  0  0  0  0  0  0  0  0  0  0  0
    4.9466   15.7602   23.0667 H   0  0  0  0  0  0  0  0  0  0  0  0
  1  5  2  0  0  0  0
  1  8  1  0  0  0  0
  2  3  1  0  0  0  0
  2  4  1  0  0  0  0
  3  8  1  0  0  0  0
  4 12  1  0  0  0  0
  5  6  1  0  0  0  0
  6  7  2  0  0  0  0
  7  8  1  0  0  0  0
  9 12  1  0  0  0  0
 10 12  2  0  0  0  0
 11 12  2  0  0  0  0
  1 13  1  0  0  0  0
  2 14  1  0  0  0  0
  2 15  1  0  0  0  0
  3 16  1  0  0  0  0
  3 17  1  0  0  0  0
  4 18  1  0  0  0  0
  4 19  1  0  0  0  0
  9 20  1  0  0  0  0
  9 21  1  0  0  0  0
M  END
> <Mol Weight>
191,21

> <Formula>
C4H9N5O2S

> <ID>
EN300-1698504

> <name>
Sulfonamides

> <LogP>
-2,14

> <ROCS_ShapeQuery>
x0310_0A_x0719_0A_x1080_0A_x0739_0A_x0929_0A_x0526_0A_x0911_0A

> <ROCS_TanimotoCombo>
0.300 

> <ROCS_ShapeTanimoto>
0.141 

> <ROCS_ColorTanimoto>
0.159 

> <ROCS_RefTversky>
0.138 

> <ROCS_RefColorTversky>
0.179 

> <ROCS_RefTverskyCombo>
0.316 

> <ROCS_FitTversky>
1.236 

> <ROCS_FitColorTversky>
0.592 

> <ROCS_FitTverskyCombo>
1.828 

> <ROCS_ColorScore>
-5.206

> <ROCS_Overlap>
1102.127

> <ROCS_Rank>
400                 

$$$$
untitled-dbase-217_44
  -OEChem-02092407103D

 21 21  0     1  0  0  0  0  0999 V2000
    9.1438   10.5169   23.0246 C   0  0  0  0  0  0  0  0  0  0  0  0
    8.5467   11.8010   22.5063 C   0  0  0  0  0  0  0  0  0  0  0  0
    8.7661   10.5652   24.4898 C   0  0  0  0  0  0  0  0  0  0  0  0
    8.8059   12.7453   23.6674 C   0  0  1  0  0  0  0  0  0  0  0  0
    7.8300   13.9039   23.7342 C   0  0  0  0  0  0  0  0  0  0  0  0
    6.0180   15.3572   22.4475 N   0  0  0  0  0  0  0  0  0  0  0  0
    8.5025   15.5321   21.8045 O   0  0  0  0  0  0  0  0  0  0  0  0
    7.2189   13.4304   21.2382 O   0  0  0  0  0  0  0  0  0  0  0  0
    8.7024   11.9504   24.8606 O   0  0  0  0  0  0  0  0  0  0  0  0
    7.4847   14.5467   22.1305 S   0  0  0  0  0  0  0  0  0  0  0  0
    8.7734    9.6223   22.5173 H   0  0  0  0  0  0  0  0  0  0  0  0
   10.2348   10.5442   22.9181 H   0  0  0  0  0  0  0  0  0  0  0  0
    8.9976   12.1434   21.5708 H   0  0  0  0  0  0  0  0  0  0  0  0
    7.4710   11.6656   22.3407 H   0  0  0  0  0  0  0  0  0  0  0  0
    7.7751   10.1303   24.6578 H   0  0  0  0  0  0  0  0  0  0  0  0
    9.4876   10.0457   25.1267 H   0  0  0  0  0  0  0  0  0  0  0  0
    9.8322   13.1289   23.6223 H   0  0  0  0  0  0  0  0  0  0  0  0
    8.2399   14.7217   24.3308 H   0  0  0  0  0  0  0  0  0  0  0  0
    6.8800   13.5857   24.1684 H   0  0  0  0  0  0  0  0  0  0  0  0
    5.1842   14.7839   22.6256 H   0  0  0  0  0  0  0  0  0  0  0  0
    6.0586   16.2153   23.0111 H   0  0  0  0  0  0  0  0  0  0  0  0
  1  2  1  0  0  0  0
  1  3  1  0  0  0  0
  2  4  1  0  0  0  0
  3  9  1  0  0  0  0
  4  5  1  0  0  0  0
  4  9  1  0  0  0  0
  5 10  1  0  0  0  0
  6 10  1  0  0  0  0
  7 10  2  0  0  0  0
  8 10  2  0  0  0  0
  1 11  1  0  0  0  0
  1 12  1  0  0  0  0
  2 13  1  0  0  0  0
  2 14  1  0  0  0  0
  3 15  1  0  0  0  0
  3 16  1  0  0  0  0
  4 17  1  0  0  0  0
  5 18  1  0  0  0  0
  5 19  1  0  0  0  0
  6 20  1  0  0  0  0
  6 21  1  0  0  0  0
M  END
> <Mol Weight>
165,21

> <Formula>
C5H11NO3S

> <ID>
EN300-130131

> <name>
Sulfonamides

> <LogP>
-0,96

> <ROCS_ShapeQuery>
x0310_0A_x0719_0A_x1080_0A_x0739_0A_x0929_0A_x0526_0A_x0911_0A

> <ROCS_TanimotoCombo>
0.300 

> <ROCS_ShapeTanimoto>
0.140 

> <ROCS_ColorTanimoto>
0.160 

> <ROCS_RefTversky>
0.135 

> <ROCS_RefColorTversky>
0.168 

> <ROCS_RefTverskyCombo>
0.303 

> <ROCS_FitTversky>
1.356 

> <ROCS_FitColorTversky>
0.778 

> <ROCS_FitTverskyCombo>
2.134 

> <ROCS_ColorScore>
-4.875

> <ROCS_Overlap>
1080.896

> <ROCS_Rank>
401                 

$$$$
untitled-dbase-2628_680
  -OEChem-02092407103D

 40 40  0     1  0  0  0  0  0999 V2000
    8.6459   10.7285   23.6423 C   0  0  0  0  0  0  0  0  0  0  0  0
    7.3326   13.2611   25.8615 C   0  0  0  0  0  0  0  0  0  0  0  0
    7.1898   14.4755   24.9475 C   0  0  0  0  0  0  0  0  0  0  0  0
    7.0687   11.9613   25.1082 C   0  0  0  0  0  0  0  0  0  0  0  0
    7.7834   13.0105   22.9766 C   0  0  0  0  0  0  0  0  0  0  0  0
    8.0599   14.3287   23.6989 C   0  0  1  0  0  0  0  0  0  0  0  0
    9.1584    9.6267   21.0506 C   0  0  0  0  0  0  0  0  0  0  0  0
   11.5083   10.4555   21.3669 C   0  0  0  0  0  0  0  0  0  0  0  0
   10.5715    8.7257   22.9284 C   0  0  0  0  0  0  0  0  0  0  0  0
    5.7000   15.0396   20.9713 C   0  0  0  0  0  0  0  0  0  0  0  0
   10.2509    9.9481   22.0694 C   0  0  0  0  0  0  0  0  0  0  0  0
    7.8861   11.8742   23.8985 N   0  0  0  0  0  0  0  0  0  0  0  0
    6.1372   15.5450   22.2850 N   0  0  0  0  0  0  0  0  0  0  0  0
    8.3398    9.5968   24.0136 O   0  0  0  0  0  0  0  0  0  0  0  0
    8.0547   16.9193   23.3476 O   0  0  0  0  0  0  0  0  0  0  0  0
    8.5360   15.4180   21.3801 O   0  0  0  0  0  0  0  0  0  0  0  0
    9.7818   10.9965   22.9252 O   0  0  0  0  0  0  0  0  0  0  0  0
    7.8079   15.6989   22.6034 S   0  0  0  0  0  0  0  0  0  0  0  0
    8.3418   13.2398   26.2871 H   0  0  0  0  0  0  0  0  0  0  0  0
    6.6369   13.3429   26.7040 H   0  0  0  0  0  0  0  0  0  0  0  0
    6.1430   14.6128   24.6788 H   0  0  0  0  0  0  0  0  0  0  0  0
    7.5101   15.3631   25.4955 H   0  0  0  0  0  0  0  0  0  0  0  0
    7.3241   11.0979   25.7355 H   0  0  0  0  0  0  0  0  0  0  0  0
    6.0035   11.8824   24.8646 H   0  0  0  0  0  0  0  0  0  0  0  0
    6.8077   13.0397   22.4861 H   0  0  0  0  0  0  0  0  0  0  0  0
    8.5348   12.8490   22.1957 H   0  0  0  0  0  0  0  0  0  0  0  0
    9.1072   14.3818   23.9789 H   0  0  0  0  0  0  0  0  0  0  0  0
    8.2541    9.2621   21.5509 H   0  0  0  0  0  0  0  0  0  0  0  0
    8.8945   10.5044   20.4517 H   0  0  0  0  0  0  0  0  0  0  0  0
    9.4793    8.8283   20.3719 H   0  0  0  0  0  0  0  0  0  0  0  0
   12.2948   10.6874   22.0941 H   0  0  0  0  0  0  0  0  0  0  0  0
   11.3043   11.3865   20.8256 H   0  0  0  0  0  0  0  0  0  0  0  0
   11.8989    9.7199   20.6564 H   0  0  0  0  0  0  0  0  0  0  0  0
   11.3551    8.9560   23.6593 H   0  0  0  0  0  0  0  0  0  0  0  0
    9.6884    8.3699   23.4691 H   0  0  0  0  0  0  0  0  0  0  0  0
   10.9557    7.9056   22.3111 H   0  0  0  0  0  0  0  0  0  0  0  0
    6.4081   14.2758   20.6174 H   0  0  0  0  0  0  0  0  0  0  0  0
    4.6980   14.5953   21.0645 H   0  0  0  0  0  0  0  0  0  0  0  0
    5.6671   15.8705   20.2513 H   0  0  0  0  0  0  0  0  0  0  0  0
    5.5204   16.2662   22.6810 H   0  0  0  0  0  0  0  0  0  0  0  0
  1 12  1  0  0  0  0
  1 14  2  0  0  0  0
  1 17  1  0  0  0  0
  2  3  1  0  0  0  0
  2  4  1  0  0  0  0
  3  6  1  0  0  0  0
  4 12  1  0  0  0  0
  5  6  1  0  0  0  0
  5 12  1  0  0  0  0
  6 18  1  1  0  0  0
  7 11  1  0  0  0  0
  8 11  1  0  0  0  0
  9 11  1  0  0  0  0
 10 13  1  0  0  0  0
 11 17  1  0  0  0  0
 13 18  1  0  0  0  0
 15 18  2  0  0  0  0
 16 18  2  0  0  0  0
  2 19  1  0  0  0  0
  2 20  1  0  0  0  0
  3 21  1  0  0  0  0
  3 22  1  0  0  0  0
  4 23  1  0  0  0  0
  4 24  1  0  0  0  0
  5 25  1  0  0  0  0
  5 26  1  0  0  0  0
  6 27  1  0  0  0  0
  7 28  1  0  0  0  0
  7 29  1  0  0  0  0
  7 30  1  0  0  0  0
  8 31  1  0  0  0  0
  8 32  1  0  0  0  0
  8 33  1  0  0  0  0
  9 34  1  0  0  0  0
  9 35  1  0  0  0  0
  9 36  1  0  0  0  0
 10 37  1  0  0  0  0
 10 38  1  0  0  0  0
 10 39  1  0  0  0  0
 13 40  1  0  0  0  0
M  END
> <Mol Weight>
278,37

> <Formula>
C11H22N2O4S

> <ID>
EN300-27752587

> <name>
Sulfonamides

> <LogP>
0,38

> <ROCS_ShapeQuery>
x0310_0A_x0719_0A_x1080_0A_x0739_0A_x0929_0A_x0526_0A_x0911_0A

> <ROCS_TanimotoCombo>
0.300 

> <ROCS_ShapeTanimoto>
0.192 

> <ROCS_ColorTanimoto>
0.109 

> <ROCS_RefTversky>
0.183 

> <ROCS_RefColorTversky>
0.123 

> <ROCS_RefTverskyCombo>
0.306 

> <ROCS_FitTversky>
1.302 

> <ROCS_FitColorTversky>
0.494 

> <ROCS_FitTverskyCombo>
1.795 

> <ROCS_ColorScore>
-3.563

> <ROCS_Overlap>
1470.202

> <ROCS_Rank>
402                 

$$$$
untitled-dbase-1006_20
  -OEChem-02092407103D

 22 22  0     0  0  0  0  0  0999 V2000
    9.1453    9.8821   23.7854 C   0  0  0  0  0  0  0  0  0  0  0  0
    9.6433   10.6511   22.7337 C   0  0  0  0  0  0  0  0  0  0  0  0
    8.0941   11.8450   24.7230 C   0  0  0  0  0  0  0  0  0  0  0  0
    8.3706   10.4790   24.7800 C   0  0  0  0  0  0  0  0  0  0  0  0
    8.5922   12.6141   23.6713 C   0  0  0  0  0  0  0  0  0  0  0  0
    9.3668   12.0171   22.6766 C   0  0  0  0  0  0  0  0  0  0  0  0
    6.3131   15.5816   22.7359 C   0  0  0  0  0  0  0  0  0  0  0  0
    7.8666    9.7007   25.8429 N   0  0  0  0  0  0  0  0  0  0  0  0
    8.3073   14.0121   23.6147 N   0  0  0  0  0  0  0  0  0  0  0  0
    8.6727   15.6322   21.6418 O   0  0  0  0  0  0  0  0  0  0  0  0
    7.2159   13.6112   21.2695 O   0  0  0  0  0  0  0  0  0  0  0  0
    9.8505   12.7472   21.6617 F   0  0  0  0  0  0  0  0  0  0  0  0
    7.7126   14.6624   22.1351 S   0  0  0  0  0  0  0  0  0  0  0  0
    9.3661    8.8183   23.8198 H   0  0  0  0  0  0  0  0  0  0  0  0
   10.2446   10.1860   21.9583 H   0  0  0  0  0  0  0  0  0  0  0  0
    7.4903   12.3113   25.4985 H   0  0  0  0  0  0  0  0  0  0  0  0
    5.8251   16.0608   21.8857 H   0  0  0  0  0  0  0  0  0  0  0  0
    5.6301   14.8870   23.2272 H   0  0  0  0  0  0  0  0  0  0  0  0
    6.6713   16.3309   23.4434 H   0  0  0  0  0  0  0  0  0  0  0  0
    7.3526   10.1485   26.5744 H   0  0  0  0  0  0  0  0  0  0  0  0
    8.1110    8.7326   25.8969 H   0  0  0  0  0  0  0  0  0  0  0  0
    9.0014   14.6063   24.0976 H   0  0  0  0  0  0  0  0  0  0  0  0
  1  2  2  0  0  0  0
  1  4  1  0  0  0  0
  2  6  1  0  0  0  0
  3  4  2  0  0  0  0
  3  5  1  0  0  0  0
  4  8  1  0  0  0  0
  5  6  2  0  0  0  0
  5  9  1  0  0  0  0
  6 12  1  0  0  0  0
  7 13  1  0  0  0  0
  9 13  1  0  0  0  0
 10 13  2  0  0  0  0
 11 13  2  0  0  0  0
  1 14  1  0  0  0  0
  2 15  1  0  0  0  0
  3 16  1  0  0  0  0
  7 17  1  0  0  0  0
  7 18  1  0  0  0  0
  7 19  1  0  0  0  0
  8 20  1  0  0  0  0
  8 21  1  0  0  0  0
  9 22  1  0  0  0  0
M  END
> <Mol Weight>
204,22

> <Formula>
C7H9FN2O2S

> <ID>
EN300-28826

> <name>
Sulfonamides

> <LogP>
-0,34

> <ROCS_ShapeQuery>
x0310_0A_x0719_0A_x1080_0A_x0739_0A_x0929_0A_x0526_0A_x0911_0A

> <ROCS_TanimotoCombo>
0.300 

> <ROCS_ShapeTanimoto>
0.171 

> <ROCS_ColorTanimoto>
0.129 

> <ROCS_RefTversky>
0.163 

> <ROCS_RefColorTversky>
0.143 

> <ROCS_RefTverskyCombo>
0.306 

> <ROCS_FitTversky>
1.394 

> <ROCS_FitColorTversky>
0.575 

> <ROCS_FitTverskyCombo>
1.969 

> <ROCS_ColorScore>
-4.147

> <ROCS_Overlap>
1307.146

> <ROCS_Rank>
403                 

$$$$
untitled-dbase-2083_1
  -OEChem-02092407103D

 24 25  0     0  0  0  0  0  0999 V2000
    2.4800   12.9445   20.4356 C   0  0  0  0  0  0  0  0  0  0  0  0
    3.5092   13.4454   21.2397 C   0  0  0  0  0  0  0  0  0  0  0  0
    5.1933   12.8372   19.5899 C   0  0  0  0  0  0  0  0  0  0  0  0
    4.1721   12.3290   18.7694 C   0  0  0  0  0  0  0  0  0  0  0  0
    2.8528   12.3948   19.2086 C   0  0  0  0  0  0  0  0  0  0  0  0
    4.8424   13.3938   20.8263 C   0  0  0  0  0  0  0  0  0  0  0  0
    3.0029   11.4506   17.2135 C   0  0  0  0  0  0  0  0  0  0  0  0
    0.6884   11.6649   18.1896 C   0  0  0  0  0  0  0  0  0  0  0  0
    4.2456   11.7396   17.5281 N   0  0  0  0  0  0  0  0  0  0  0  0
    2.1269   11.8259   18.1938 N   0  0  0  0  0  0  0  0  0  0  0  0
    6.1586   15.6556   21.3329 N   0  0  0  0  0  0  0  0  0  0  0  0
    5.6067   14.0079   23.2371 O   0  0  0  0  0  0  0  0  0  0  0  0
    7.3501   13.3800   21.5301 O   0  0  0  0  0  0  0  0  0  0  0  0
    2.4900   10.6865   15.7486 S   0  0  0  0  0  0  0  0  0  0  0  0
    6.0939   14.0340   21.8658 S   0  0  0  0  0  0  0  0  0  0  0  0
    1.4457   12.9858   20.7571 H   0  0  0  0  0  0  0  0  0  0  0  0
    3.2532   13.8814   22.2029 H   0  0  0  0  0  0  0  0  0  0  0  0
    6.2293   12.7975   19.2675 H   0  0  0  0  0  0  0  0  0  0  0  0
    0.2502   12.5597   17.7398 H   0  0  0  0  0  0  0  0  0  0  0  0
    0.4231   10.7765   17.6099 H   0  0  0  0  0  0  0  0  0  0  0  0
    0.3358   11.5405   19.2173 H   0  0  0  0  0  0  0  0  0  0  0  0
    5.7892   16.3828   21.9574 H   0  0  0  0  0  0  0  0  0  0  0  0
    6.9791   15.9519   20.7903 H   0  0  0  0  0  0  0  0  0  0  0  0
    3.6879   10.5285   15.1482 H   0  0  0  0  0  0  0  0  0  0  0  0
  1  2  2  0  0  0  0
  1  5  1  0  0  0  0
  2  6  1  0  0  0  0
  3  4  1  0  0  0  0
  3  6  2  0  0  0  0
  4  5  2  0  0  0  0
  4  9  1  0  0  0  0
  5 10  1  0  0  0  0
  6 15  1  0  0  0  0
  7  9  2  0  0  0  0
  7 10  1  0  0  0  0
  7 14  1  0  0  0  0
  8 10  1  0  0  0  0
 11 15  1  0  0  0  0
 12 15  2  0  0  0  0
 13 15  2  0  0  0  0
  1 16  1  0  0  0  0
  2 17  1  0  0  0  0
  3 18  1  0  0  0  0
  8 19  1  0  0  0  0
  8 20  1  0  0  0  0
  8 21  1  0  0  0  0
 11 22  1  0  0  0  0
 11 23  1  0  0  0  0
 14 24  1  0  0  0  0
M  END
> <Mol Weight>
243,30

> <Formula>
C8H9N3O2S2

> <ID>
EN300-11008

> <name>
Sulfonamides

> <LogP>
0,87

> <ROCS_ShapeQuery>
x0310_0A_x0719_0A_x1080_0A_x0739_0A_x0929_0A_x0526_0A_x0911_0A

> <ROCS_TanimotoCombo>
0.300 

> <ROCS_ShapeTanimoto>
0.146 

> <ROCS_ColorTanimoto>
0.154 

> <ROCS_RefTversky>
0.144 

> <ROCS_RefColorTversky>
0.175 

> <ROCS_RefTverskyCombo>
0.319 

> <ROCS_FitTversky>
1.106 

> <ROCS_FitColorTversky>
0.560 

> <ROCS_FitTverskyCombo>
1.665 

> <ROCS_ColorScore>
-5.113

> <ROCS_Overlap>
1154.432

> <ROCS_Rank>
404                 

$$$$
untitled-dbase-2139_2
  -OEChem-02092407103D

 30 31  0     0  0  0  0  0  0999 V2000
    9.6289   10.2351   24.4111 C   0  0  0  0  0  0  0  0  0  0  0  0
    8.3380   10.5103   24.8620 C   0  0  0  0  0  0  0  0  0  0  0  0
   10.2095   11.0353   23.4271 C   0  0  0  0  0  0  0  0  0  0  0  0
    7.6276   11.5858   24.3289 C   0  0  0  0  0  0  0  0  0  0  0  0
    9.4990   12.1108   22.8939 C   0  0  0  0  0  0  0  0  0  0  0  0
    5.0721   13.5106   21.9329 C   0  0  0  0  0  0  0  0  0  0  0  0
    6.7735   12.3942   20.6305 C   0  0  0  0  0  0  0  0  0  0  0  0
    4.1105   13.1430   20.9918 C   0  0  0  0  0  0  0  0  0  0  0  0
    5.8118   12.0266   19.6894 C   0  0  0  0  0  0  0  0  0  0  0  0
    8.2080   12.3861   23.3448 C   0  0  0  0  0  0  0  0  0  0  0  0
    6.4037   13.1362   21.7523 C   0  0  0  0  0  0  0  0  0  0  0  0
    4.4803   12.4010   19.8701 C   0  0  0  0  0  0  0  0  0  0  0  0
    7.4488   13.5361   22.7742 C   0  0  0  0  0  0  0  0  0  0  0  0
    2.7695   10.4324   19.3200 N   0  0  0  0  0  0  0  0  0  0  0  0
    2.1677   12.8794   18.7763 O   0  0  0  0  0  0  0  0  0  0  0  0
    3.9399   11.7143   17.4163 O   0  0  0  0  0  0  0  0  0  0  0  0
    3.2765   11.9390   18.6931 S   0  0  0  0  0  0  0  0  0  0  0  0
   10.1825    9.3984   24.8273 H   0  0  0  0  0  0  0  0  0  0  0  0
    7.8863    9.8880   25.6290 H   0  0  0  0  0  0  0  0  0  0  0  0
   11.2149   10.8220   23.0766 H   0  0  0  0  0  0  0  0  0  0  0  0
    6.6222   11.7927   24.6862 H   0  0  0  0  0  0  0  0  0  0  0  0
    9.9593   12.7288   22.1275 H   0  0  0  0  0  0  0  0  0  0  0  0
    4.7748   14.0890   22.8036 H   0  0  0  0  0  0  0  0  0  0  0  0
    7.8086   12.0984   20.4813 H   0  0  0  0  0  0  0  0  0  0  0  0
    3.0760   13.4403   21.1419 H   0  0  0  0  0  0  0  0  0  0  0  0
    6.1110   11.4489   18.8189 H   0  0  0  0  0  0  0  0  0  0  0  0
    6.9593   14.1134   23.5782 H   0  0  0  0  0  0  0  0  0  0  0  0
    8.1387   14.2644   22.3126 H   0  0  0  0  0  0  0  0  0  0  0  0
    1.8354   10.3765   19.7439 H   0  0  0  0  0  0  0  0  0  0  0  0
    3.0480    9.5821   18.8154 H   0  0  0  0  0  0  0  0  0  0  0  0
  1  2  1  0  0  0  0
  1  3  2  0  0  0  0
  2  4  2  0  0  0  0
  3  5  1  0  0  0  0
  4 10  1  0  0  0  0
  5 10  2  0  0  0  0
  6  8  2  0  0  0  0
  6 11  1  0  0  0  0
  7  9  1  0  0  0  0
  7 11  2  0  0  0  0
  8 12  1  0  0  0  0
  9 12  2  0  0  0  0
 10 13  1  0  0  0  0
 11 13  1  0  0  0  0
 12 17  1  0  0  0  0
 14 17  1  0  0  0  0
 15 17  2  0  0  0  0
 16 17  2  0  0  0  0
  1 18  1  0  0  0  0
  2 19  1  0  0  0  0
  3 20  1  0  0  0  0
  4 21  1  0  0  0  0
  5 22  1  0  0  0  0
  6 23  1  0  0  0  0
  7 24  1  0  0  0  0
  8 25  1  0  0  0  0
  9 26  1  0  0  0  0
 13 27  1  0  0  0  0
 13 28  1  0  0  0  0
 14 29  1  0  0  0  0
 14 30  1  0  0  0  0
M  END
> <Mol Weight>
247,31

> <Formula>
C13H13NO2S

> <ID>
EN300-276866

> <name>
Sulfonamides

> <LogP>
2,67

> <ROCS_ShapeQuery>
x0310_0A_x0719_0A_x1080_0A_x0739_0A_x0929_0A_x0526_0A_x0911_0A

> <ROCS_TanimotoCombo>
0.300 

> <ROCS_ShapeTanimoto>
0.210 

> <ROCS_ColorTanimoto>
0.090 

> <ROCS_RefTversky>
0.198 

> <ROCS_RefColorTversky>
0.100 

> <ROCS_RefTverskyCombo>
0.298 

> <ROCS_FitTversky>
1.424 

> <ROCS_FitColorTversky>
0.464 

> <ROCS_FitTverskyCombo>
1.888 

> <ROCS_ColorScore>
-2.906

> <ROCS_Overlap>
1587.095

> <ROCS_Rank>
405                 

$$$$
untitled-dbase-2766_92
  -OEChem-02092407103D

 31 32  0     0  0  0  0  0  0999 V2000
    6.4210   14.5230   24.0889 C   0  0  0  0  0  0  0  0  0  0  0  0
    8.9012   15.0213   24.0476 C   0  0  0  0  0  0  0  0  0  0  0  0
    6.7152   13.0151   24.0465 C   0  0  0  0  0  0  0  0  0  0  0  0
    8.9212   13.6918   24.8137 C   0  0  0  0  0  0  0  0  0  0  0  0
    9.7684   10.8820   24.4268 C   0  0  0  0  0  0  0  0  0  0  0  0
    7.9110   10.2808   23.6986 C   0  0  0  0  0  0  0  0  0  0  0  0
    8.3364   11.3610   24.7027 C   0  0  0  0  0  0  0  0  0  0  0  0
    7.5273   15.3610   23.4540 C   0  0  0  0  0  0  0  0  0  0  0  0
    9.2967   10.2423   23.1770 N   0  0  0  0  0  0  0  0  0  0  0  0
    8.1470   12.6853   24.0922 N   0  0  0  0  0  0  0  0  0  0  0  0
    5.9569   15.7388   21.3435 N   0  0  0  0  0  0  0  0  0  0  0  0
    8.4950   16.1043   21.1408 O   0  0  0  0  0  0  0  0  0  0  0  0
    7.5951   13.7562   21.3900 O   0  0  0  0  0  0  0  0  0  0  0  0
    7.5266   15.1736   21.6865 S   0  0  0  0  0  0  0  0  0  0  0  0
    5.4576   14.7170   23.6015 H   0  0  0  0  0  0  0  0  0  0  0  0
    6.3071   14.8250   25.1390 H   0  0  0  0  0  0  0  0  0  0  0  0
    9.1917   15.8272   24.7377 H   0  0  0  0  0  0  0  0  0  0  0  0
    9.6655   14.9988   23.2588 H   0  0  0  0  0  0  0  0  0  0  0  0
    6.2036   12.5483   24.9123 H   0  0  0  0  0  0  0  0  0  0  0  0
    6.2365   12.5677   23.1503 H   0  0  0  0  0  0  0  0  0  0  0  0
    9.9541   13.3672   24.9711 H   0  0  0  0  0  0  0  0  0  0  0  0
    8.4807   13.8652   25.8001 H   0  0  0  0  0  0  0  0  0  0  0  0
   10.5405   11.6466   24.2920 H   0  0  0  0  0  0  0  0  0  0  0  0
   10.1380   10.1555   25.1610 H   0  0  0  0  0  0  0  0  0  0  0  0
    7.6100    9.3370   24.1699 H   0  0  0  0  0  0  0  0  0  0  0  0
    7.1467   10.5478   22.9615 H   0  0  0  0  0  0  0  0  0  0  0  0
    7.9675   11.2602   25.7267 H   0  0  0  0  0  0  0  0  0  0  0  0
    7.3171   16.4222   23.6111 H   0  0  0  0  0  0  0  0  0  0  0  0
    9.6497    9.2917   23.0619 H   0  0  0  0  0  0  0  0  0  0  0  0
    5.8661   16.6503   20.8781 H   0  0  0  0  0  0  0  0  0  0  0  0
    5.2532   15.0510   21.0480 H   0  0  0  0  0  0  0  0  0  0  0  0
  1  3  1  0  0  0  0
  1  8  1  0  0  0  0
  2  4  1  0  0  0  0
  2  8  1  0  0  0  0
  3 10  1  0  0  0  0
  4 10  1  0  0  0  0
  5  7  1  0  0  0  0
  5  9  1  0  0  0  0
  6  7  1  0  0  0  0
  6  9  1  0  0  0  0
  7 10  1  0  0  0  0
  8 14  1  0  0  0  0
 11 14  1  0  0  0  0
 12 14  2  0  0  0  0
 13 14  2  0  0  0  0
  1 15  1  0  0  0  0
  1 16  1  0  0  0  0
  2 17  1  0  0  0  0
  2 18  1  0  0  0  0
  3 19  1  0  0  0  0
  3 20  1  0  0  0  0
  4 21  1  0  0  0  0
  4 22  1  0  0  0  0
  5 23  1  0  0  0  0
  5 24  1  0  0  0  0
  6 25  1  0  0  0  0
  6 26  1  0  0  0  0
  7 27  1  0  0  0  0
  8 28  1  0  0  0  0
  9 29  1  0  0  0  0
 11 30  1  0  0  0  0
 11 31  1  0  0  0  0
M  END
> <Mol Weight>
292,22

> <Formula>
C8H19Cl2N3O2S

> <ID>
EN300-393081

> <name>
Sulfonamides

> <LogP>
-1,82

> <ROCS_ShapeQuery>
x0310_0A_x0719_0A_x1080_0A_x0739_0A_x0929_0A_x0526_0A_x0911_0A

> <ROCS_TanimotoCombo>
0.300 

> <ROCS_ShapeTanimoto>
0.177 

> <ROCS_ColorTanimoto>
0.123 

> <ROCS_RefTversky>
0.169 

> <ROCS_RefColorTversky>
0.144 

> <ROCS_RefTverskyCombo>
0.313 

> <ROCS_FitTversky>
1.387 

> <ROCS_FitColorTversky>
0.461 

> <ROCS_FitTverskyCombo>
1.848 

> <ROCS_ColorScore>
-4.199

> <ROCS_Overlap>
1350.292

> <ROCS_Rank>
406                 

$$$$
untitled-dbase-1693_24
  -OEChem-02092407103D

 28 28  0     1  0  0  0  0  0999 V2000
    7.9816   10.5516   24.5427 C   0  0  0  0  0  0  0  0  0  0  0  0
    7.5364   11.3433   23.3163 C   0  0  0  0  0  0  0  0  0  0  0  0
    9.4006   10.0156   24.3706 C   0  0  0  0  0  0  0  0  0  0  0  0
    9.9711   11.8106   22.8526 C   0  0  0  0  0  0  0  0  0  0  0  0
    8.5678   12.4236   22.9685 C   0  0  1  0  0  0  0  0  0  0  0  0
    8.1823   13.1436   21.6780 C   0  0  0  0  0  0  0  0  0  0  0  0
    6.8480   13.8506   21.8222 C   0  0  0  0  0  0  0  0  0  0  0  0
   10.3453   11.0917   24.0720 N   0  0  0  0  0  0  0  0  0  0  0  0
    5.5778   16.0330   22.6438 N   0  0  0  0  0  0  0  0  0  0  0  0
    6.6122   14.4213   24.3611 O   0  0  0  0  0  0  0  0  0  0  0  0
    8.1278   15.8443   22.9245 O   0  0  0  0  0  0  0  0  0  0  0  0
    6.9104   15.0703   23.0959 S   0  0  0  0  0  0  0  0  0  0  0  0
    7.9349   11.1958   25.4297 H   0  0  0  0  0  0  0  0  0  0  0  0
    7.2901    9.7194   24.7156 H   0  0  0  0  0  0  0  0  0  0  0  0
    7.4113   10.6567   22.4690 H   0  0  0  0  0  0  0  0  0  0  0  0
    6.5574   11.7983   23.5065 H   0  0  0  0  0  0  0  0  0  0  0  0
    9.7150    9.5120   25.2912 H   0  0  0  0  0  0  0  0  0  0  0  0
    9.4308    9.2622   23.5742 H   0  0  0  0  0  0  0  0  0  0  0  0
   10.0305   11.1324   21.9921 H   0  0  0  0  0  0  0  0  0  0  0  0
   10.7079   12.6027   22.6758 H   0  0  0  0  0  0  0  0  0  0  0  0
    8.5774   13.1666   23.7779 H   0  0  0  0  0  0  0  0  0  0  0  0
    8.1389   12.4148   20.8635 H   0  0  0  0  0  0  0  0  0  0  0  0
    8.9666   13.8625   21.4237 H   0  0  0  0  0  0  0  0  0  0  0  0
    6.5671   14.3681   20.9001 H   0  0  0  0  0  0  0  0  0  0  0  0
    6.0508   13.1511   22.0908 H   0  0  0  0  0  0  0  0  0  0  0  0
   11.2747   10.6900   23.9462 H   0  0  0  0  0  0  0  0  0  0  0  0
    4.7385   15.9960   23.2352 H   0  0  0  0  0  0  0  0  0  0  0  0
    5.7707   16.9649   22.2567 H   0  0  0  0  0  0  0  0  0  0  0  0
  1  2  1  0  0  0  0
  1  3  1  0  0  0  0
  2  5  1  0  0  0  0
  3  8  1  0  0  0  0
  4  5  1  0  0  0  0
  4  8  1  0  0  0  0
  5  6  1  0  0  0  0
  6  7  1  0  0  0  0
  7 12  1  0  0  0  0
  9 12  1  0  0  0  0
 10 12  2  0  0  0  0
 11 12  2  0  0  0  0
  1 13  1  0  0  0  0
  1 14  1  0  0  0  0
  2 15  1  0  0  0  0
  2 16  1  0  0  0  0
  3 17  1  0  0  0  0
  3 18  1  0  0  0  0
  4 19  1  0  0  0  0
  4 20  1  0  0  0  0
  5 21  1  0  0  0  0
  6 22  1  0  0  0  0
  6 23  1  0  0  0  0
  7 24  1  0  0  0  0
  7 25  1  0  0  0  0
  8 26  1  0  0  0  0
  9 27  1  0  0  0  0
  9 28  1  0  0  0  0
M  END
> <Mol Weight>
228,74

> <Formula>
C7H17ClN2O2S

> <ID>
EN300-37267173

> <name>
Sulfonamides

> <LogP>
-1,03

> <ROCS_ShapeQuery>
x0310_0A_x0719_0A_x1080_0A_x0739_0A_x0929_0A_x0526_0A_x0911_0A

> <ROCS_TanimotoCombo>
0.300 

> <ROCS_ShapeTanimoto>
0.152 

> <ROCS_ColorTanimoto>
0.148 

> <ROCS_RefTversky>
0.147 

> <ROCS_RefColorTversky>
0.161 

> <ROCS_RefTverskyCombo>
0.307 

> <ROCS_FitTversky>
1.355 

> <ROCS_FitColorTversky>
0.647 

> <ROCS_FitTverskyCombo>
2.002 

> <ROCS_ColorScore>
-4.669

> <ROCS_Overlap>
1172.760

> <ROCS_Rank>
407                 

$$$$
untitled-dbase-2493_3
  -OEChem-02092407103D

 27 28  0     0  0  0  0  0  0999 V2000
    3.7925   10.5494   23.2539 C   0  0  0  0  0  0  0  0  0  0  0  0
    3.2787   11.8144   22.9685 C   0  0  0  0  0  0  0  0  0  0  0  0
    5.1648   10.3790   23.4366 C   0  0  0  0  0  0  0  0  0  0  0  0
    7.9098   10.7523   24.7405 C   0  0  0  0  0  0  0  0  0  0  0  0
    8.3388   11.5585   22.5038 C   0  0  0  0  0  0  0  0  0  0  0  0
    4.1372   12.9089   22.8657 C   0  0  0  0  0  0  0  0  0  0  0  0
    9.2764   10.5450   24.9279 C   0  0  0  0  0  0  0  0  0  0  0  0
    9.7054   11.3513   22.6912 C   0  0  0  0  0  0  0  0  0  0  0  0
    7.4410   11.2590   23.5284 C   0  0  0  0  0  0  0  0  0  0  0  0
    6.0233   11.4735   23.3338 C   0  0  0  0  0  0  0  0  0  0  0  0
    5.5096   12.7385   23.0484 C   0  0  0  0  0  0  0  0  0  0  0  0
   10.1742   10.8445   23.9033 C   0  0  0  0  0  0  0  0  0  0  0  0
    5.3887   15.3562   22.5609 N   0  0  0  0  0  0  0  0  0  0  0  0
    7.1282   14.4114   24.2123 O   0  0  0  0  0  0  0  0  0  0  0  0
    7.4010   13.9687   21.7471 O   0  0  0  0  0  0  0  0  0  0  0  0
    6.5433   14.1472   22.9076 S   0  0  0  0  0  0  0  0  0  0  0  0
   11.8601   10.5871   24.1348 Cl  0  0  0  0  0  0  0  0  0  0  0  0
    3.1237    9.6974   23.3346 H   0  0  0  0  0  0  0  0  0  0  0  0
    2.2101   11.9471   22.8270 H   0  0  0  0  0  0  0  0  0  0  0  0
    5.5481    9.3857   23.6584 H   0  0  0  0  0  0  0  0  0  0  0  0
    7.2224   10.5138   25.5486 H   0  0  0  0  0  0  0  0  0  0  0  0
    7.9887   11.9533   21.5528 H   0  0  0  0  0  0  0  0  0  0  0  0
    3.7239   13.8892   22.6433 H   0  0  0  0  0  0  0  0  0  0  0  0
    9.6280   10.1478   25.8769 H   0  0  0  0  0  0  0  0  0  0  0  0
   10.3935   11.5880   21.8836 H   0  0  0  0  0  0  0  0  0  0  0  0
    4.9465   15.3470   21.6336 H   0  0  0  0  0  0  0  0  0  0  0  0
    4.7601   15.6520   23.3176 H   0  0  0  0  0  0  0  0  0  0  0  0
  1  2  1  0  0  0  0
  1  3  2  0  0  0  0
  2  6  2  0  0  0  0
  3 10  1  0  0  0  0
  4  7  2  0  0  0  0
  4  9  1  0  0  0  0
  5  8  1  0  0  0  0
  5  9  2  0  0  0  0
  6 11  1  0  0  0  0
  7 12  1  0  0  0  0
  8 12  2  0  0  0  0
  9 10  1  0  0  0  0
 10 11  2  0  0  0  0
 11 16  1  0  0  0  0
 12 17  1  0  0  0  0
 13 16  1  0  0  0  0
 14 16  2  0  0  0  0
 15 16  2  0  0  0  0
  1 18  1  0  0  0  0
  2 19  1  0  0  0  0
  3 20  1  0  0  0  0
  4 21  1  0  0  0  0
  5 22  1  0  0  0  0
  6 23  1  0  0  0  0
  7 24  1  0  0  0  0
  8 25  1  0  0  0  0
 13 26  1  0  0  0  0
 13 27  1  0  0  0  0
M  END
> <Mol Weight>
267,73

> <Formula>
C12H10ClNO2S

> <ID>
EN300-1699361

> <name>
Sulfonamides

> <LogP>
2,83

> <ROCS_ShapeQuery>
x0310_0A_x0719_0A_x1080_0A_x0739_0A_x0929_0A_x0526_0A_x0911_0A

> <ROCS_TanimotoCombo>
0.300 

> <ROCS_ShapeTanimoto>
0.135 

> <ROCS_ColorTanimoto>
0.165 

> <ROCS_RefTversky>
0.136 

> <ROCS_RefColorTversky>
0.172 

> <ROCS_RefTverskyCombo>
0.308 

> <ROCS_FitTversky>
0.972 

> <ROCS_FitColorTversky>
0.797 

> <ROCS_FitTverskyCombo>
1.770 

> <ROCS_ColorScore>
-4.997

> <ROCS_Overlap>
1086.394

> <ROCS_Rank>
408                 

$$$$
untitled-dbase-2265_10
  -OEChem-02092407103D

 29 30  0     0  0  0  0  0  0999 V2000
    5.6077   10.8200   20.5507 C   0  0  0  0  0  0  0  0  0  0  0  0
    6.5717   10.7970   21.5585 C   0  0  0  0  0  0  0  0  0  0  0  0
    6.2857   13.1735   21.8863 C   0  0  0  0  0  0  0  0  0  0  0  0
    3.1990   11.7535   17.2961 C   0  0  0  0  0  0  0  0  0  0  0  0
    2.7231   12.3863   19.3475 C   0  0  0  0  0  0  0  0  0  0  0  0
    2.1512   12.2256   18.1091 C   0  0  0  0  0  0  0  0  0  0  0  0
    4.9827   12.0198   20.2106 C   0  0  0  0  0  0  0  0  0  0  0  0
    5.3217   13.1965   20.8785 C   0  0  0  0  0  0  0  0  0  0  0  0
    6.9107   11.9738   22.2264 C   0  0  0  0  0  0  0  0  0  0  0  0
    0.7562   12.4884   17.7220 C   0  0  0  0  0  0  0  0  0  0  0  0
    4.3496   11.6230   17.9619 N   0  0  0  0  0  0  0  0  0  0  0  0
    4.0280   12.0155   19.2064 N   0  0  0  0  0  0  0  0  0  0  0  0
    4.7030   14.4251   20.5523 N   0  0  0  0  0  0  0  0  0  0  0  0
    9.5386   12.2400   22.5847 N   0  0  0  0  0  0  0  0  0  0  0  0
    7.8823   13.0736   24.3757 O   0  0  0  0  0  0  0  0  0  0  0  0
    8.1838   10.5958   24.0333 O   0  0  0  0  0  0  0  0  0  0  0  0
    8.1183   11.9442   23.4874 S   0  0  0  0  0  0  0  0  0  0  0  0
    5.3536    9.8945   20.0395 H   0  0  0  0  0  0  0  0  0  0  0  0
    7.0526    9.8571   21.8159 H   0  0  0  0  0  0  0  0  0  0  0  0
    6.5509   14.0908   22.4074 H   0  0  0  0  0  0  0  0  0  0  0  0
    3.1748   11.4985   16.2461 H   0  0  0  0  0  0  0  0  0  0  0  0
    2.3170   12.7256   20.2915 H   0  0  0  0  0  0  0  0  0  0  0  0
    0.1259   11.5921   17.8571 H   0  0  0  0  0  0  0  0  0  0  0  0
    0.3038   13.3038   18.3151 H   0  0  0  0  0  0  0  0  0  0  0  0
    0.6668   12.7999   16.6653 H   0  0  0  0  0  0  0  0  0  0  0  0
    4.0475   14.4528   19.7999 H   0  0  0  0  0  0  0  0  0  0  0  0
    5.0025   15.2565   21.0168 H   0  0  0  0  0  0  0  0  0  0  0  0
    9.9931   13.1555   22.6877 H   0  0  0  0  0  0  0  0  0  0  0  0
   10.1967   11.4623   22.4531 H   0  0  0  0  0  0  0  0  0  0  0  0
  1  2  2  0  0  0  0
  1  7  1  0  0  0  0
  2  9  1  0  0  0  0
  3  8  1  0  0  0  0
  3  9  2  0  0  0  0
  4  6  1  0  0  0  0
  4 11  2  0  0  0  0
  5  6  2  0  0  0  0
  5 12  1  0  0  0  0
  6 10  1  0  0  0  0
  7  8  2  0  0  0  0
  7 12  1  0  0  0  0
  8 13  1  0  0  0  0
  9 17  1  0  0  0  0
 11 12  1  0  0  0  0
 14 17  1  0  0  0  0
 15 17  2  0  0  0  0
 16 17  2  0  0  0  0
  1 18  1  0  0  0  0
  2 19  1  0  0  0  0
  3 20  1  0  0  0  0
  4 21  1  0  0  0  0
  5 22  1  0  0  0  0
 10 23  1  0  0  0  0
 10 24  1  0  0  0  0
 10 25  1  0  0  0  0
 13 26  1  0  0  0  0
 13 27  1  0  0  0  0
 14 28  1  0  0  0  0
 14 29  1  0  0  0  0
M  END
> <Mol Weight>
252,29

> <Formula>
C10H12N4O2S

> <ID>
EN300-118097

> <name>
Sulfonamides

> <LogP>
0,35

> <ROCS_ShapeQuery>
x0310_0A_x0719_0A_x1080_0A_x0739_0A_x0929_0A_x0526_0A_x0911_0A

> <ROCS_TanimotoCombo>
0.300 

> <ROCS_ShapeTanimoto>
0.201 

> <ROCS_ColorTanimoto>
0.099 

> <ROCS_RefTversky>
0.191 

> <ROCS_RefColorTversky>
0.119 

> <ROCS_RefTverskyCombo>
0.310 

> <ROCS_FitTversky>
1.344 

> <ROCS_FitColorTversky>
0.379 

> <ROCS_FitTverskyCombo>
1.723 

> <ROCS_ColorScore>
-3.459

> <ROCS_Overlap>
1530.331

> <ROCS_Rank>
409                 

$$$$
untitled-dbase-2501_11
  -OEChem-02092407103D

 20 20  0     0  0  0  0  0  0999 V2000
    9.2899   12.3421   22.7458 C   0  0  0  0  0  0  0  0  0  0  0  0
   10.2030   11.5386   23.4286 C   0  0  0  0  0  0  0  0  0  0  0  0
    7.4640   11.0975   23.7227 C   0  0  0  0  0  0  0  0  0  0  0  0
    7.9204   12.1216   22.8929 C   0  0  0  0  0  0  0  0  0  0  0  0
    8.3771   10.2939   24.4055 C   0  0  0  0  0  0  0  0  0  0  0  0
    9.7466   10.5145   24.2584 C   0  0  0  0  0  0  0  0  0  0  0  0
    6.9440   12.9807   22.1627 C   0  0  0  0  0  0  0  0  0  0  0  0
    5.9838   15.4242   21.7644 N   0  0  0  0  0  0  0  0  0  0  0  0
    6.7875   14.7217   24.1048 O   0  0  0  0  0  0  0  0  0  0  0  0
    8.4840   15.0890   22.2684 O   0  0  0  0  0  0  0  0  0  0  0  0
    7.9209    9.3143   25.1989 F   0  0  0  0  0  0  0  0  0  0  0  0
    7.1719   14.6432   22.7057 S   0  0  0  0  0  0  0  0  0  0  0  0
   10.9924    9.4310   25.1800 Br  0  0  0  0  0  0  0  0  0  0  0  0
    9.6542   13.1373   22.1008 H   0  0  0  0  0  0  0  0  0  0  0  0
   11.2668   11.7235   23.3029 H   0  0  0  0  0  0  0  0  0  0  0  0
    6.3990   10.9183   23.8431 H   0  0  0  0  0  0  0  0  0  0  0  0
    5.9055   12.6980   22.3692 H   0  0  0  0  0  0  0  0  0  0  0  0
    7.0984   12.9563   21.0779 H   0  0  0  0  0  0  0  0  0  0  0  0
    5.1475   15.7762   22.2462 H   0  0  0  0  0  0  0  0  0  0  0  0
    6.3029   16.0262   20.9954 H   0  0  0  0  0  0  0  0  0  0  0  0
  1  2  2  0  0  0  0
  1  4  1  0  0  0  0
  2  6  1  0  0  0  0
  3  4  2  0  0  0  0
  3  5  1  0  0  0  0
  4  7  1  0  0  0  0
  5  6  2  0  0  0  0
  5 11  1  0  0  0  0
  6 13  1  0  0  0  0
  7 12  1  0  0  0  0
  8 12  1  0  0  0  0
  9 12  2  0  0  0  0
 10 12  2  0  0  0  0
  1 14  1  0  0  0  0
  2 15  1  0  0  0  0
  3 16  1  0  0  0  0
  7 17  1  0  0  0  0
  7 18  1  0  0  0  0
  8 19  1  0  0  0  0
  8 20  1  0  0  0  0
M  END
> <Mol Weight>
268,10

> <Formula>
C7H7BrFNO2S

> <ID>
EN300-247647

> <name>
Sulfonamides

> <LogP>
1,25

> <ROCS_ShapeQuery>
x0310_0A_x0719_0A_x1080_0A_x0739_0A_x0929_0A_x0526_0A_x0911_0A

> <ROCS_TanimotoCombo>
0.300 

> <ROCS_ShapeTanimoto>
0.151 

> <ROCS_ColorTanimoto>
0.149 

> <ROCS_RefTversky>
0.146 

> <ROCS_RefColorTversky>
0.158 

> <ROCS_RefTverskyCombo>
0.304 

> <ROCS_FitTversky>
1.266 

> <ROCS_FitColorTversky>
0.730 

> <ROCS_FitTverskyCombo>
1.997 

> <ROCS_ColorScore>
-4.578

> <ROCS_Overlap>
1170.281

> <ROCS_Rank>
410                 

$$$$
untitled-dbase-2638_338
  -OEChem-02092407103D

 28 28  0     0  0  0  0  0  0999 V2000
    5.9608   10.9369   20.4884 C   0  0  0  0  0  0  0  0  0  0  0  0
    7.2276   11.0456   21.0620 C   0  0  0  0  0  0  0  0  0  0  0  0
    5.3845   13.1204   21.3471 C   0  0  0  0  0  0  0  0  0  0  0  0
    5.0393   11.9743   20.6309 C   0  0  0  0  0  0  0  0  0  0  0  0
    7.5728   12.1917   21.7782 C   0  0  0  0  0  0  0  0  0  0  0  0
    6.6513   13.2291   21.9208 C   0  0  0  0  0  0  0  0  0  0  0  0
    3.4984   11.7030   18.7034 C   0  0  0  0  0  0  0  0  0  0  0  0
    8.9702   11.7825   23.6585 C   0  0  0  0  0  0  0  0  0  0  0  0
    2.0131   11.6209   18.4377 C   0  0  0  0  0  0  0  0  0  0  0  0
    5.6104   15.5674   22.6648 N   0  0  0  0  0  0  0  0  0  0  0  0
    3.7721   11.8651   20.0566 N   0  0  0  0  0  0  0  0  0  0  0  0
    4.2964   11.6452   17.7718 O   0  0  0  0  0  0  0  0  0  0  0  0
    7.2497   14.3138   24.2096 O   0  0  0  0  0  0  0  0  0  0  0  0
    8.1156   15.3761   22.0955 O   0  0  0  0  0  0  0  0  0  0  0  0
    8.8161   12.2766   22.3298 O   0  0  0  0  0  0  0  0  0  0  0  0
    7.0603   14.6769   22.8133 S   0  0  0  0  0  0  0  0  0  0  0  0
    1.5845   12.9518   17.3511 Cl  0  0  0  0  0  0  0  0  0  0  0  0
    5.7022   10.0397   19.9317 H   0  0  0  0  0  0  0  0  0  0  0  0
    7.9411   10.2341   20.9478 H   0  0  0  0  0  0  0  0  0  0  0  0
    4.6655   13.9290   21.4574 H   0  0  0  0  0  0  0  0  0  0  0  0
   10.0076   11.9099   23.9774 H   0  0  0  0  0  0  0  0  0  0  0  0
    8.6957   10.7250   23.6891 H   0  0  0  0  0  0  0  0  0  0  0  0
    8.3144   12.3466   24.3259 H   0  0  0  0  0  0  0  0  0  0  0  0
    1.4149   11.7026   19.3487 H   0  0  0  0  0  0  0  0  0  0  0  0
    1.7828   10.6708   17.9475 H   0  0  0  0  0  0  0  0  0  0  0  0
    5.0208   15.6701   23.4998 H   0  0  0  0  0  0  0  0  0  0  0  0
    5.6132   16.3938   22.0545 H   0  0  0  0  0  0  0  0  0  0  0  0
    2.9740   11.9082   20.6873 H   0  0  0  0  0  0  0  0  0  0  0  0
  1  2  2  0  0  0  0
  1  4  1  0  0  0  0
  2  5  1  0  0  0  0
  3  4  2  0  0  0  0
  3  6  1  0  0  0  0
  4 11  1  0  0  0  0
  5  6  2  0  0  0  0
  5 15  1  0  0  0  0
  6 16  1  0  0  0  0
  7  9  1  0  0  0  0
  7 11  1  0  0  0  0
  7 12  2  0  0  0  0
  8 15  1  0  0  0  0
  9 17  1  0  0  0  0
 10 16  1  0  0  0  0
 13 16  2  0  0  0  0
 14 16  2  0  0  0  0
  1 18  1  0  0  0  0
  2 19  1  0  0  0  0
  3 20  1  0  0  0  0
  8 21  1  0  0  0  0
  8 22  1  0  0  0  0
  8 23  1  0  0  0  0
  9 24  1  0  0  0  0
  9 25  1  0  0  0  0
 10 26  1  0  0  0  0
 10 27  1  0  0  0  0
 11 28  1  0  0  0  0
M  END
> <Mol Weight>
278,71

> <Formula>
C9H11ClN2O4S

> <ID>
EN300-10937

> <name>
Sulfonamides

> <LogP>
0,20

> <ROCS_ShapeQuery>
x0310_0A_x0719_0A_x1080_0A_x0739_0A_x0929_0A_x0526_0A_x0911_0A

> <ROCS_TanimotoCombo>
0.300 

> <ROCS_ShapeTanimoto>
0.190 

> <ROCS_ColorTanimoto>
0.110 

> <ROCS_RefTversky>
0.182 

> <ROCS_RefColorTversky>
0.127 

> <ROCS_RefTverskyCombo>
0.308 

> <ROCS_FitTversky>
1.324 

> <ROCS_FitColorTversky>
0.451 

> <ROCS_FitTverskyCombo>
1.775 

> <ROCS_ColorScore>
-3.687

> <ROCS_Overlap>
1455.459

> <ROCS_Rank>
411                 

$$$$
untitled-dbase-464_17
  -OEChem-02092407103D

 20 20  0     0  0  0  0  0  0999 V2000
    8.2468   11.7767   24.4833 C   0  0  0  0  0  0  0  0  0  0  0  0
    9.0555   11.0875   22.6247 C   0  0  0  0  0  0  0  0  0  0  0  0
    8.1483   12.2734   23.0232 C   0  0  0  0  0  0  0  0  0  0  0  0
    9.5293   11.0077   24.0935 C   0  0  0  0  0  0  0  0  0  0  0  0
    8.7144   13.6594   22.7553 C   0  0  0  0  0  0  0  0  0  0  0  0
    6.5439   14.9000   21.8602 N   0  0  0  0  0  0  0  0  0  0  0  0
    6.8300   14.4604   24.3785 O   0  0  0  0  0  0  0  0  0  0  0  0
    8.2847   16.1895   23.2473 O   0  0  0  0  0  0  0  0  0  0  0  0
   10.6913   11.6464   24.3623 F   0  0  0  0  0  0  0  0  0  0  0  0
    9.6422    9.7618   24.6046 F   0  0  0  0  0  0  0  0  0  0  0  0
    7.5746   14.9216   23.2186 S   0  0  0  0  0  0  0  0  0  0  0  0
    8.4202   12.5640   25.2309 H   0  0  0  0  0  0  0  0  0  0  0  0
    7.4105   11.1535   24.8224 H   0  0  0  0  0  0  0  0  0  0  0  0
    8.5284   10.2005   22.2526 H   0  0  0  0  0  0  0  0  0  0  0  0
    9.8615   11.3351   21.9192 H   0  0  0  0  0  0  0  0  0  0  0  0
    7.1378   12.1804   22.6179 H   0  0  0  0  0  0  0  0  0  0  0  0
    8.9306   13.7928   21.6925 H   0  0  0  0  0  0  0  0  0  0  0  0
    9.6300   13.8235   23.3284 H   0  0  0  0  0  0  0  0  0  0  0  0
    6.9127   15.2678   20.9746 H   0  0  0  0  0  0  0  0  0  0  0  0
    5.9219   14.0903   21.7453 H   0  0  0  0  0  0  0  0  0  0  0  0
  1  3  1  0  0  0  0
  1  4  1  0  0  0  0
  2  3  1  0  0  0  0
  2  4  1  0  0  0  0
  3  5  1  0  0  0  0
  4  9  1  0  0  0  0
  4 10  1  0  0  0  0
  5 11  1  0  0  0  0
  6 11  1  0  0  0  0
  7 11  2  0  0  0  0
  8 11  2  0  0  0  0
  1 12  1  0  0  0  0
  1 13  1  0  0  0  0
  2 14  1  0  0  0  0
  2 15  1  0  0  0  0
  3 16  1  0  0  0  0
  5 17  1  0  0  0  0
  5 18  1  0  0  0  0
  6 19  1  0  0  0  0
  6 20  1  0  0  0  0
M  END
> <Mol Weight>
185,19

> <Formula>
C5H9F2NO2S

> <ID>
EN300-1120797

> <name>
Sulfonamides

> <LogP>
-0,67

> <ROCS_ShapeQuery>
x0310_0A_x0719_0A_x1080_0A_x0739_0A_x0929_0A_x0526_0A_x0911_0A

> <ROCS_TanimotoCombo>
0.300 

> <ROCS_ShapeTanimoto>
0.145 

> <ROCS_ColorTanimoto>
0.154 

> <ROCS_RefTversky>
0.140 

> <ROCS_RefColorTversky>
0.158 

> <ROCS_RefTverskyCombo>
0.299 

> <ROCS_FitTversky>
1.333 

> <ROCS_FitColorTversky>
0.863 

> <ROCS_FitTverskyCombo>
2.195 

> <ROCS_ColorScore>
-4.586

> <ROCS_Overlap>
1121.574

> <ROCS_Rank>
412                 

$$$$
untitled-dbase-2435_47
  -OEChem-02092407103D

 23 23  0     0  0  0  0  0  0999 V2000
    9.1868   10.2160   22.5991 C   0  0  0  0  0  0  0  0  0  0  0  0
    8.7792    9.7249   23.8393 C   0  0  0  0  0  0  0  0  0  0  0  0
    9.3076   11.5912   22.3990 C   0  0  0  0  0  0  0  0  0  0  0  0
    8.4923   10.6089   24.8795 C   0  0  0  0  0  0  0  0  0  0  0  0
    9.0208   12.4752   23.4391 C   0  0  0  0  0  0  0  0  0  0  0  0
    8.6131   11.9840   24.6794 C   0  0  0  0  0  0  0  0  0  0  0  0
    9.1645   13.9398   23.1779 C   0  0  0  0  0  0  0  0  0  0  0  0
    8.0251   14.5256   22.3418 C   0  0  0  0  0  0  0  0  0  0  0  0
    5.5874   15.5765   22.2805 N   0  0  0  0  0  0  0  0  0  0  0  0
    5.8998   13.0772   22.8026 O   0  0  0  0  0  0  0  0  0  0  0  0
    6.5992   14.7996   24.5142 O   0  0  0  0  0  0  0  0  0  0  0  0
    6.4529   14.3794   23.1315 S   0  0  0  0  0  0  0  0  0  0  0  0
    8.2090   13.1460   26.1227 Br  0  0  0  0  0  0  0  0  0  0  0  0
    9.4100    9.5276   21.7896 H   0  0  0  0  0  0  0  0  0  0  0  0
    8.6853    8.6542   23.9948 H   0  0  0  0  0  0  0  0  0  0  0  0
    9.6260   11.9626   21.4285 H   0  0  0  0  0  0  0  0  0  0  0  0
    8.1760   10.2073   25.8390 H   0  0  0  0  0  0  0  0  0  0  0  0
   10.1111   14.1223   22.6425 H   0  0  0  0  0  0  0  0  0  0  0  0
    9.2491   14.5030   24.1221 H   0  0  0  0  0  0  0  0  0  0  0  0
    8.1816   15.5972   22.1821 H   0  0  0  0  0  0  0  0  0  0  0  0
    7.9406   14.0405   21.3646 H   0  0  0  0  0  0  0  0  0  0  0  0
    4.8665   15.2654   21.6177 H   0  0  0  0  0  0  0  0  0  0  0  0
    5.3431   16.4385   22.7834 H   0  0  0  0  0  0  0  0  0  0  0  0
  1  2  1  0  0  0  0
  1  3  2  0  0  0  0
  2  4  2  0  0  0  0
  3  5  1  0  0  0  0
  4  6  1  0  0  0  0
  5  6  2  0  0  0  0
  5  7  1  0  0  0  0
  6 13  1  0  0  0  0
  7  8  1  0  0  0  0
  8 12  1  0  0  0  0
  9 12  1  0  0  0  0
 10 12  2  0  0  0  0
 11 12  2  0  0  0  0
  1 14  1  0  0  0  0
  2 15  1  0  0  0  0
  3 16  1  0  0  0  0
  4 17  1  0  0  0  0
  7 18  1  0  0  0  0
  7 19  1  0  0  0  0
  8 20  1  0  0  0  0
  8 21  1  0  0  0  0
  9 22  1  0  0  0  0
  9 23  1  0  0  0  0
M  END
> <Mol Weight>
264,14

> <Formula>
C8H10BrNO2S

> <ID>
EN300-215384

> <name>
Sulfonamides

> <LogP>
1,40

> <ROCS_ShapeQuery>
x0310_0A_x0719_0A_x1080_0A_x0739_0A_x0929_0A_x0526_0A_x0911_0A

> <ROCS_TanimotoCombo>
0.300 

> <ROCS_ShapeTanimoto>
0.169 

> <ROCS_ColorTanimoto>
0.131 

> <ROCS_RefTversky>
0.161 

> <ROCS_RefColorTversky>
0.141 

> <ROCS_RefTverskyCombo>
0.302 

> <ROCS_FitTversky>
1.412 

> <ROCS_FitColorTversky>
0.650 

> <ROCS_FitTverskyCombo>
2.063 

> <ROCS_ColorScore>
-4.077

> <ROCS_Overlap>
1289.646

> <ROCS_Rank>
413                 

$$$$
untitled-dbase-1945_7
  -OEChem-02092407103D

 23 23  0     0  0  0  0  0  0999 V2000
    8.2950   11.8864   22.4311 C   0  0  0  0  0  0  0  0  0  0  0  0
    9.4937   12.0877   24.5191 C   0  0  0  0  0  0  0  0  0  0  0  0
    8.0271   10.5471   22.7139 C   0  0  0  0  0  0  0  0  0  0  0  0
    9.2257   10.7483   24.8020 C   0  0  0  0  0  0  0  0  0  0  0  0
    9.0284   12.6567   23.3336 C   0  0  0  0  0  0  0  0  0  0  0  0
    8.4923    9.9781   23.8994 C   0  0  0  0  0  0  0  0  0  0  0  0
    9.3153   14.0887   23.0320 C   0  0  0  0  0  0  0  0  0  0  0  0
    8.2039    8.5464   24.2019 C   0  0  0  0  0  0  0  0  0  0  0  0
    7.0388   14.6527   21.7868 N   0  0  0  0  0  0  0  0  0  0  0  0
    7.0762   14.3876   24.3451 O   0  0  0  0  0  0  0  0  0  0  0  0
    8.1548   16.4154   23.2915 O   0  0  0  0  0  0  0  0  0  0  0  0
    7.4766    7.9176   23.2315 F   0  0  0  0  0  0  0  0  0  0  0  0
    9.3263    7.7834   24.3562 F   0  0  0  0  0  0  0  0  0  0  0  0
    7.4912    8.3866   25.3548 F   0  0  0  0  0  0  0  0  0  0  0  0
    7.8232   15.0011   23.2602 S   0  0  0  0  0  0  0  0  0  0  0  0
    7.9290   12.3214   21.5047 H   0  0  0  0  0  0  0  0  0  0  0  0
   10.0648   12.6810   25.2284 H   0  0  0  0  0  0  0  0  0  0  0  0
    7.4536    9.9550   22.0057 H   0  0  0  0  0  0  0  0  0  0  0  0
    9.5921   10.3128   25.7278 H   0  0  0  0  0  0  0  0  0  0  0  0
    9.6468   14.2379   21.9980 H   0  0  0  0  0  0  0  0  0  0  0  0
   10.0740   14.5110   23.7009 H   0  0  0  0  0  0  0  0  0  0  0  0
    6.2224   14.0295   21.8155 H   0  0  0  0  0  0  0  0  0  0  0  0
    6.9571   15.4105   21.0979 H   0  0  0  0  0  0  0  0  0  0  0  0
  1  3  2  0  0  0  0
  1  5  1  0  0  0  0
  2  4  1  0  0  0  0
  2  5  2  0  0  0  0
  3  6  1  0  0  0  0
  4  6  2  0  0  0  0
  5  7  1  0  0  0  0
  6  8  1  0  0  0  0
  7 15  1  0  0  0  0
  8 12  1  0  0  0  0
  8 13  1  0  0  0  0
  8 14  1  0  0  0  0
  9 15  1  0  0  0  0
 10 15  2  0  0  0  0
 11 15  2  0  0  0  0
  1 16  1  0  0  0  0
  2 17  1  0  0  0  0
  3 18  1  0  0  0  0
  4 19  1  0  0  0  0
  7 20  1  0  0  0  0
  7 21  1  0  0  0  0
  9 22  1  0  0  0  0
  9 23  1  0  0  0  0
M  END
> <Mol Weight>
239,21

> <Formula>
C8H8F3NO2S

> <ID>
EN300-273672

> <name>
Sulfonamides

> <LogP>
1,22

> <ROCS_ShapeQuery>
x0310_0A_x0719_0A_x1080_0A_x0739_0A_x0929_0A_x0526_0A_x0911_0A

> <ROCS_TanimotoCombo>
0.300 

> <ROCS_ShapeTanimoto>
0.149 

> <ROCS_ColorTanimoto>
0.150 

> <ROCS_RefTversky>
0.146 

> <ROCS_RefColorTversky>
0.155 

> <ROCS_RefTverskyCombo>
0.301 

> <ROCS_FitTversky>
1.140 

> <ROCS_FitColorTversky>
0.843 

> <ROCS_FitTverskyCombo>
1.983 

> <ROCS_ColorScore>
-4.482

> <ROCS_Overlap>
1173.521

> <ROCS_Rank>
414                 

$$$$
untitled-dbase-358_17
  -OEChem-02092407103D

 19 19  0     0  0  0  0  0  0999 V2000
    9.3051   11.8634   22.7680 C   0  0  0  0  0  0  0  0  0  0  0  0
    9.7140   10.7783   23.5624 C   0  0  0  0  0  0  0  0  0  0  0  0
    7.9474   11.9030   22.9448 C   0  0  0  0  0  0  0  0  0  0  0  0
   11.0802   10.2665   23.7559 C   0  0  0  0  0  0  0  0  0  0  0  0
    6.8581   12.7833   22.4144 C   0  0  0  0  0  0  0  0  0  0  0  0
    8.6884   10.1900   24.1843 N   0  0  0  0  0  0  0  0  0  0  0  0
    6.2522   15.2999   21.8219 N   0  0  0  0  0  0  0  0  0  0  0  0
    6.6136   14.6046   24.2720 O   0  0  0  0  0  0  0  0  0  0  0  0
    8.5950   14.7133   22.7074 O   0  0  0  0  0  0  0  0  0  0  0  0
    7.5673   10.9093   23.7880 O   0  0  0  0  0  0  0  0  0  0  0  0
    7.1927   14.4419   22.9533 S   0  0  0  0  0  0  0  0  0  0  0  0
    9.9071   12.5197   22.1568 H   0  0  0  0  0  0  0  0  0  0  0  0
   11.5768   10.7598   24.6095 H   0  0  0  0  0  0  0  0  0  0  0  0
   11.0959    9.1782   23.9470 H   0  0  0  0  0  0  0  0  0  0  0  0
   11.7160   10.4249   22.8658 H   0  0  0  0  0  0  0  0  0  0  0  0
    5.8748   12.4931   22.7951 H   0  0  0  0  0  0  0  0  0  0  0  0
    6.8246   12.7805   21.3213 H   0  0  0  0  0  0  0  0  0  0  0  0
    5.3949   15.7558   22.1577 H   0  0  0  0  0  0  0  0  0  0  0  0
    6.7443   15.8297   21.0921 H   0  0  0  0  0  0  0  0  0  0  0  0
  1  2  1  0  0  0  0
  1  3  2  0  0  0  0
  2  4  1  0  0  0  0
  2  6  2  0  0  0  0
  3  5  1  0  0  0  0
  3 10  1  0  0  0  0
  5 11  1  0  0  0  0
  6 10  1  0  0  0  0
  7 11  1  0  0  0  0
  8 11  2  0  0  0  0
  9 11  2  0  0  0  0
  1 12  1  0  0  0  0
  4 13  1  0  0  0  0
  4 14  1  0  0  0  0
  4 15  1  0  0  0  0
  5 16  1  0  0  0  0
  5 17  1  0  0  0  0
  7 18  1  0  0  0  0
  7 19  1  0  0  0  0
M  END
> <Mol Weight>
176,19

> <Formula>
C5H8N2O3S

> <ID>
EN300-1120876

> <name>
Sulfonamides

> <LogP>
-1,24

> <ROCS_ShapeQuery>
x0310_0A_x0719_0A_x1080_0A_x0739_0A_x0929_0A_x0526_0A_x0911_0A

> <ROCS_TanimotoCombo>
0.300 

> <ROCS_ShapeTanimoto>
0.142 

> <ROCS_ColorTanimoto>
0.158 

> <ROCS_RefTversky>
0.137 

> <ROCS_RefColorTversky>
0.166 

> <ROCS_RefTverskyCombo>
0.303 

> <ROCS_FitTversky>
1.286 

> <ROCS_FitColorTversky>
0.767 

> <ROCS_FitTverskyCombo>
2.053 

> <ROCS_ColorScore>
-4.807

> <ROCS_Overlap>
1099.605

> <ROCS_Rank>
415                 

$$$$
untitled-dbase-2595_39
  -OEChem-02092407103D

 21 21  0     0  0  0  0  0  0999 V2000
    8.6101   11.3808   25.0188 C   0  0  0  0  0  0  0  0  0  0  0  0
    9.2405   10.3083   24.3880 C   0  0  0  0  0  0  0  0  0  0  0  0
    9.1624   11.4982   22.2868 C   0  0  0  0  0  0  0  0  0  0  0  0
    8.2558   12.5121   24.2836 C   0  0  0  0  0  0  0  0  0  0  0  0
    8.5319   12.5708   22.9176 C   0  0  0  0  0  0  0  0  0  0  0  0
    9.5166   10.3670   23.0220 C   0  0  0  0  0  0  0  0  0  0  0  0
    6.3928   13.2974   25.5584 C   0  0  0  0  0  0  0  0  0  0  0  0
    7.3822   14.9619   23.1736 N   0  0  0  0  0  0  0  0  0  0  0  0
    9.3235   14.6141   21.5134 O   0  0  0  0  0  0  0  0  0  0  0  0
    7.0759   13.5910   21.0140 O   0  0  0  0  0  0  0  0  0  0  0  0
    7.6393   13.5473   24.9202 O   0  0  0  0  0  0  0  0  0  0  0  0
    6.3162   12.0217   25.9932 F   0  0  0  0  0  0  0  0  0  0  0  0
    5.3991   13.4922   24.6619 F   0  0  0  0  0  0  0  0  0  0  0  0
    6.1950   14.1465   26.5890 F   0  0  0  0  0  0  0  0  0  0  0  0
    8.0983   13.9785   21.9745 S   0  0  0  0  0  0  0  0  0  0  0  0
   10.2912    9.0417   22.2438 Cl  0  0  0  0  0  0  0  0  0  0  0  0
    8.3962   11.3276   26.0829 H   0  0  0  0  0  0  0  0  0  0  0  0
    9.5092    9.4325   24.9732 H   0  0  0  0  0  0  0  0  0  0  0  0
    9.3751   11.5447   21.2212 H   0  0  0  0  0  0  0  0  0  0  0  0
    7.8984   15.7935   23.4855 H   0  0  0  0  0  0  0  0  0  0  0  0
    6.3637   15.0922   23.1443 H   0  0  0  0  0  0  0  0  0  0  0  0
  1  2  2  0  0  0  0
  1  4  1  0  0  0  0
  2  6  1  0  0  0  0
  3  5  1  0  0  0  0
  3  6  2  0  0  0  0
  4  5  2  0  0  0  0
  4 11  1  0  0  0  0
  5 15  1  0  0  0  0
  6 16  1  0  0  0  0
  7 11  1  0  0  0  0
  7 12  1  0  0  0  0
  7 13  1  0  0  0  0
  7 14  1  0  0  0  0
  8 15  1  0  0  0  0
  9 15  2  0  0  0  0
 10 15  2  0  0  0  0
  1 17  1  0  0  0  0
  2 18  1  0  0  0  0
  3 19  1  0  0  0  0
  8 20  1  0  0  0  0
  8 21  1  0  0  0  0
M  END
> <Mol Weight>
275,63

> <Formula>
C7H5ClF3NO3S

> <ID>
EN300-262402

> <name>
Sulfonamides

> <LogP>
2,61

> <ROCS_ShapeQuery>
x0310_0A_x0719_0A_x1080_0A_x0739_0A_x0929_0A_x0526_0A_x0911_0A

> <ROCS_TanimotoCombo>
0.300 

> <ROCS_ShapeTanimoto>
0.171 

> <ROCS_ColorTanimoto>
0.129 

> <ROCS_RefTversky>
0.165 

> <ROCS_RefColorTversky>
0.139 

> <ROCS_RefTverskyCombo>
0.304 

> <ROCS_FitTversky>
1.230 

> <ROCS_FitColorTversky>
0.643 

> <ROCS_FitTverskyCombo>
1.873 

> <ROCS_ColorScore>
-4.029

> <ROCS_Overlap>
1324.556

> <ROCS_Rank>
416                 

$$$$
untitled-dbase-2474_587
  -OEChem-02092407103D

 28 28  0     0  0  0  0  0  0999 V2000
    8.4904   12.2949   22.7132 C   0  0  0  0  0  0  0  0  0  0  0  0
    9.0409   11.0664   22.3479 C   0  0  0  0  0  0  0  0  0  0  0  0
    9.1049   10.4045   24.6706 C   0  0  0  0  0  0  0  0  0  0  0  0
    8.2473   12.5782   24.0572 C   0  0  0  0  0  0  0  0  0  0  0  0
    8.5545   11.6330   25.0358 C   0  0  0  0  0  0  0  0  0  0  0  0
    9.3481   10.1212   23.3265 C   0  0  0  0  0  0  0  0  0  0  0  0
    7.3979   17.3699   23.5956 C   0  0  0  0  0  0  0  0  0  0  0  0
    6.8507   14.3992   23.4333 C   0  0  0  0  0  0  0  0  0  0  0  0
    7.6762   15.2943   22.5292 C   0  0  0  0  0  0  0  0  0  0  0  0
    6.6627   11.3778   26.8962 N   0  0  0  0  0  0  0  0  0  0  0  0
    9.1523   11.1329   27.5190 O   0  0  0  0  0  0  0  0  0  0  0  0
    8.2497   13.4071   26.9184 O   0  0  0  0  0  0  0  0  0  0  0  0
    7.7105   13.7854   24.3912 O   0  0  0  0  0  0  0  0  0  0  0  0
    8.2954   16.3045   23.3162 O   0  0  0  0  0  0  0  0  0  0  0  0
    8.2580   11.9644   26.7275 S   0  0  0  0  0  0  0  0  0  0  0  0
   10.0307    8.6071   22.8752 Cl  0  0  0  0  0  0  0  0  0  0  0  0
    8.2553   13.0274   21.9457 H   0  0  0  0  0  0  0  0  0  0  0  0
    9.2266   10.8601   21.2969 H   0  0  0  0  0  0  0  0  0  0  0  0
    9.3459    9.6693   25.4351 H   0  0  0  0  0  0  0  0  0  0  0  0
    7.9053   18.1257   24.2001 H   0  0  0  0  0  0  0  0  0  0  0  0
    6.5276   16.9831   24.1318 H   0  0  0  0  0  0  0  0  0  0  0  0
    7.0734   17.8177   22.6534 H   0  0  0  0  0  0  0  0  0  0  0  0
    6.3577   13.6074   22.8610 H   0  0  0  0  0  0  0  0  0  0  0  0
    6.1011   14.9861   23.9721 H   0  0  0  0  0  0  0  0  0  0  0  0
    7.0480   15.7841   21.7785 H   0  0  0  0  0  0  0  0  0  0  0  0
    8.4616   14.7171   22.0327 H   0  0  0  0  0  0  0  0  0  0  0  0
    6.5227   10.5098   27.4276 H   0  0  0  0  0  0  0  0  0  0  0  0
    5.9075   12.0639   27.0153 H   0  0  0  0  0  0  0  0  0  0  0  0
  1  2  2  0  0  0  0
  1  4  1  0  0  0  0
  2  6  1  0  0  0  0
  3  5  1  0  0  0  0
  3  6  2  0  0  0  0
  4  5  2  0  0  0  0
  4 13  1  0  0  0  0
  5 15  1  0  0  0  0
  6 16  1  0  0  0  0
  7 14  1  0  0  0  0
  8  9  1  0  0  0  0
  8 13  1  0  0  0  0
  9 14  1  0  0  0  0
 10 15  1  0  0  0  0
 11 15  2  0  0  0  0
 12 15  2  0  0  0  0
  1 17  1  0  0  0  0
  2 18  1  0  0  0  0
  3 19  1  0  0  0  0
  7 20  1  0  0  0  0
  7 21  1  0  0  0  0
  7 22  1  0  0  0  0
  8 23  1  0  0  0  0
  8 24  1  0  0  0  0
  9 25  1  0  0  0  0
  9 26  1  0  0  0  0
 10 27  1  0  0  0  0
 10 28  1  0  0  0  0
M  END
> <Mol Weight>
265,71

> <Formula>
C9H12ClNO4S

> <ID>
EN300-122260

> <name>
Sulfonamides

> <LogP>
0,98

> <ROCS_ShapeQuery>
x0310_0A_x0719_0A_x1080_0A_x0739_0A_x0929_0A_x0526_0A_x0911_0A

> <ROCS_TanimotoCombo>
0.299 

> <ROCS_ShapeTanimoto>
0.164 

> <ROCS_ColorTanimoto>
0.136 

> <ROCS_RefTversky>
0.159 

> <ROCS_RefColorTversky>
0.149 

> <ROCS_RefTverskyCombo>
0.308 

> <ROCS_FitTversky>
1.213 

> <ROCS_FitColorTversky>
0.601 

> <ROCS_FitTverskyCombo>
1.814 

> <ROCS_ColorScore>
-4.342

> <ROCS_Overlap>
1273.441

> <ROCS_Rank>
417                 

$$$$
untitled-dbase-2494_10
  -OEChem-02092407103D

 27 28  0     0  0  0  0  0  0999 V2000
    3.7921   10.5497   23.2556 C   0  0  0  0  0  0  0  0  0  0  0  0
    3.2785   11.8148   22.9702 C   0  0  0  0  0  0  0  0  0  0  0  0
    9.7046   11.3516   22.6904 C   0  0  0  0  0  0  0  0  0  0  0  0
    5.1645   10.3790   23.4380 C   0  0  0  0  0  0  0  0  0  0  0  0
    8.3378   11.5583   22.5038 C   0  0  0  0  0  0  0  0  0  0  0  0
    4.1373   12.9091   22.8670 C   0  0  0  0  0  0  0  0  0  0  0  0
   10.1743   10.8450   23.9022 C   0  0  0  0  0  0  0  0  0  0  0  0
    7.9104   10.7519   24.7408 C   0  0  0  0  0  0  0  0  0  0  0  0
    7.4408   11.2585   23.5290 C   0  0  0  0  0  0  0  0  0  0  0  0
    6.0232   11.4733   23.3348 C   0  0  0  0  0  0  0  0  0  0  0  0
    5.5096   12.7384   23.0493 C   0  0  0  0  0  0  0  0  0  0  0  0
    9.2772   10.5452   24.9274 C   0  0  0  0  0  0  0  0  0  0  0  0
    5.3893   15.3561   22.5616 N   0  0  0  0  0  0  0  0  0  0  0  0
    7.1290   14.4111   24.2126 O   0  0  0  0  0  0  0  0  0  0  0  0
    7.4010   13.9680   21.7474 O   0  0  0  0  0  0  0  0  0  0  0  0
    6.5437   14.1468   22.9081 S   0  0  0  0  0  0  0  0  0  0  0  0
    9.8578    9.9201   26.4222 Cl  0  0  0  0  0  0  0  0  0  0  0  0
    3.1231    9.6979   23.3366 H   0  0  0  0  0  0  0  0  0  0  0  0
    2.2099   11.9477   22.8290 H   0  0  0  0  0  0  0  0  0  0  0  0
   10.4031   11.5850   21.8922 H   0  0  0  0  0  0  0  0  0  0  0  0
    5.5476    9.3856   23.6598 H   0  0  0  0  0  0  0  0  0  0  0  0
    7.9873   11.9538   21.5534 H   0  0  0  0  0  0  0  0  0  0  0  0
    3.7241   13.8895   22.6446 H   0  0  0  0  0  0  0  0  0  0  0  0
   11.2420   10.6890   24.0333 H   0  0  0  0  0  0  0  0  0  0  0  0
    7.2113   10.5177   25.5414 H   0  0  0  0  0  0  0  0  0  0  0  0
    5.1816   16.0464   23.2935 H   0  0  0  0  0  0  0  0  0  0  0  0
    5.3673   15.7412   21.6095 H   0  0  0  0  0  0  0  0  0  0  0  0
  1  2  1  0  0  0  0
  1  4  2  0  0  0  0
  2  6  2  0  0  0  0
  3  5  2  0  0  0  0
  3  7  1  0  0  0  0
  4 10  1  0  0  0  0
  5  9  1  0  0  0  0
  6 11  1  0  0  0  0
  7 12  2  0  0  0  0
  8  9  2  0  0  0  0
  8 12  1  0  0  0  0
  9 10  1  0  0  0  0
 10 11  2  0  0  0  0
 11 16  1  0  0  0  0
 12 17  1  0  0  0  0
 13 16  1  0  0  0  0
 14 16  2  0  0  0  0
 15 16  2  0  0  0  0
  1 18  1  0  0  0  0
  2 19  1  0  0  0  0
  3 20  1  0  0  0  0
  4 21  1  0  0  0  0
  5 22  1  0  0  0  0
  6 23  1  0  0  0  0
  7 24  1  0  0  0  0
  8 25  1  0  0  0  0
 13 26  1  0  0  0  0
 13 27  1  0  0  0  0
M  END
> <Mol Weight>
267,73

> <Formula>
C12H10ClNO2S

> <ID>
EN300-1699363

> <name>
Sulfonamides

> <LogP>
2,83

> <ROCS_ShapeQuery>
x0310_0A_x0719_0A_x1080_0A_x0739_0A_x0929_0A_x0526_0A_x0911_0A

> <ROCS_TanimotoCombo>
0.299 

> <ROCS_ShapeTanimoto>
0.134 

> <ROCS_ColorTanimoto>
0.165 

> <ROCS_RefTversky>
0.135 

> <ROCS_RefColorTversky>
0.172 

> <ROCS_RefTverskyCombo>
0.307 

> <ROCS_FitTversky>
0.968 

> <ROCS_FitColorTversky>
0.798 

> <ROCS_FitTverskyCombo>
1.765 

> <ROCS_ColorScore>
-4.998

> <ROCS_Overlap>
1081.503

> <ROCS_Rank>
418                 

$$$$
untitled-dbase-1326_17
  -OEChem-02092407103D

 27 27  0     0  0  0  0  0  0999 V2000
    7.4625   11.0852   23.7120 C   0  0  0  0  0  0  0  0  0  0  0  0
    9.2922   12.3404   22.7561 C   0  0  0  0  0  0  0  0  0  0  0  0
    8.3723   10.2873   24.4058 C   0  0  0  0  0  0  0  0  0  0  0  0
   10.2020   11.5425   23.4499 C   0  0  0  0  0  0  0  0  0  0  0  0
    7.9225   12.1117   22.8871 C   0  0  0  0  0  0  0  0  0  0  0  0
    9.7420   10.5160   24.2747 C   0  0  0  0  0  0  0  0  0  0  0  0
    6.3234   15.8431   20.3725 C   0  0  0  0  0  0  0  0  0  0  0  0
   10.0906    8.7076   25.7793 C   0  0  0  0  0  0  0  0  0  0  0  0
    6.9458   12.9689   22.1427 C   0  0  0  0  0  0  0  0  0  0  0  0
    5.9878   15.4424   21.7506 N   0  0  0  0  0  0  0  0  0  0  0  0
    6.7926   14.7040   24.0961 O   0  0  0  0  0  0  0  0  0  0  0  0
    8.4774   15.0775   22.2580 O   0  0  0  0  0  0  0  0  0  0  0  0
   10.6295    9.7381   24.9528 O   0  0  0  0  0  0  0  0  0  0  0  0
    7.1643   14.6446   22.6961 S   0  0  0  0  0  0  0  0  0  0  0  0
    6.3972   10.8999   23.8200 H   0  0  0  0  0  0  0  0  0  0  0  0
    9.6597   13.1379   22.1155 H   0  0  0  0  0  0  0  0  0  0  0  0
    8.0077    9.4893   25.0472 H   0  0  0  0  0  0  0  0  0  0  0  0
   11.2675   11.7259   23.3439 H   0  0  0  0  0  0  0  0  0  0  0  0
    7.3789   16.1495   20.3259 H   0  0  0  0  0  0  0  0  0  0  0  0
    6.1580   14.9939   19.6932 H   0  0  0  0  0  0  0  0  0  0  0  0
    5.6836   16.6850   20.0694 H   0  0  0  0  0  0  0  0  0  0  0  0
   10.9058    8.1630   26.2621 H   0  0  0  0  0  0  0  0  0  0  0  0
    9.4932    8.0251   25.1695 H   0  0  0  0  0  0  0  0  0  0  0  0
    9.4552    9.1609   26.5439 H   0  0  0  0  0  0  0  0  0  0  0  0
    5.9105   12.6770   22.3403 H   0  0  0  0  0  0  0  0  0  0  0  0
    7.1167   12.9417   21.0628 H   0  0  0  0  0  0  0  0  0  0  0  0
    5.0119   15.1417   21.8717 H   0  0  0  0  0  0  0  0  0  0  0  0
  1  3  2  0  0  0  0
  1  5  1  0  0  0  0
  2  4  1  0  0  0  0
  2  5  2  0  0  0  0
  3  6  1  0  0  0  0
  4  6  2  0  0  0  0
  5  9  1  0  0  0  0
  6 13  1  0  0  0  0
  7 10  1  0  0  0  0
  8 13  1  0  0  0  0
  9 14  1  0  0  0  0
 10 14  1  0  0  0  0
 11 14  2  0  0  0  0
 12 14  2  0  0  0  0
  1 15  1  0  0  0  0
  2 16  1  0  0  0  0
  3 17  1  0  0  0  0
  4 18  1  0  0  0  0
  7 19  1  0  0  0  0
  7 20  1  0  0  0  0
  7 21  1  0  0  0  0
  8 22  1  0  0  0  0
  8 23  1  0  0  0  0
  8 24  1  0  0  0  0
  9 25  1  0  0  0  0
  9 26  1  0  0  0  0
 10 27  1  0  0  0  0
M  END
> <Mol Weight>
215,27

> <Formula>
C9H13NO3S

> <ID>
EN300-680115

> <name>
Sulfonamides

> <LogP>
0,41

> <ROCS_ShapeQuery>
x0310_0A_x0719_0A_x1080_0A_x0739_0A_x0929_0A_x0526_0A_x0911_0A

> <ROCS_TanimotoCombo>
0.299 

> <ROCS_ShapeTanimoto>
0.149 

> <ROCS_ColorTanimoto>
0.150 

> <ROCS_RefTversky>
0.146 

> <ROCS_RefColorTversky>
0.158 

> <ROCS_RefTverskyCombo>
0.304 

> <ROCS_FitTversky>
1.203 

> <ROCS_FitColorTversky>
0.733 

> <ROCS_FitTverskyCombo>
1.937 

> <ROCS_ColorScore>
-4.597

> <ROCS_Overlap>
1167.407

> <ROCS_Rank>
419                 

$$$$
untitled-dbase-2378_185
  -OEChem-02092407103D

 34 34  0     0  0  0  0  0  0999 V2000
    3.8942   12.0941   20.3052 C   0  0  0  0  0  0  0  0  0  0  0  0
    2.6530   12.5703   19.8829 C   0  0  0  0  0  0  0  0  0  0  0  0
    2.9394   11.4400   17.7669 C   0  0  0  0  0  0  0  0  0  0  0  0
    4.6580   11.2909   19.4583 C   0  0  0  0  0  0  0  0  0  0  0  0
    4.1806   10.9639   18.1892 C   0  0  0  0  0  0  0  0  0  0  0  0
    2.1756   12.2433   18.6138 C   0  0  0  0  0  0  0  0  0  0  0  0
   -0.5333   11.2655   20.0291 C   0  0  0  0  0  0  0  0  0  0  0  0
    7.4547   14.9146   21.6996 C   0  0  0  0  0  0  0  0  0  0  0  0
    6.6308   11.4305   20.9796 C   0  0  0  0  0  0  0  0  0  0  0  0
    6.8994   12.8873   20.6487 C   0  0  0  0  0  0  0  0  0  0  0  0
    4.9379   10.1519   17.3155 N   0  0  0  0  0  0  0  0  0  0  0  0
    5.9123   10.8198   19.9060 N   0  0  0  0  0  0  0  0  0  0  0  0
   -0.4409   11.6029   18.6014 N   0  0  0  0  0  0  0  0  0  0  0  0
    0.3110   14.0570   18.8224 O   0  0  0  0  0  0  0  0  0  0  0  0
    0.6282   12.8681   16.6292 O   0  0  0  0  0  0  0  0  0  0  0  0
    7.5830   13.4999   21.7347 O   0  0  0  0  0  0  0  0  0  0  0  0
    0.6214   12.8385   18.0858 S   0  0  0  0  0  0  0  0  0  0  0  0
    4.2561   12.3558   21.2963 H   0  0  0  0  0  0  0  0  0  0  0  0
    2.0666   13.1959   20.5504 H   0  0  0  0  0  0  0  0  0  0  0  0
    2.5663   11.1855   16.7773 H   0  0  0  0  0  0  0  0  0  0  0  0
   -0.2558   12.1424   20.6324 H   0  0  0  0  0  0  0  0  0  0  0  0
   -1.5644   10.9668   20.2691 H   0  0  0  0  0  0  0  0  0  0  0  0
    0.1511   10.4342   20.2543 H   0  0  0  0  0  0  0  0  0  0  0  0
    7.9906   15.3509   22.5461 H   0  0  0  0  0  0  0  0  0  0  0  0
    6.3972   15.1867   21.7447 H   0  0  0  0  0  0  0  0  0  0  0  0
    7.8854   15.2876   20.7673 H   0  0  0  0  0  0  0  0  0  0  0  0
    7.5644   10.8781   21.1256 H   0  0  0  0  0  0  0  0  0  0  0  0
    6.0224   11.3517   21.8856 H   0  0  0  0  0  0  0  0  0  0  0  0
    5.9540   13.4186   20.5017 H   0  0  0  0  0  0  0  0  0  0  0  0
    7.5102   12.9890   19.7458 H   0  0  0  0  0  0  0  0  0  0  0  0
    5.8467    9.8498   17.5990 H   0  0  0  0  0  0  0  0  0  0  0  0
    4.5912    9.9737   16.3959 H   0  0  0  0  0  0  0  0  0  0  0  0
    6.2914   10.0231   19.4321 H   0  0  0  0  0  0  0  0  0  0  0  0
   -0.6801   10.8505   17.9442 H   0  0  0  0  0  0  0  0  0  0  0  0
  1  2  2  0  0  0  0
  1  4  1  0  0  0  0
  2  6  1  0  0  0  0
  3  5  1  0  0  0  0
  3  6  2  0  0  0  0
  4  5  2  0  0  0  0
  4 12  1  0  0  0  0
  5 11  1  0  0  0  0
  6 17  1  0  0  0  0
  7 13  1  0  0  0  0
  8 16  1  0  0  0  0
  9 10  1  0  0  0  0
  9 12  1  0  0  0  0
 10 16  1  0  0  0  0
 13 17  1  0  0  0  0
 14 17  2  0  0  0  0
 15 17  2  0  0  0  0
  1 18  1  0  0  0  0
  2 19  1  0  0  0  0
  3 20  1  0  0  0  0
  7 21  1  0  0  0  0
  7 22  1  0  0  0  0
  7 23  1  0  0  0  0
  8 24  1  0  0  0  0
  8 25  1  0  0  0  0
  8 26  1  0  0  0  0
  9 27  1  0  0  0  0
  9 28  1  0  0  0  0
 10 29  1  0  0  0  0
 10 30  1  0  0  0  0
 11 31  1  0  0  0  0
 11 32  1  0  0  0  0
 12 33  1  0  0  0  0
 13 34  1  0  0  0  0
M  END
> <Mol Weight>
259,32

> <Formula>
C10H17N3O3S

> <ID>
EN300-107895

> <name>
Sulfonamides

> <LogP>
-0,60

> <ROCS_ShapeQuery>
x0310_0A_x0719_0A_x1080_0A_x0739_0A_x0929_0A_x0526_0A_x0911_0A

> <ROCS_TanimotoCombo>
0.299 

> <ROCS_ShapeTanimoto>
0.180 

> <ROCS_ColorTanimoto>
0.119 

> <ROCS_RefTversky>
0.173 

> <ROCS_RefColorTversky>
0.140 

> <ROCS_RefTverskyCombo>
0.313 

> <ROCS_FitTversky>
1.275 

> <ROCS_FitColorTversky>
0.448 

> <ROCS_FitTverskyCombo>
1.722 

> <ROCS_ColorScore>
-4.082

> <ROCS_Overlap>
1388.074

> <ROCS_Rank>
420                 

$$$$
untitled-dbase-1913_85
  -OEChem-02092407103D

 27 28  0     0  0  0  0  0  0999 V2000
    8.5913   10.0627   24.0496 C   0  0  0  0  0  0  0  0  0  0  0  0
    9.7207   10.7390   24.5108 C   0  0  0  0  0  0  0  0  0  0  0  0
    7.6748   10.7165   23.2260 C   0  0  0  0  0  0  0  0  0  0  0  0
    9.9336   12.0690   24.1486 C   0  0  0  0  0  0  0  0  0  0  0  0
    7.8877   12.0466   22.8637 C   0  0  0  0  0  0  0  0  0  0  0  0
    7.1097   16.7940   23.7712 C   0  0  0  0  0  0  0  0  0  0  0  0
    6.9274   14.6037   23.8363 C   0  0  0  0  0  0  0  0  0  0  0  0
    9.0171   12.7229   23.3250 C   0  0  0  0  0  0  0  0  0  0  0  0
    6.2261   15.7521   24.1112 C   0  0  0  0  0  0  0  0  0  0  0  0
    9.2440   14.1451   22.9374 C   0  0  0  0  0  0  0  0  0  0  0  0
    8.2828   16.3469   23.3152 N   0  0  0  0  0  0  0  0  0  0  0  0
    8.1413   15.0115   23.3669 N   0  0  0  0  0  0  0  0  0  0  0  0
    3.6940   15.9146   23.2946 N   0  0  0  0  0  0  0  0  0  0  0  0
    4.2904   14.6635   25.4682 O   0  0  0  0  0  0  0  0  0  0  0  0
    4.4686   17.1758   25.4032 O   0  0  0  0  0  0  0  0  0  0  0  0
    4.6479   15.8821   24.7236 S   0  0  0  0  0  0  0  0  0  0  0  0
    8.4264    9.0267   24.3307 H   0  0  0  0  0  0  0  0  0  0  0  0
   10.4350   10.2298   25.1512 H   0  0  0  0  0  0  0  0  0  0  0  0
    6.7960   10.1900   22.8659 H   0  0  0  0  0  0  0  0  0  0  0  0
   10.8163   12.5881   24.5128 H   0  0  0  0  0  0  0  0  0  0  0  0
    7.1682   12.5479   22.2218 H   0  0  0  0  0  0  0  0  0  0  0  0
    6.9506   17.8611   23.8360 H   0  0  0  0  0  0  0  0  0  0  0  0
    6.6728   13.5569   23.9323 H   0  0  0  0  0  0  0  0  0  0  0  0
   10.1724   14.5455   23.3749 H   0  0  0  0  0  0  0  0  0  0  0  0
    9.3524   14.2601   21.8471 H   0  0  0  0  0  0  0  0  0  0  0  0
    3.7108   16.7620   22.7139 H   0  0  0  0  0  0  0  0  0  0  0  0
    3.5865   15.0455   22.7576 H   0  0  0  0  0  0  0  0  0  0  0  0
  1  2  1  0  0  0  0
  1  3  2  0  0  0  0
  2  4  2  0  0  0  0
  3  5  1  0  0  0  0
  4  8  1  0  0  0  0
  5  8  2  0  0  0  0
  6  9  1  0  0  0  0
  6 11  2  0  0  0  0
  7  9  2  0  0  0  0
  7 12  1  0  0  0  0
  8 10  1  0  0  0  0
  9 16  1  0  0  0  0
 10 12  1  0  0  0  0
 11 12  1  0  0  0  0
 13 16  1  0  0  0  0
 14 16  2  0  0  0  0
 15 16  2  0  0  0  0
  1 17  1  0  0  0  0
  2 18  1  0  0  0  0
  3 19  1  0  0  0  0
  4 20  1  0  0  0  0
  5 21  1  0  0  0  0
  6 22  1  0  0  0  0
  7 23  1  0  0  0  0
 10 24  1  0  0  0  0
 10 25  1  0  0  0  0
 13 26  1  0  0  0  0
 13 27  1  0  0  0  0
M  END
> <Mol Weight>
237,28

> <Formula>
C10H11N3O2S

> <ID>
EN300-98995

> <name>
Sulfonamides

> <LogP>
0,73

> <ROCS_ShapeQuery>
x0310_0A_x0719_0A_x1080_0A_x0739_0A_x0929_0A_x0526_0A_x0911_0A

> <ROCS_TanimotoCombo>
0.299 

> <ROCS_ShapeTanimoto>
0.167 

> <ROCS_ColorTanimoto>
0.132 

> <ROCS_RefTversky>
0.163 

> <ROCS_RefColorTversky>
0.145 

> <ROCS_RefTverskyCombo>
0.308 

> <ROCS_FitTversky>
1.203 

> <ROCS_FitColorTversky>
0.586 

> <ROCS_FitTverskyCombo>
1.789 

> <ROCS_ColorScore>
-4.228

> <ROCS_Overlap>
1303.747

> <ROCS_Rank>
421                 

$$$$
untitled-dbase-2202_5
  -OEChem-02092407103D

 34 34  0     1  0  0  0  0  0999 V2000
    6.2170   12.4922   20.7991 C   0  0  0  0  0  0  0  0  0  0  0  0
    2.7015   11.4207   19.8089 C   0  0  0  0  0  0  0  0  0  0  0  0
    3.7035   12.6822   18.4147 C   0  0  0  0  0  0  0  0  0  0  0  0
    4.1890   11.7575   19.5548 C   0  0  1  0  0  0  0  0  0  0  0  0
    2.4408   11.7957   18.3330 C   0  0  2  0  0  0  0  0  0  0  0  0
    8.5929   14.0572   21.0347 C   0  0  0  0  0  0  0  0  0  0  0  0
    8.0502   14.1754   23.4843 C   0  0  0  0  0  0  0  0  0  0  0  0
    8.5171   11.9525   22.4126 C   0  0  0  0  0  0  0  0  0  0  0  0
    7.9227   13.3453   22.2089 C   0  0  0  0  0  0  0  0  0  0  0  0
   -0.1851   11.5007   18.5950 N   0  0  0  0  0  0  0  0  0  0  0  0
    4.8520   12.4443   20.6518 N   0  0  0  0  0  0  0  0  0  0  0  0
    7.0425   11.9794   20.0506 O   0  0  0  0  0  0  0  0  0  0  0  0
    0.8874   13.8188   18.9001 O   0  0  0  0  0  0  0  0  0  0  0  0
    0.7715   12.7990   16.5909 O   0  0  0  0  0  0  0  0  0  0  0  0
    6.5266   13.2076   21.9215 O   0  0  0  0  0  0  0  0  0  0  0  0
    0.9267   12.6604   18.0270 S   0  0  0  0  0  0  0  0  0  0  0  0
    2.4955   10.3786   20.0692 H   0  0  0  0  0  0  0  0  0  0  0  0
    2.2060   12.0704   20.5405 H   0  0  0  0  0  0  0  0  0  0  0  0
    3.5155   13.7193   18.7181 H   0  0  0  0  0  0  0  0  0  0  0  0
    4.3292   12.6872   17.5178 H   0  0  0  0  0  0  0  0  0  0  0  0
    4.7748   10.9008   19.2006 H   0  0  0  0  0  0  0  0  0  0  0  0
    2.5549   10.9473   17.6473 H   0  0  0  0  0  0  0  0  0  0  0  0
    8.5036   13.4645   20.1172 H   0  0  0  0  0  0  0  0  0  0  0  0
    8.1520   15.0433   20.8559 H   0  0  0  0  0  0  0  0  0  0  0  0
    9.6661   14.1858   21.2164 H   0  0  0  0  0  0  0  0  0  0  0  0
    7.5707   13.6684   24.3294 H   0  0  0  0  0  0  0  0  0  0  0  0
    7.5419   15.1403   23.3745 H   0  0  0  0  0  0  0  0  0  0  0  0
    9.0978   14.3627   23.7415 H   0  0  0  0  0  0  0  0  0  0  0  0
    8.0365   11.4416   23.2548 H   0  0  0  0  0  0  0  0  0  0  0  0
    8.4015   11.3300   21.5194 H   0  0  0  0  0  0  0  0  0  0  0  0
    9.5835   12.0159   22.6573 H   0  0  0  0  0  0  0  0  0  0  0  0
   -0.3159   10.6484   18.0363 H   0  0  0  0  0  0  0  0  0  0  0  0
   -0.2370   11.3432   19.6089 H   0  0  0  0  0  0  0  0  0  0  0  0
    4.2788   12.9105   21.3417 H   0  0  0  0  0  0  0  0  0  0  0  0
  1 11  1  0  0  0  0
  1 12  2  0  0  0  0
  1 15  1  0  0  0  0
  2  4  1  0  0  0  0
  2  5  1  0  0  0  0
  3  4  1  0  0  0  0
  3  5  1  0  0  0  0
  4 11  1  1  0  0  0
  5 16  1  1  0  0  0
  6  9  1  0  0  0  0
  7  9  1  0  0  0  0
  8  9  1  0  0  0  0
  9 15  1  0  0  0  0
 10 16  1  0  0  0  0
 13 16  2  0  0  0  0
 14 16  2  0  0  0  0
  2 17  1  0  0  0  0
  2 18  1  0  0  0  0
  3 19  1  0  0  0  0
  3 20  1  0  0  0  0
  4 21  1  0  0  0  0
  5 22  1  0  0  0  0
  6 23  1  0  0  0  0
  6 24  1  0  0  0  0
  6 25  1  0  0  0  0
  7 26  1  0  0  0  0
  7 27  1  0  0  0  0
  7 28  1  0  0  0  0
  8 29  1  0  0  0  0
  8 30  1  0  0  0  0
  8 31  1  0  0  0  0
 10 32  1  0  0  0  0
 10 33  1  0  0  0  0
 11 34  1  0  0  0  0
M  END
> <Mol Weight>
250,31

> <Formula>
C9H18N2O4S

> <ID>
EN300-27698910

> <name>
Sulfonamides

> <LogP>
-0,47

> <ROCS_ShapeQuery>
x0310_0A_x0719_0A_x1080_0A_x0739_0A_x0929_0A_x0526_0A_x0911_0A

> <ROCS_TanimotoCombo>
0.299 

> <ROCS_ShapeTanimoto>
0.182 

> <ROCS_ColorTanimoto>
0.117 

> <ROCS_RefTversky>
0.174 

> <ROCS_RefColorTversky>
0.134 

> <ROCS_RefTverskyCombo>
0.308 

> <ROCS_FitTversky>
1.332 

> <ROCS_FitColorTversky>
0.478 

> <ROCS_FitTverskyCombo>
1.810 

> <ROCS_ColorScore>
-3.900

> <ROCS_Overlap>
1397.261

> <ROCS_Rank>
422                 

$$$$
untitled-dbase-1565_4
  -OEChem-02092407103D

 20 20  0     0  0  0  0  0  0999 V2000
    9.7168   10.2124   23.6109 C   0  0  0  0  0  0  0  0  0  0  0  0
    8.5101   10.0139   24.2816 C   0  0  0  0  0  0  0  0  0  0  0  0
    9.1168   12.5188   23.2138 C   0  0  0  0  0  0  0  0  0  0  0  0
    7.9100   12.3203   23.8845 C   0  0  0  0  0  0  0  0  0  0  0  0
   10.0202   11.4649   23.0770 C   0  0  0  0  0  0  0  0  0  0  0  0
    7.6066   11.0678   24.4184 C   0  0  0  0  0  0  0  0  0  0  0  0
    6.9691   13.4750   24.0087 C   0  0  0  0  0  0  0  0  0  0  0  0
    5.6994   15.3495   22.6211 N   0  0  0  0  0  0  0  0  0  0  0  0
    7.2763   13.7069   21.4243 O   0  0  0  0  0  0  0  0  0  0  0  0
    5.0658   12.8743   22.3222 O   0  0  0  0  0  0  0  0  0  0  0  0
   11.1788   11.6549   22.4322 F   0  0  0  0  0  0  0  0  0  0  0  0
    6.2286   13.7395   22.4311 S   0  0  0  0  0  0  0  0  0  0  0  0
    6.1234   10.7852   25.2547 Cl  0  0  0  0  0  0  0  0  0  0  0  0
   10.4204    9.3919   23.5047 H   0  0  0  0  0  0  0  0  0  0  0  0
    8.2888    9.0314   24.6909 H   0  0  0  0  0  0  0  0  0  0  0  0
    9.3640   13.4900   22.7934 H   0  0  0  0  0  0  0  0  0  0  0  0
    7.4829   14.3965   24.3009 H   0  0  0  0  0  0  0  0  0  0  0  0
    6.1692   13.2799   24.7302 H   0  0  0  0  0  0  0  0  0  0  0  0
    6.1941   16.0803   22.0951 H   0  0  0  0  0  0  0  0  0  0  0  0
    4.6887   15.5132   22.7068 H   0  0  0  0  0  0  0  0  0  0  0  0
  1  2  2  0  0  0  0
  1  5  1  0  0  0  0
  2  6  1  0  0  0  0
  3  4  1  0  0  0  0
  3  5  2  0  0  0  0
  4  6  2  0  0  0  0
  4  7  1  0  0  0  0
  5 11  1  0  0  0  0
  6 13  1  0  0  0  0
  7 12  1  0  0  0  0
  8 12  1  0  0  0  0
  9 12  2  0  0  0  0
 10 12  2  0  0  0  0
  1 14  1  0  0  0  0
  2 15  1  0  0  0  0
  3 16  1  0  0  0  0
  7 17  1  0  0  0  0
  7 18  1  0  0  0  0
  8 19  1  0  0  0  0
  8 20  1  0  0  0  0
M  END
> <Mol Weight>
223,65

> <Formula>
C7H7ClFNO2S

> <ID>
EN300-291427

> <name>
Sulfonamides

> <LogP>
1,09

> <ROCS_ShapeQuery>
x0310_0A_x0719_0A_x1080_0A_x0739_0A_x0929_0A_x0526_0A_x0911_0A

> <ROCS_TanimotoCombo>
0.299 

> <ROCS_ShapeTanimoto>
0.160 

> <ROCS_ColorTanimoto>
0.139 

> <ROCS_RefTversky>
0.154 

> <ROCS_RefColorTversky>
0.144 

> <ROCS_RefTverskyCombo>
0.298 

> <ROCS_FitTversky>
1.328 

> <ROCS_FitColorTversky>
0.787 

> <ROCS_FitTverskyCombo>
2.115 

> <ROCS_ColorScore>
-4.185

> <ROCS_Overlap>
1232.344

> <ROCS_Rank>
423                 

$$$$
untitled-dbase-652_16
  -OEChem-02092407103D

 20 20  0     0  0  0  0  0  0999 V2000
    8.6818   10.9170   24.8501 C   0  0  0  0  0  0  0  0  0  0  0  0
    7.6985   11.4553   23.9705 C   0  0  0  0  0  0  0  0  0  0  0  0
    9.9120   10.7999   24.2414 C   0  0  0  0  0  0  0  0  0  0  0  0
    8.2148   11.7293   22.7230 C   0  0  0  0  0  0  0  0  0  0  0  0
    7.5078   12.3041   21.5194 C   0  0  0  0  0  0  0  0  0  0  0  0
    6.3731   13.2510   21.8911 C   0  0  0  0  0  0  0  0  0  0  0  0
    5.6053   15.7141   22.5191 N   0  0  0  0  0  0  0  0  0  0  0  0
    6.9727   14.3240   24.1968 O   0  0  0  0  0  0  0  0  0  0  0  0
    8.0935   15.2054   22.1105 O   0  0  0  0  0  0  0  0  0  0  0  0
    9.8784   11.3377   22.6160 S   0  0  0  0  0  0  0  0  0  0  0  0
    6.9252   14.6688   22.7865 S   0  0  0  0  0  0  0  0  0  0  0  0
    8.4972   10.6308   25.8772 H   0  0  0  0  0  0  0  0  0  0  0  0
    6.6661   11.6321   24.2444 H   0  0  0  0  0  0  0  0  0  0  0  0
   10.8287   10.4240   24.6733 H   0  0  0  0  0  0  0  0  0  0  0  0
    7.0970   11.4755   20.9278 H   0  0  0  0  0  0  0  0  0  0  0  0
    8.2252   12.8174   20.8664 H   0  0  0  0  0  0  0  0  0  0  0  0
    5.8978   13.6364   20.9834 H   0  0  0  0  0  0  0  0  0  0  0  0
    5.6062   12.7639   22.5011 H   0  0  0  0  0  0  0  0  0  0  0  0
    5.4839   16.0992   21.5743 H   0  0  0  0  0  0  0  0  0  0  0  0
    4.7207   15.4990   22.9954 H   0  0  0  0  0  0  0  0  0  0  0  0
  1  2  1  0  0  0  0
  1  3  2  0  0  0  0
  2  4  2  0  0  0  0
  3 10  1  0  0  0  0
  4  5  1  0  0  0  0
  4 10  1  0  0  0  0
  5  6  1  0  0  0  0
  6 11  1  0  0  0  0
  7 11  1  0  0  0  0
  8 11  2  0  0  0  0
  9 11  2  0  0  0  0
  1 12  1  0  0  0  0
  2 13  1  0  0  0  0
  3 14  1  0  0  0  0
  5 15  1  0  0  0  0
  5 16  1  0  0  0  0
  6 17  1  0  0  0  0
  6 18  1  0  0  0  0
  7 19  1  0  0  0  0
  7 20  1  0  0  0  0
M  END
> <Mol Weight>
191,26

> <Formula>
C6H9NO2S2

> <ID>
EN300-175263

> <name>
Sulfonamides

> <LogP>
0,54

> <ROCS_ShapeQuery>
x0310_0A_x0719_0A_x1080_0A_x0739_0A_x0929_0A_x0526_0A_x0911_0A

> <ROCS_TanimotoCombo>
0.299 

> <ROCS_ShapeTanimoto>
0.135 

> <ROCS_ColorTanimoto>
0.164 

> <ROCS_RefTversky>
0.131 

> <ROCS_RefColorTversky>
0.167 

> <ROCS_RefTverskyCombo>
0.298 

> <ROCS_FitTversky>
1.272 

> <ROCS_FitColorTversky>
0.910 

> <ROCS_FitTverskyCombo>
2.181 

> <ROCS_ColorScore>
-4.837

> <ROCS_Overlap>
1047.857

> <ROCS_Rank>
424                 

$$$$
untitled-dbase-1510_2
  -OEChem-02092407103D

 19 19  0     0  0  0  0  0  0999 V2000
    9.7847   11.9658   23.7053 C   0  0  0  0  0  0  0  0  0  0  0  0
    8.4503   12.2187   23.4722 C   0  0  0  0  0  0  0  0  0  0  0  0
    7.6893   11.0271   23.6443 C   0  0  0  0  0  0  0  0  0  0  0  0
    6.2616   10.9170   23.4821 C   0  0  0  0  0  0  0  0  0  0  0  0
    4.3087    9.7392   24.2184 C   0  0  0  0  0  0  0  0  0  0  0  0
    8.3527    9.9241   23.9825 N   0  0  0  0  0  0  0  0  0  0  0  0
    9.2345   14.7232   23.0062 N   0  0  0  0  0  0  0  0  0  0  0  0
    5.5761   11.6097   22.7062 O   0  0  0  0  0  0  0  0  0  0  0  0
    7.2773   13.6963   21.6795 O   0  0  0  0  0  0  0  0  0  0  0  0
    6.9573   14.2537   24.1156 O   0  0  0  0  0  0  0  0  0  0  0  0
    5.7236    9.9456   24.2899 O   0  0  0  0  0  0  0  0  0  0  0  0
    9.9644   10.3103   24.1062 S   0  0  0  0  0  0  0  0  0  0  0  0
    7.8212   13.7515   23.0411 S   0  0  0  0  0  0  0  0  0  0  0  0
   10.6275   12.6418   23.6618 H   0  0  0  0  0  0  0  0  0  0  0  0
    4.0206    8.9429   24.9091 H   0  0  0  0  0  0  0  0  0  0  0  0
    4.0302    9.4684   23.1969 H   0  0  0  0  0  0  0  0  0  0  0  0
    3.7998   10.6642   24.4997 H   0  0  0  0  0  0  0  0  0  0  0  0
    9.6796   14.9683   23.8991 H   0  0  0  0  0  0  0  0  0  0  0  0
    9.8988   14.5899   22.2341 H   0  0  0  0  0  0  0  0  0  0  0  0
  1  2  2  0  0  0  0
  1 12  1  0  0  0  0
  2  3  1  0  0  0  0
  2 13  1  0  0  0  0
  3  4  1  0  0  0  0
  3  6  2  0  0  0  0
  4  8  2  0  0  0  0
  4 11  1  0  0  0  0
  5 11  1  0  0  0  0
  6 12  1  0  0  0  0
  7 13  1  0  0  0  0
  9 13  2  0  0  0  0
 10 13  2  0  0  0  0
  1 14  1  0  0  0  0
  5 15  1  0  0  0  0
  5 16  1  0  0  0  0
  5 17  1  0  0  0  0
  7 18  1  0  0  0  0
  7 19  1  0  0  0  0
M  END
> <Mol Weight>
222,23

> <Formula>
C5H6N2O4S2

> <ID>
EN300-1619020

> <name>
Sulfonamides

> <LogP>
-0,26

> <ROCS_ShapeQuery>
x0310_0A_x0719_0A_x1080_0A_x0739_0A_x0929_0A_x0526_0A_x0911_0A

> <ROCS_TanimotoCombo>
0.299 

> <ROCS_ShapeTanimoto>
0.134 

> <ROCS_ColorTanimoto>
0.165 

> <ROCS_RefTversky>
0.132 

> <ROCS_RefColorTversky>
0.177 

> <ROCS_RefTverskyCombo>
0.309 

> <ROCS_FitTversky>
1.133 

> <ROCS_FitColorTversky>
0.711 

> <ROCS_FitTverskyCombo>
1.845 

> <ROCS_ColorScore>
-5.135

> <ROCS_Overlap>
1056.780

> <ROCS_Rank>
425                 

$$$$
untitled-dbase-2309_107
  -OEChem-02092407103D

 25 25  0     0  0  0  0  0  0999 V2000
    9.6004   10.1154   23.2209 C   0  0  0  0  0  0  0  0  0  0  0  0
    9.8034   11.4449   22.8512 C   0  0  0  0  0  0  0  0  0  0  0  0
    8.6344    9.7965   24.1752 C   0  0  0  0  0  0  0  0  0  0  0  0
    8.0743   12.1368   24.3903 C   0  0  0  0  0  0  0  0  0  0  0  0
    9.0403   12.4556   23.4359 C   0  0  0  0  0  0  0  0  0  0  0  0
    7.8714   10.8072   24.7600 C   0  0  0  0  0  0  0  0  0  0  0  0
    9.7349   13.6754   20.4025 C   0  0  0  0  0  0  0  0  0  0  0  0
    7.2458   13.2024   25.0311 C   0  0  0  0  0  0  0  0  0  0  0  0
    6.4793   13.9497   24.0682 N   0  0  0  0  0  0  0  0  0  0  0  0
    9.2634   13.8123   23.0424 N   0  0  0  0  0  0  0  0  0  0  0  0
    7.3169   13.6489   21.3617 O   0  0  0  0  0  0  0  0  0  0  0  0
    8.6276   15.7977   21.4597 O   0  0  0  0  0  0  0  0  0  0  0  0
    6.9454   10.4905   25.6760 F   0  0  0  0  0  0  0  0  0  0  0  0
    8.5695   14.3531   21.5632 S   0  0  0  0  0  0  0  0  0  0  0  0
   10.1936    9.3279   22.7650 H   0  0  0  0  0  0  0  0  0  0  0  0
   10.5587   11.6819   22.1063 H   0  0  0  0  0  0  0  0  0  0  0  0
    8.4760    8.7612   24.4634 H   0  0  0  0  0  0  0  0  0  0  0  0
    9.4144   13.9457   19.3951 H   0  0  0  0  0  0  0  0  0  0  0  0
   10.7184   14.0962   20.6167 H   0  0  0  0  0  0  0  0  0  0  0  0
    9.7483   12.5910   20.5215 H   0  0  0  0  0  0  0  0  0  0  0  0
    6.5408   12.7711   25.7540 H   0  0  0  0  0  0  0  0  0  0  0  0
    7.8702   13.9178   25.5819 H   0  0  0  0  0  0  0  0  0  0  0  0
    5.8379   13.3371   23.6082 H   0  0  0  0  0  0  0  0  0  0  0  0
    5.9743   14.6730   24.5373 H   0  0  0  0  0  0  0  0  0  0  0  0
   10.2230   14.1503   23.2184 H   0  0  0  0  0  0  0  0  0  0  0  0
  1  2  2  0  0  0  0
  1  3  1  0  0  0  0
  2  5  1  0  0  0  0
  3  6  2  0  0  0  0
  4  5  2  0  0  0  0
  4  6  1  0  0  0  0
  4  8  1  0  0  0  0
  5 10  1  0  0  0  0
  6 13  1  0  0  0  0
  7 14  1  0  0  0  0
  8  9  1  0  0  0  0
 10 14  1  0  0  0  0
 11 14  2  0  0  0  0
 12 14  2  0  0  0  0
  1 15  1  0  0  0  0
  2 16  1  0  0  0  0
  3 17  1  0  0  0  0
  7 18  1  0  0  0  0
  7 19  1  0  0  0  0
  7 20  1  0  0  0  0
  8 21  1  0  0  0  0
  8 22  1  0  0  0  0
  9 23  1  0  0  0  0
  9 24  1  0  0  0  0
 10 25  1  0  0  0  0
M  END
> <Mol Weight>
254,70

> <Formula>
C8H12ClFN2O2S

> <ID>
EN300-103080

> <name>
Sulfonamides

> <LogP>
-0,89

> <ROCS_ShapeQuery>
x0310_0A_x0719_0A_x1080_0A_x0739_0A_x0929_0A_x0526_0A_x0911_0A

> <ROCS_TanimotoCombo>
0.299 

> <ROCS_ShapeTanimoto>
0.171 

> <ROCS_ColorTanimoto>
0.128 

> <ROCS_RefTversky>
0.164 

> <ROCS_RefColorTversky>
0.142 

> <ROCS_RefTverskyCombo>
0.305 

> <ROCS_FitTversky>
1.342 

> <ROCS_FitColorTversky>
0.570 

> <ROCS_FitTverskyCombo>
1.913 

> <ROCS_ColorScore>
-4.116

> <ROCS_Overlap>
1311.796

> <ROCS_Rank>
426                 

$$$$
untitled-dbase-1394_32
  -OEChem-02092407103D

 23 23  0     1  0  0  0  0  0999 V2000
    9.7087   10.6753   23.1392 C   0  0  0  0  0  0  0  0  0  0  0  0
    7.3914   11.2570   23.3818 C   0  0  0  0  0  0  0  0  0  0  0  0
   10.0727   11.8387   24.0530 C   0  0  0  0  0  0  0  0  0  0  0  0
    7.7985   12.4116   24.3012 C   0  0  2  0  0  0  0  0  0  0  0  0
    6.8314   13.5805   24.1743 C   0  0  0  0  0  0  0  0  0  0  0  0
    8.3734   10.1732   23.4661 N   0  0  0  0  0  0  0  0  0  0  0  0
    5.7006   15.3547   22.5542 N   0  0  0  0  0  0  0  0  0  0  0  0
    8.2033   15.5382   23.1196 O   0  0  0  0  0  0  0  0  0  0  0  0
    7.4025   13.6639   21.6259 O   0  0  0  0  0  0  0  0  0  0  0  0
    9.1030   12.8817   23.9405 O   0  0  0  0  0  0  0  0  0  0  0  0
    7.1944   14.5560   22.7554 S   0  0  0  0  0  0  0  0  0  0  0  0
    9.7301   10.9985   22.0913 H   0  0  0  0  0  0  0  0  0  0  0  0
   10.4399    9.8687   23.2548 H   0  0  0  0  0  0  0  0  0  0  0  0
    6.4079   10.8730   23.6735 H   0  0  0  0  0  0  0  0  0  0  0  0
    7.3196   11.5982   22.3414 H   0  0  0  0  0  0  0  0  0  0  0  0
   10.1491   11.5224   25.1005 H   0  0  0  0  0  0  0  0  0  0  0  0
   11.0427   12.2531   23.7607 H   0  0  0  0  0  0  0  0  0  0  0  0
    7.8181   12.0840   25.3490 H   0  0  0  0  0  0  0  0  0  0  0  0
    6.9017   14.2301   25.0467 H   0  0  0  0  0  0  0  0  0  0  0  0
    5.8081   13.2195   24.0724 H   0  0  0  0  0  0  0  0  0  0  0  0
    8.3762    9.7905   24.4110 H   0  0  0  0  0  0  0  0  0  0  0  0
    5.6630   16.3584   22.7708 H   0  0  0  0  0  0  0  0  0  0  0  0
    5.1175   15.0817   21.7536 H   0  0  0  0  0  0  0  0  0  0  0  0
  1  3  1  0  0  0  0
  1  6  1  0  0  0  0
  2  4  1  0  0  0  0
  2  6  1  0  0  0  0
  3 10  1  0  0  0  0
  4  5  1  1  0  0  0
  4 10  1  0  0  0  0
  5 11  1  0  0  0  0
  7 11  1  0  0  0  0
  8 11  2  0  0  0  0
  9 11  2  0  0  0  0
  1 12  1  0  0  0  0
  1 13  1  0  0  0  0
  2 14  1  0  0  0  0
  2 15  1  0  0  0  0
  3 16  1  0  0  0  0
  3 17  1  0  0  0  0
  4 18  1  0  0  0  0
  5 19  1  0  0  0  0
  5 20  1  0  0  0  0
  6 21  1  0  0  0  0
  7 22  1  0  0  0  0
  7 23  1  0  0  0  0
M  END
> <Mol Weight>
216,68

> <Formula>
C5H13ClN2O3S

> <ID>
EN300-33051352

> <name>
Sulfonamides

> <LogP>
-1,91

> <ROCS_ShapeQuery>
x0310_0A_x0719_0A_x1080_0A_x0739_0A_x0929_0A_x0526_0A_x0911_0A

> <ROCS_TanimotoCombo>
0.299 

> <ROCS_ShapeTanimoto>
0.156 

> <ROCS_ColorTanimoto>
0.143 

> <ROCS_RefTversky>
0.149 

> <ROCS_RefColorTversky>
0.160 

> <ROCS_RefTverskyCombo>
0.309 

> <ROCS_FitTversky>
1.421 

> <ROCS_FitColorTversky>
0.572 

> <ROCS_FitTverskyCombo>
1.993 

> <ROCS_ColorScore>
-4.671

> <ROCS_Overlap>
1190.171

> <ROCS_Rank>
427                 

$$$$
untitled-dbase-1063_5
  -OEChem-02092407103D

 19 19  0     0  0  0  0  0  0999 V2000
    9.7903   10.5718   24.2107 C   0  0  0  0  0  0  0  0  0  0  0  0
    8.4432   10.2986   24.4206 C   0  0  0  0  0  0  0  0  0  0  0  0
   10.1155   11.6118   23.3549 C   0  0  0  0  0  0  0  0  0  0  0  0
    7.4761   11.0631   23.7774 C   0  0  0  0  0  0  0  0  0  0  0  0
    7.9049   12.0812   22.9411 C   0  0  0  0  0  0  0  0  0  0  0  0
    6.9219   12.9440   22.2175 C   0  0  0  0  0  0  0  0  0  0  0  0
    9.2043   12.3763   22.7124 N   0  0  0  0  0  0  0  0  0  0  0  0
    5.9699   15.3917   21.8258 N   0  0  0  0  0  0  0  0  0  0  0  0
    6.7954   14.6887   24.1584 O   0  0  0  0  0  0  0  0  0  0  0  0
    8.4736   15.0446   22.3031 O   0  0  0  0  0  0  0  0  0  0  0  0
    7.1641   14.6052   22.7550 S   0  0  0  0  0  0  0  0  0  0  0  0
    5.8103   10.7225   24.0386 Cl  0  0  0  0  0  0  0  0  0  0  0  0
   10.5609    9.9881   24.7011 H   0  0  0  0  0  0  0  0  0  0  0  0
    8.1631    9.4877   25.0878 H   0  0  0  0  0  0  0  0  0  0  0  0
   11.1519   11.8654   23.1578 H   0  0  0  0  0  0  0  0  0  0  0  0
    5.8868   12.6639   22.4373 H   0  0  0  0  0  0  0  0  0  0  0  0
    7.0668   12.9142   21.1328 H   0  0  0  0  0  0  0  0  0  0  0  0
    5.1410   15.7491   22.3165 H   0  0  0  0  0  0  0  0  0  0  0  0
    6.2840   15.9913   21.0529 H   0  0  0  0  0  0  0  0  0  0  0  0
  1  2  2  0  0  0  0
  1  3  1  0  0  0  0
  2  4  1  0  0  0  0
  3  7  2  0  0  0  0
  4  5  2  0  0  0  0
  4 12  1  0  0  0  0
  5  6  1  0  0  0  0
  5  7  1  0  0  0  0
  6 11  1  0  0  0  0
  8 11  1  0  0  0  0
  9 11  2  0  0  0  0
 10 11  2  0  0  0  0
  1 13  1  0  0  0  0
  2 14  1  0  0  0  0
  3 15  1  0  0  0  0
  6 16  1  0  0  0  0
  6 17  1  0  0  0  0
  8 18  1  0  0  0  0
  8 19  1  0  0  0  0
M  END
> <Mol Weight>
206,64

> <Formula>
C6H7ClN2O2S

> <ID>
EN300-1120923

> <name>
Sulfonamides

> <LogP>
0,11

> <ROCS_ShapeQuery>
x0310_0A_x0719_0A_x1080_0A_x0739_0A_x0929_0A_x0526_0A_x0911_0A

> <ROCS_TanimotoCombo>
0.299 

> <ROCS_ShapeTanimoto>
0.150 

> <ROCS_ColorTanimoto>
0.148 

> <ROCS_RefTversky>
0.145 

> <ROCS_RefColorTversky>
0.157 

> <ROCS_RefTverskyCombo>
0.302 

> <ROCS_FitTversky>
1.307 

> <ROCS_FitColorTversky>
0.727 

> <ROCS_FitTverskyCombo>
2.034 

> <ROCS_ColorScore>
-4.557

> <ROCS_Overlap>
1160.943

> <ROCS_Rank>
428                 

$$$$
untitled-dbase-2370_17
  -OEChem-02092407103D

 21 21  0     0  0  0  0  0  0999 V2000
    9.6786   10.4000   22.8813 C   0  0  0  0  0  0  0  0  0  0  0  0
    9.0436   11.4007   22.1458 C   0  0  0  0  0  0  0  0  0  0  0  0
    9.4388   10.2818   24.2503 C   0  0  0  0  0  0  0  0  0  0  0  0
    8.1687   12.2833   22.7794 C   0  0  0  0  0  0  0  0  0  0  0  0
    8.5639   11.1643   24.8838 C   0  0  0  0  0  0  0  0  0  0  0  0
    7.9289   12.1651   24.1484 C   0  0  0  0  0  0  0  0  0  0  0  0
    8.2140   14.5096   21.9113 C   0  0  0  0  0  0  0  0  0  0  0  0
    5.3564   12.4224   24.7972 N   0  0  0  0  0  0  0  0  0  0  0  0
    7.1976   13.3073   26.3696 O   0  0  0  0  0  0  0  0  0  0  0  0
    6.7626   14.4937   24.1900 O   0  0  0  0  0  0  0  0  0  0  0  0
    7.5599   13.2531   22.0410 O   0  0  0  0  0  0  0  0  0  0  0  0
    8.3423   11.0400   26.2000 F   0  0  0  0  0  0  0  0  0  0  0  0
    8.9640   14.7821   23.0001 F   0  0  0  0  0  0  0  0  0  0  0  0
    7.2765   15.4779   21.7985 F   0  0  0  0  0  0  0  0  0  0  0  0
    8.9837   14.5453   20.8029 F   0  0  0  0  0  0  0  0  0  0  0  0
    6.8347   13.2619   24.9613 S   0  0  0  0  0  0  0  0  0  0  0  0
   10.3599    9.7129   22.3881 H   0  0  0  0  0  0  0  0  0  0  0  0
    9.2352   11.4870   21.0797 H   0  0  0  0  0  0  0  0  0  0  0  0
    9.9332    9.5028   24.8231 H   0  0  0  0  0  0  0  0  0  0  0  0
    4.9518   11.9913   25.6375 H   0  0  0  0  0  0  0  0  0  0  0  0
    4.6569   12.8015   24.1474 H   0  0  0  0  0  0  0  0  0  0  0  0
  1  2  2  0  0  0  0
  1  3  1  0  0  0  0
  2  4  1  0  0  0  0
  3  5  2  0  0  0  0
  4  6  2  0  0  0  0
  4 11  1  0  0  0  0
  5  6  1  0  0  0  0
  5 12  1  0  0  0  0
  6 16  1  0  0  0  0
  7 11  1  0  0  0  0
  7 13  1  0  0  0  0
  7 14  1  0  0  0  0
  7 15  1  0  0  0  0
  8 16  1  0  0  0  0
  9 16  2  0  0  0  0
 10 16  2  0  0  0  0
  1 17  1  0  0  0  0
  2 18  1  0  0  0  0
  3 19  1  0  0  0  0
  8 20  1  0  0  0  0
  8 21  1  0  0  0  0
M  END
> <Mol Weight>
259,17

> <Formula>
C7H5F4NO3S

> <ID>
EN300-212468

> <name>
Sulfonamides

> <LogP>
2,15

> <ROCS_ShapeQuery>
x0310_0A_x0719_0A_x1080_0A_x0739_0A_x0929_0A_x0526_0A_x0911_0A

> <ROCS_TanimotoCombo>
0.298 

> <ROCS_ShapeTanimoto>
0.170 

> <ROCS_ColorTanimoto>
0.129 

> <ROCS_RefTversky>
0.165 

> <ROCS_RefColorTversky>
0.139 

> <ROCS_RefTverskyCombo>
0.303 

> <ROCS_FitTversky>
1.210 

> <ROCS_FitColorTversky>
0.642 

> <ROCS_FitTverskyCombo>
1.852 

> <ROCS_ColorScore>
-4.024

> <ROCS_Overlap>
1320.473

> <ROCS_Rank>
429                 

$$$$
untitled-dbase-1655_458
  -OEChem-02092407103D

 31 30  0     0  0  0  0  0  0999 V2000
    7.9251   14.8560   25.3774 C   0  0  0  0  0  0  0  0  0  0  0  0
    8.6254   13.5379   23.5621 C   0  0  0  0  0  0  0  0  0  0  0  0
    8.1274   12.6143   22.4672 C   0  0  0  0  0  0  0  0  0  0  0  0
    6.3843   12.4405   20.9006 C   0  0  0  0  0  0  0  0  0  0  0  0
    5.4233   13.2550   20.0563 C   0  0  0  0  0  0  0  0  0  0  0  0
    3.4154   13.0130   18.8593 C   0  0  0  0  0  0  0  0  0  0  0  0
    2.3522   11.9854   18.5237 C   0  0  0  0  0  0  0  0  0  0  0  0
   -0.2385   11.4660   18.2598 N   0  0  0  0  0  0  0  0  0  0  0  0
    0.5417   13.8293   18.9100 O   0  0  0  0  0  0  0  0  0  0  0  0
    0.9491   12.9900   16.5616 O   0  0  0  0  0  0  0  0  0  0  0  0
    7.5141   14.0007   24.3199 O   0  0  0  0  0  0  0  0  0  0  0  0
    7.2182   13.3254   21.6387 O   0  0  0  0  0  0  0  0  0  0  0  0
    4.6039   12.3712   19.3035 O   0  0  0  0  0  0  0  0  0  0  0  0
    0.8512   12.7489   17.9903 S   0  0  0  0  0  0  0  0  0  0  0  0
    7.0486   15.1918   25.9370 H   0  0  0  0  0  0  0  0  0  0  0  0
    8.4589   15.7159   24.9651 H   0  0  0  0  0  0  0  0  0  0  0  0
    8.5902   14.3023   26.0443 H   0  0  0  0  0  0  0  0  0  0  0  0
    9.1372   14.4087   23.1411 H   0  0  0  0  0  0  0  0  0  0  0  0
    9.3009   13.0032   24.2361 H   0  0  0  0  0  0  0  0  0  0  0  0
    7.6019   11.7511   22.8876 H   0  0  0  0  0  0  0  0  0  0  0  0
    8.9607   12.2720   21.8466 H   0  0  0  0  0  0  0  0  0  0  0  0
    7.0245   11.8120   20.2740 H   0  0  0  0  0  0  0  0  0  0  0  0
    5.8349   11.8153   21.6104 H   0  0  0  0  0  0  0  0  0  0  0  0
    5.9627   13.8999   19.3554 H   0  0  0  0  0  0  0  0  0  0  0  0
    4.7754   13.8639   20.6935 H   0  0  0  0  0  0  0  0  0  0  0  0
    3.6653   13.6073   17.9749 H   0  0  0  0  0  0  0  0  0  0  0  0
    3.0810   13.6948   19.6472 H   0  0  0  0  0  0  0  0  0  0  0  0
    2.0958   11.3697   19.3906 H   0  0  0  0  0  0  0  0  0  0  0  0
    2.6804   11.3409   17.7034 H   0  0  0  0  0  0  0  0  0  0  0  0
   -0.1849   10.6531   17.6337 H   0  0  0  0  0  0  0  0  0  0  0  0
   -0.4624   11.2250   19.2331 H   0  0  0  0  0  0  0  0  0  0  0  0
  1 11  1  0  0  0  0
  2  3  1  0  0  0  0
  2 11  1  0  0  0  0
  3 12  1  0  0  0  0
  4  5  1  0  0  0  0
  4 12  1  0  0  0  0
  5 13  1  0  0  0  0
  6  7  1  0  0  0  0
  6 13  1  0  0  0  0
  7 14  1  0  0  0  0
  8 14  1  0  0  0  0
  9 14  2  0  0  0  0
 10 14  2  0  0  0  0
  1 15  1  0  0  0  0
  1 16  1  0  0  0  0
  1 17  1  0  0  0  0
  2 18  1  0  0  0  0
  2 19  1  0  0  0  0
  3 20  1  0  0  0  0
  3 21  1  0  0  0  0
  4 22  1  0  0  0  0
  4 23  1  0  0  0  0
  5 24  1  0  0  0  0
  5 25  1  0  0  0  0
  6 26  1  0  0  0  0
  6 27  1  0  0  0  0
  7 28  1  0  0  0  0
  7 29  1  0  0  0  0
  8 30  1  0  0  0  0
  8 31  1  0  0  0  0
M  END
> <Mol Weight>
227,28

> <Formula>
C7H17NO5S

> <ID>
EN300-761801

> <name>
Sulfonamides

> <LogP>
-1,52

> <ROCS_ShapeQuery>
x0310_0A_x0719_0A_x1080_0A_x0739_0A_x0929_0A_x0526_0A_x0911_0A

> <ROCS_TanimotoCombo>
0.298 

> <ROCS_ShapeTanimoto>
0.171 

> <ROCS_ColorTanimoto>
0.127 

> <ROCS_RefTversky>
0.163 

> <ROCS_RefColorTversky>
0.141 

> <ROCS_RefTverskyCombo>
0.304 

> <ROCS_FitTversky>
1.404 

> <ROCS_FitColorTversky>
0.567 

> <ROCS_FitTverskyCombo>
1.971 

> <ROCS_ColorScore>
-4.096

> <ROCS_Overlap>
1305.088

> <ROCS_Rank>
430                 

$$$$
untitled-dbase-720_41
  -OEChem-02092407103D

 25 25  0     1  0  0  0  0  0999 V2000
    8.9030    9.9071   24.6988 C   0  0  0  0  0  0  0  0  0  0  0  0
    8.9357   11.3063   25.2902 C   0  0  0  0  0  0  0  0  0  0  0  0
    8.7008   10.8211   22.5407 C   0  0  0  0  0  0  0  0  0  0  0  0
    8.7289   12.2288   23.1305 C   0  0  2  0  0  0  0  0  0  0  0  0
    9.3690   13.2213   22.1733 C   0  0  0  0  0  0  0  0  0  0  0  0
    9.4351   14.6133   22.7790 C   0  0  0  0  0  0  0  0  0  0  0  0
    6.9492   14.6454   21.8460 N   0  0  0  0  0  0  0  0  0  0  0  0
    7.3725   14.5023   24.3792 O   0  0  0  0  0  0  0  0  0  0  0  0
    7.8580   16.6616   23.1597 O   0  0  0  0  0  0  0  0  0  0  0  0
    8.1381    9.9126   23.4915 O   0  0  0  0  0  0  0  0  0  0  0  0
    9.4953   12.2177   24.3419 O   0  0  0  0  0  0  0  0  0  0  0  0
    7.8270   15.2096   23.1944 S   0  0  0  0  0  0  0  0  0  0  0  0
    9.9138    9.5473   24.4742 H   0  0  0  0  0  0  0  0  0  0  0  0
    8.4358    9.2062   25.3967 H   0  0  0  0  0  0  0  0  0  0  0  0
    7.9289   11.6484   25.5561 H   0  0  0  0  0  0  0  0  0  0  0  0
    9.5553   11.3275   26.1915 H   0  0  0  0  0  0  0  0  0  0  0  0
    8.0827   10.7899   21.6379 H   0  0  0  0  0  0  0  0  0  0  0  0
    9.7066   10.4721   22.2780 H   0  0  0  0  0  0  0  0  0  0  0  0
    7.7115   12.5606   23.3728 H   0  0  0  0  0  0  0  0  0  0  0  0
    8.7953   13.2463   21.2396 H   0  0  0  0  0  0  0  0  0  0  0  0
   10.3773   12.8775   21.9148 H   0  0  0  0  0  0  0  0  0  0  0  0
   10.0242   14.6192   23.7009 H   0  0  0  0  0  0  0  0  0  0  0  0
    9.8696   15.3325   22.0783 H   0  0  0  0  0  0  0  0  0  0  0  0
    6.2919   13.8697   21.9938 H   0  0  0  0  0  0  0  0  0  0  0  0
    6.6227   15.3403   21.1633 H   0  0  0  0  0  0  0  0  0  0  0  0
  1  2  1  0  0  0  0
  1 10  1  0  0  0  0
  2 11  1  0  0  0  0
  3  4  1  0  0  0  0
  3 10  1  0  0  0  0
  4  5  1  0  0  0  0
  4 11  1  0  0  0  0
  5  6  1  0  0  0  0
  6 12  1  0  0  0  0
  7 12  1  0  0  0  0
  8 12  2  0  0  0  0
  9 12  2  0  0  0  0
  1 13  1  0  0  0  0
  1 14  1  0  0  0  0
  2 15  1  0  0  0  0
  2 16  1  0  0  0  0
  3 17  1  0  0  0  0
  3 18  1  0  0  0  0
  4 19  1  0  0  0  0
  5 20  1  0  0  0  0
  5 21  1  0  0  0  0
  6 22  1  0  0  0  0
  6 23  1  0  0  0  0
  7 24  1  0  0  0  0
  7 25  1  0  0  0  0
M  END
> <Mol Weight>
195,23

> <Formula>
C6H13NO4S

> <ID>
EN300-1699658

> <name>
Sulfonamides

> <LogP>
-1,53

> <ROCS_ShapeQuery>
x0310_0A_x0719_0A_x1080_0A_x0739_0A_x0929_0A_x0526_0A_x0911_0A

> <ROCS_TanimotoCombo>
0.298 

> <ROCS_ShapeTanimoto>
0.150 

> <ROCS_ColorTanimoto>
0.148 

> <ROCS_RefTversky>
0.145 

> <ROCS_RefColorTversky>
0.161 

> <ROCS_RefTverskyCombo>
0.306 

> <ROCS_FitTversky>
1.321 

> <ROCS_FitColorTversky>
0.649 

> <ROCS_FitTverskyCombo>
1.970 

> <ROCS_ColorScore>
-4.683

> <ROCS_Overlap>
1158.667

> <ROCS_Rank>
431                 

$$$$
untitled-dbase-1775_139
  -OEChem-02092407103D

 28 28  0     0  0  0  0  0  0999 V2000
    3.7814   11.9358   20.5182 C   0  0  0  0  0  0  0  0  0  0  0  0
    4.1909   10.8417   18.4034 C   0  0  0  0  0  0  0  0  0  0  0  0
    2.5899   12.4595   20.0166 C   0  0  0  0  0  0  0  0  0  0  0  0
    2.9994   11.3654   17.9018 C   0  0  0  0  0  0  0  0  0  0  0  0
    4.5820   11.1269   19.7116 C   0  0  0  0  0  0  0  0  0  0  0  0
    2.1989   12.1743   18.7084 C   0  0  0  0  0  0  0  0  0  0  0  0
    6.5348   14.1186   22.4796 C   0  0  0  0  0  0  0  0  0  0  0  0
    6.4248   11.3831   21.1928 C   0  0  0  0  0  0  0  0  0  0  0  0
    6.8029   12.7285   20.6038 C   0  0  0  0  0  0  0  0  0  0  0  0
   -0.3954   11.5970   18.5052 N   0  0  0  0  0  0  0  0  0  0  0  0
    0.3815   14.0330   18.8337 O   0  0  0  0  0  0  0  0  0  0  0  0
    0.8046   12.8908   16.6283 O   0  0  0  0  0  0  0  0  0  0  0  0
    5.7445   10.6154   20.2012 O   0  0  0  0  0  0  0  0  0  0  0  0
    7.4632   13.5017   21.5987 O   0  0  0  0  0  0  0  0  0  0  0  0
    0.7076   12.8306   18.0800 S   0  0  0  0  0  0  0  0  0  0  0  0
    4.0805   12.1609   21.5384 H   0  0  0  0  0  0  0  0  0  0  0  0
    4.8103   10.2123   17.7703 H   0  0  0  0  0  0  0  0  0  0  0  0
    1.9740   13.0885   20.6536 H   0  0  0  0  0  0  0  0  0  0  0  0
    2.7042   11.1372   16.8812 H   0  0  0  0  0  0  0  0  0  0  0  0
    7.0750   14.7027   23.2287 H   0  0  0  0  0  0  0  0  0  0  0  0
    5.9291   13.3510   22.9679 H   0  0  0  0  0  0  0  0  0  0  0  0
    5.8846   14.7813   21.9036 H   0  0  0  0  0  0  0  0  0  0  0  0
    5.7555   11.5020   22.0504 H   0  0  0  0  0  0  0  0  0  0  0  0
    7.3201   10.8333   21.4973 H   0  0  0  0  0  0  0  0  0  0  0  0
    5.9156   13.2797   20.2770 H   0  0  0  0  0  0  0  0  0  0  0  0
    7.4875   12.5985   19.7605 H   0  0  0  0  0  0  0  0  0  0  0  0
   -1.0658   11.7891   19.2596 H   0  0  0  0  0  0  0  0  0  0  0  0
   -0.7743   11.0089   17.7530 H   0  0  0  0  0  0  0  0  0  0  0  0
  1  3  2  0  0  0  0
  1  5  1  0  0  0  0
  2  4  1  0  0  0  0
  2  5  2  0  0  0  0
  3  6  1  0  0  0  0
  4  6  2  0  0  0  0
  5 13  1  0  0  0  0
  6 15  1  0  0  0  0
  7 14  1  0  0  0  0
  8  9  1  0  0  0  0
  8 13  1  0  0  0  0
  9 14  1  0  0  0  0
 10 15  1  0  0  0  0
 11 15  2  0  0  0  0
 12 15  2  0  0  0  0
  1 16  1  0  0  0  0
  2 17  1  0  0  0  0
  3 18  1  0  0  0  0
  4 19  1  0  0  0  0
  7 20  1  0  0  0  0
  7 21  1  0  0  0  0
  7 22  1  0  0  0  0
  8 23  1  0  0  0  0
  8 24  1  0  0  0  0
  9 25  1  0  0  0  0
  9 26  1  0  0  0  0
 10 27  1  0  0  0  0
 10 28  1  0  0  0  0
M  END
> <Mol Weight>
231,27

> <Formula>
C9H13NO4S

> <ID>
EN300-1618081

> <name>
Sulfonamides

> <LogP>
0,37

> <ROCS_ShapeQuery>
x0310_0A_x0719_0A_x1080_0A_x0739_0A_x0929_0A_x0526_0A_x0911_0A

> <ROCS_TanimotoCombo>
0.298 

> <ROCS_ShapeTanimoto>
0.168 

> <ROCS_ColorTanimoto>
0.130 

> <ROCS_RefTversky>
0.162 

> <ROCS_RefColorTversky>
0.144 

> <ROCS_RefTverskyCombo>
0.306 

> <ROCS_FitTversky>
1.287 

> <ROCS_FitColorTversky>
0.578 

> <ROCS_FitTverskyCombo>
1.865 

> <ROCS_ColorScore>
-4.174

> <ROCS_Overlap>
1298.892

> <ROCS_Rank>
432                 

$$$$
untitled-dbase-2046_61
  -OEChem-02092407103D

 30 30  0     0  0  0  0  0  0999 V2000
    5.1239   12.6154   19.8202 C   0  0  0  0  0  0  0  0  0  0  0  0
    3.7167   13.9112   21.2959 C   0  0  0  0  0  0  0  0  0  0  0  0
    3.9911   12.0369   19.2478 C   0  0  0  0  0  0  0  0  0  0  0  0
    2.5838   13.3327   20.7234 C   0  0  0  0  0  0  0  0  0  0  0  0
    4.9867   13.5524   20.8443 C   0  0  0  0  0  0  0  0  0  0  0  0
    2.7210   12.3956   19.6994 C   0  0  0  0  0  0  0  0  0  0  0  0
    6.1678   14.1562   21.4405 C   0  0  0  0  0  0  0  0  0  0  0  0
    7.3596   15.7026   23.9939 C   0  0  0  0  0  0  0  0  0  0  0  0
   -0.9415   11.8332   18.1408 C   0  0  0  0  0  0  0  0  0  0  0  0
    7.1009   16.1720   22.6027 C   0  0  0  0  0  0  0  0  0  0  0  0
    1.5614   11.8029   19.1140 N   0  0  0  0  0  0  0  0  0  0  0  0
    6.0178   15.4323   21.9957 N   0  0  0  0  0  0  0  0  0  0  0  0
    7.2578   13.5569   21.4282 O   0  0  0  0  0  0  0  0  0  0  0  0
    0.2834   14.0240   18.8242 O   0  0  0  0  0  0  0  0  0  0  0  0
    1.0497   12.8118   16.7534 O   0  0  0  0  0  0  0  0  0  0  0  0
    0.5596   12.7873   18.1173 S   0  0  0  0  0  0  0  0  0  0  0  0
    6.1086   12.3290   19.4601 H   0  0  0  0  0  0  0  0  0  0  0  0
    3.5972   14.6409   22.0925 H   0  0  0  0  0  0  0  0  0  0  0  0
    4.1092   11.3073   18.4507 H   0  0  0  0  0  0  0  0  0  0  0  0
    1.5988   13.6196   21.0829 H   0  0  0  0  0  0  0  0  0  0  0  0
    7.6242   14.6351   23.9780 H   0  0  0  0  0  0  0  0  0  0  0  0
    8.1899   16.2797   24.4270 H   0  0  0  0  0  0  0  0  0  0  0  0
    6.4555   15.8471   24.6035 H   0  0  0  0  0  0  0  0  0  0  0  0
   -1.6872   12.3494   17.5341 H   0  0  0  0  0  0  0  0  0  0  0  0
   -0.7288   10.8462   17.7272 H   0  0  0  0  0  0  0  0  0  0  0  0
   -1.2805   11.7500   19.1745 H   0  0  0  0  0  0  0  0  0  0  0  0
    6.8372   17.2396   22.6272 H   0  0  0  0  0  0  0  0  0  0  0  0
    8.0117   16.0330   22.0017 H   0  0  0  0  0  0  0  0  0  0  0  0
    1.7081   10.8428   18.7611 H   0  0  0  0  0  0  0  0  0  0  0  0
    5.1215   15.9026   21.9229 H   0  0  0  0  0  0  0  0  0  0  0  0
  1  3  2  0  0  0  0
  1  5  1  0  0  0  0
  2  4  1  0  0  0  0
  2  5  2  0  0  0  0
  3  6  1  0  0  0  0
  4  6  2  0  0  0  0
  5  7  1  0  0  0  0
  6 11  1  0  0  0  0
  7 12  1  0  0  0  0
  7 13  2  0  0  0  0
  8 10  1  0  0  0  0
  9 16  1  0  0  0  0
 10 12  1  0  0  0  0
 11 16  1  0  0  0  0
 14 16  2  0  0  0  0
 15 16  2  0  0  0  0
  1 17  1  0  0  0  0
  2 18  1  0  0  0  0
  3 19  1  0  0  0  0
  4 20  1  0  0  0  0
  8 21  1  0  0  0  0
  8 22  1  0  0  0  0
  8 23  1  0  0  0  0
  9 24  1  0  0  0  0
  9 25  1  0  0  0  0
  9 26  1  0  0  0  0
 10 27  1  0  0  0  0
 10 28  1  0  0  0  0
 11 29  1  0  0  0  0
 12 30  1  0  0  0  0
M  END
> <Mol Weight>
242,29

> <Formula>
C10H14N2O3S

> <ID>
EN300-6722605

> <name>
Sulfonamides

> <LogP>
-0,22

> <ROCS_ShapeQuery>
x0310_0A_x0719_0A_x1080_0A_x0739_0A_x0929_0A_x0526_0A_x0911_0A

> <ROCS_TanimotoCombo>
0.298 

> <ROCS_ShapeTanimoto>
0.173 

> <ROCS_ColorTanimoto>
0.126 

> <ROCS_RefTversky>
0.167 

> <ROCS_RefColorTversky>
0.139 

> <ROCS_RefTverskyCombo>
0.306 

> <ROCS_FitTversky>
1.264 

> <ROCS_FitColorTversky>
0.561 

> <ROCS_FitTverskyCombo>
1.825 

> <ROCS_ColorScore>
-4.049

> <ROCS_Overlap>
1334.765

> <ROCS_Rank>
433                 

$$$$
untitled-dbase-2762_2
  -OEChem-02092407103D

 25 26  0     0  0  0  0  0  0999 V2000
    7.7284   10.7594   21.2736 C   0  0  0  0  0  0  0  0  0  0  0  0
    6.7663   12.9682   21.0985 C   0  0  0  0  0  0  0  0  0  0  0  0
    8.2961   11.0920   22.5105 C   0  0  0  0  0  0  0  0  0  0  0  0
    8.1109   12.3839   23.0215 C   0  0  0  0  0  0  0  0  0  0  0  0
    7.3361   13.3135   22.3231 C   0  0  0  0  0  0  0  0  0  0  0  0
    6.9655   11.6936   20.5720 C   0  0  0  0  0  0  0  0  0  0  0  0
    9.1153   10.0768   23.2555 C   0  0  0  0  0  0  0  0  0  0  0  0
    9.2945   10.5007   24.7068 C   0  0  0  0  0  0  0  0  0  0  0  0
    9.6646   11.9746   24.7534 C   0  0  0  0  0  0  0  0  0  0  0  0
    6.0964   15.5918   21.7088 N   0  0  0  0  0  0  0  0  0  0  0  0
    6.2740   14.8186   24.1616 O   0  0  0  0  0  0  0  0  0  0  0  0
    8.3419   15.6271   22.9710 O   0  0  0  0  0  0  0  0  0  0  0  0
    8.6281   12.8055   24.2200 O   0  0  0  0  0  0  0  0  0  0  0  0
    7.0668   14.9277   22.9471 S   0  0  0  0  0  0  0  0  0  0  0  0
    6.1994   11.2278   18.9081 Br  0  0  0  0  0  0  0  0  0  0  0  0
    7.8834    9.7626   20.8661 H   0  0  0  0  0  0  0  0  0  0  0  0
    6.1690   13.6975   20.5559 H   0  0  0  0  0  0  0  0  0  0  0  0
    8.6326    9.0935   23.2215 H   0  0  0  0  0  0  0  0  0  0  0  0
   10.0942    9.9916   22.7688 H   0  0  0  0  0  0  0  0  0  0  0  0
    8.3528   10.3463   25.2487 H   0  0  0  0  0  0  0  0  0  0  0  0
   10.0639    9.8889   25.1887 H   0  0  0  0  0  0  0  0  0  0  0  0
    9.8204   12.2817   25.7930 H   0  0  0  0  0  0  0  0  0  0  0  0
   10.5973   12.1746   24.2116 H   0  0  0  0  0  0  0  0  0  0  0  0
    5.1021   15.7527   21.9110 H   0  0  0  0  0  0  0  0  0  0  0  0
    6.5161   16.3030   21.0978 H   0  0  0  0  0  0  0  0  0  0  0  0
  1  3  2  0  0  0  0
  1  6  1  0  0  0  0
  2  5  1  0  0  0  0
  2  6  2  0  0  0  0
  3  4  1  0  0  0  0
  3  7  1  0  0  0  0
  4  5  2  0  0  0  0
  4 13  1  0  0  0  0
  5 14  1  0  0  0  0
  6 15  1  0  0  0  0
  7  8  1  0  0  0  0
  8  9  1  0  0  0  0
  9 13  1  0  0  0  0
 10 14  1  0  0  0  0
 11 14  2  0  0  0  0
 12 14  2  0  0  0  0
  1 16  1  0  0  0  0
  2 17  1  0  0  0  0
  7 18  1  0  0  0  0
  7 19  1  0  0  0  0
  8 20  1  0  0  0  0
  8 21  1  0  0  0  0
  9 22  1  0  0  0  0
  9 23  1  0  0  0  0
 10 24  1  0  0  0  0
 10 25  1  0  0  0  0
M  END
> <Mol Weight>
292,15

> <Formula>
C9H10BrNO3S

> <ID>
EN300-4805181

> <name>
Sulfonamides

> <LogP>
1,67

> <ROCS_ShapeQuery>
x0310_0A_x0719_0A_x1080_0A_x0739_0A_x0929_0A_x0526_0A_x0911_0A

> <ROCS_TanimotoCombo>
0.298 

> <ROCS_ShapeTanimoto>
0.152 

> <ROCS_ColorTanimoto>
0.146 

> <ROCS_RefTversky>
0.149 

> <ROCS_RefColorTversky>
0.163 

> <ROCS_RefTverskyCombo>
0.312 

> <ROCS_FitTversky>
1.162 

> <ROCS_FitColorTversky>
0.581 

> <ROCS_FitTverskyCombo>
1.742 

> <ROCS_ColorScore>
-4.748

> <ROCS_Overlap>
1193.751

> <ROCS_Rank>
434                 

$$$$
untitled-dbase-2105_0
  -OEChem-02092407103D

 23 23  0     0  0  0  0  0  0999 V2000
    3.6711   14.6961   21.3182 C   0  0  0  0  0  0  0  0  0  0  0  0
    2.5255   14.3504   20.6015 C   0  0  0  0  0  0  0  0  0  0  0  0
    4.8874   12.9118   20.2348 C   0  0  0  0  0  0  0  0  0  0  0  0
    4.8521   13.9769   21.1349 C   0  0  0  0  0  0  0  0  0  0  0  0
    3.7418   12.5661   19.5181 C   0  0  0  0  0  0  0  0  0  0  0  0
    2.5608   13.2854   19.7015 C   0  0  0  0  0  0  0  0  0  0  0  0
    6.0458   14.3384   21.8828 C   0  0  0  0  0  0  0  0  0  0  0  0
    5.9561   15.4090   22.7677 N   0  0  0  0  0  0  0  0  0  0  0  0
    0.3805   11.7639   19.8911 N   0  0  0  0  0  0  0  0  0  0  0  0
    3.8092   11.4745   18.6082 N   0  3  0  0  0  0  0  0  0  0  0  0
    3.5441   10.3222   19.0243 O   0  5  0  0  0  0  0  0  0  0  0  0
    7.1174   13.7266   21.7287 O   0  0  0  0  0  0  0  0  0  0  0  0
    4.1321   11.6979   17.4177 O   0  0  0  0  0  0  0  0  0  0  0  0
    0.2663   14.0801   18.7652 O   0  0  0  0  0  0  0  0  0  0  0  0
    1.4720   12.2004   17.5987 O   0  0  0  0  0  0  0  0  0  0  0  0
    1.0971   12.8880   18.8242 S   0  0  0  0  0  0  0  0  0  0  0  0
    3.6322   15.5280   22.0168 H   0  0  0  0  0  0  0  0  0  0  0  0
    1.6123   14.9203   20.7514 H   0  0  0  0  0  0  0  0  0  0  0  0
    5.8107   12.3528   20.0954 H   0  0  0  0  0  0  0  0  0  0  0  0
    6.7745   15.6812   23.3014 H   0  0  0  0  0  0  0  0  0  0  0  0
    5.0898   15.9232   22.8908 H   0  0  0  0  0  0  0  0  0  0  0  0
   -0.4565   12.0584   20.4089 H   0  0  0  0  0  0  0  0  0  0  0  0
    0.3694   10.7754   19.6119 H   0  0  0  0  0  0  0  0  0  0  0  0
  1  2  2  0  0  0  0
  1  4  1  0  0  0  0
  2  6  1  0  0  0  0
  3  4  2  0  0  0  0
  3  5  1  0  0  0  0
  4  7  1  0  0  0  0
  5  6  2  0  0  0  0
  5 10  1  0  0  0  0
  6 16  1  0  0  0  0
  7  8  1  0  0  0  0
  7 12  2  0  0  0  0
  9 16  1  0  0  0  0
 10 11  1  0  0  0  0
 10 13  2  0  0  0  0
 14 16  2  0  0  0  0
 15 16  2  0  0  0  0
  1 17  1  0  0  0  0
  2 18  1  0  0  0  0
  3 19  1  0  0  0  0
  8 20  1  0  0  0  0
  8 21  1  0  0  0  0
  9 22  1  0  0  0  0
  9 23  1  0  0  0  0
M  CHG  2  10   1  11  -1
M  END
> <Mol Weight>
245,21

> <Formula>
C7H7N3O5S

> <ID>
EN300-110166

> <name>
Sulfonamides

> <LogP>
-0,63

> <ROCS_ShapeQuery>
x0310_0A_x0719_0A_x1080_0A_x0739_0A_x0929_0A_x0526_0A_x0911_0A

> <ROCS_TanimotoCombo>
0.298 

> <ROCS_ShapeTanimoto>
0.185 

> <ROCS_ColorTanimoto>
0.113 

> <ROCS_RefTversky>
0.177 

> <ROCS_RefColorTversky>
0.133 

> <ROCS_RefTverskyCombo>
0.311 

> <ROCS_FitTversky>
1.314 

> <ROCS_FitColorTversky>
0.425 

> <ROCS_FitTverskyCombo>
1.739 

> <ROCS_ColorScore>
-3.882

> <ROCS_Overlap>
1421.765

> <ROCS_Rank>
435                 

$$$$
untitled-dbase-2200_40
  -OEChem-02092407103D

 34 34  0     1  0  0  0  0  0999 V2000
    6.1754   12.3890   20.3660 C   0  0  0  0  0  0  0  0  0  0  0  0
    2.8772   11.0199   19.2234 C   0  0  0  0  0  0  0  0  0  0  0  0
    3.7338   12.8310   18.4575 C   0  0  0  0  0  0  0  0  0  0  0  0
    4.3204   11.4969   18.9619 C   0  0  1  0  0  0  0  0  0  0  0  0
    2.4270   12.4993   19.2149 C   0  0  1  0  0  0  0  0  0  0  0  0
    7.6603   14.5517   21.4919 C   0  0  0  0  0  0  0  0  0  0  0  0
    7.9644   13.0592   23.4892 C   0  0  0  0  0  0  0  0  0  0  0  0
    8.8931   12.3698   21.2598 C   0  0  0  0  0  0  0  0  0  0  0  0
    7.7620   13.1061   21.9763 C   0  0  0  0  0  0  0  0  0  0  0  0
    0.0191   11.4654   18.7808 N   0  0  0  0  0  0  0  0  0  0  0  0
    4.9821   11.7268   20.2459 N   0  0  0  0  0  0  0  0  0  0  0  0
    6.8363   12.8666   19.4496 O   0  0  0  0  0  0  0  0  0  0  0  0
    0.3237   14.0172   18.8931 O   0  0  0  0  0  0  0  0  0  0  0  0
    1.2279   12.7456   16.9054 O   0  0  0  0  0  0  0  0  0  0  0  0
    6.5282   12.4401   21.6852 O   0  0  0  0  0  0  0  0  0  0  0  0
    0.9318   12.8296   18.3232 S   0  0  0  0  0  0  0  0  0  0  0  0
    2.4712   10.4139   18.4044 H   0  0  0  0  0  0  0  0  0  0  0  0
    2.7036   10.4866   20.1630 H   0  0  0  0  0  0  0  0  0  0  0  0
    4.2440   13.7415   18.7862 H   0  0  0  0  0  0  0  0  0  0  0  0
    3.6321   12.8692   17.3661 H   0  0  0  0  0  0  0  0  0  0  0  0
    4.8987   10.9421   18.2984 H   0  0  0  0  0  0  0  0  0  0  0  0
    2.3907   12.9397   20.2178 H   0  0  0  0  0  0  0  0  0  0  0  0
    7.5150   14.5897   20.4064 H   0  0  0  0  0  0  0  0  0  0  0  0
    6.8308   15.0807   21.9725 H   0  0  0  0  0  0  0  0  0  0  0  0
    8.5866   15.0997   21.6991 H   0  0  0  0  0  0  0  0  0  0  0  0
    8.0379   12.0239   23.8411 H   0  0  0  0  0  0  0  0  0  0  0  0
    7.1088   13.5027   24.0114 H   0  0  0  0  0  0  0  0  0  0  0  0
    8.8705   13.5936   23.7924 H   0  0  0  0  0  0  0  0  0  0  0  0
    8.9663   11.3328   21.6071 H   0  0  0  0  0  0  0  0  0  0  0  0
    8.7453   12.3613   20.1750 H   0  0  0  0  0  0  0  0  0  0  0  0
    9.8606   12.8372   21.4758 H   0  0  0  0  0  0  0  0  0  0  0  0
   -0.7692   11.6099   19.4237 H   0  0  0  0  0  0  0  0  0  0  0  0
   -0.1532   10.7438   18.0701 H   0  0  0  0  0  0  0  0  0  0  0  0
    4.5388   11.3815   21.0825 H   0  0  0  0  0  0  0  0  0  0  0  0
  1 11  1  0  0  0  0
  1 12  2  0  0  0  0
  1 15  1  0  0  0  0
  2  4  1  0  0  0  0
  2  5  1  0  0  0  0
  3  4  1  0  0  0  0
  3  5  1  0  0  0  0
  4 11  1  1  0  0  0
  5 16  1  6  0  0  0
  6  9  1  0  0  0  0
  7  9  1  0  0  0  0
  8  9  1  0  0  0  0
  9 15  1  0  0  0  0
 10 16  1  0  0  0  0
 13 16  2  0  0  0  0
 14 16  2  0  0  0  0
  2 17  1  0  0  0  0
  2 18  1  0  0  0  0
  3 19  1  0  0  0  0
  3 20  1  0  0  0  0
  4 21  1  0  0  0  0
  5 22  1  0  0  0  0
  6 23  1  0  0  0  0
  6 24  1  0  0  0  0
  6 25  1  0  0  0  0
  7 26  1  0  0  0  0
  7 27  1  0  0  0  0
  7 28  1  0  0  0  0
  8 29  1  0  0  0  0
  8 30  1  0  0  0  0
  8 31  1  0  0  0  0
 10 32  1  0  0  0  0
 10 33  1  0  0  0  0
 11 34  1  0  0  0  0
M  END
> <Mol Weight>
250,31

> <Formula>
C9H18N2O4S

> <ID>
EN300-27720181

> <name>
Sulfonamides

> <LogP>
-0,47

> <ROCS_ShapeQuery>
x0310_0A_x0719_0A_x1080_0A_x0739_0A_x0929_0A_x0526_0A_x0911_0A

> <ROCS_TanimotoCombo>
0.298 

> <ROCS_ShapeTanimoto>
0.179 

> <ROCS_ColorTanimoto>
0.119 

> <ROCS_RefTversky>
0.172 

> <ROCS_RefColorTversky>
0.136 

> <ROCS_RefTverskyCombo>
0.308 

> <ROCS_FitTversky>
1.310 

> <ROCS_FitColorTversky>
0.485 

> <ROCS_FitTverskyCombo>
1.795 

> <ROCS_ColorScore>
-3.962

> <ROCS_Overlap>
1376.416

> <ROCS_Rank>
436                 

$$$$
untitled-dbase-1807_0
  -OEChem-02092407103D

 19 20  0     0  0  0  0  0  0999 V2000
    7.7235   11.2567   24.1234 C   0  0  0  0  0  0  0  0  0  0  0  0
    8.3816   12.3131   23.4793 C   0  0  0  0  0  0  0  0  0  0  0  0
    9.5559   11.7661   23.0147 C   0  0  0  0  0  0  0  0  0  0  0  0
   11.6533   10.0469   22.3977 C   0  0  0  0  0  0  0  0  0  0  0  0
   10.6026    9.5828   23.0814 C   0  0  0  0  0  0  0  0  0  0  0  0
   11.5771   11.4898   22.0297 C   0  0  0  0  0  0  0  0  0  0  0  0
    8.4107   10.1158   24.0827 N   0  0  0  0  0  0  0  0  0  0  0  0
   10.5990   12.2973   22.3162 N   0  0  0  0  0  0  0  0  0  0  0  0
    9.5434   10.4260   23.3997 N   0  0  0  0  0  0  0  0  0  0  0  0
    6.9690   13.8622   21.8332 N   0  0  0  0  0  0  0  0  0  0  0  0
    6.8909   14.2464   24.3811 O   0  0  0  0  0  0  0  0  0  0  0  0
    8.9906   14.8188   23.1119 O   0  0  0  0  0  0  0  0  0  0  0  0
    7.8449   13.9168   23.3103 S   0  0  0  0  0  0  0  0  0  0  0  0
   12.8866   12.1914   21.1422 Cl  0  0  0  0  0  0  0  0  0  0  0  0
    6.7661   11.2656   24.6249 H   0  0  0  0  0  0  0  0  0  0  0  0
   12.5054    9.4424   22.1205 H   0  0  0  0  0  0  0  0  0  0  0  0
   10.5325    8.5527   23.4095 H   0  0  0  0  0  0  0  0  0  0  0  0
    7.4953   13.7750   20.9552 H   0  0  0  0  0  0  0  0  0  0  0  0
    6.0592   13.3855   21.8210 H   0  0  0  0  0  0  0  0  0  0  0  0
  1  2  1  0  0  0  0
  1  7  2  0  0  0  0
  2  3  2  0  0  0  0
  2 13  1  0  0  0  0
  3  8  1  0  0  0  0
  3  9  1  0  0  0  0
  4  5  2  0  0  0  0
  4  6  1  0  0  0  0
  5  9  1  0  0  0  0
  6  8  2  0  0  0  0
  6 14  1  0  0  0  0
  7  9  1  0  0  0  0
 10 13  1  0  0  0  0
 11 13  2  0  0  0  0
 12 13  2  0  0  0  0
  1 15  1  0  0  0  0
  4 16  1  0  0  0  0
  5 17  1  0  0  0  0
 10 18  1  0  0  0  0
 10 19  1  0  0  0  0
M  END
> <Mol Weight>
232,64

> <Formula>
C6H5ClN4O2S

> <ID>
EN300-339503

> <name>
Sulfonamides

> <LogP>
0,08

> <ROCS_ShapeQuery>
x0310_0A_x0719_0A_x1080_0A_x0739_0A_x0929_0A_x0526_0A_x0911_0A

> <ROCS_TanimotoCombo>
0.298 

> <ROCS_ShapeTanimoto>
0.165 

> <ROCS_ColorTanimoto>
0.133 

> <ROCS_RefTversky>
0.160 

> <ROCS_RefColorTversky>
0.150 

> <ROCS_RefTverskyCombo>
0.310 

> <ROCS_FitTversky>
1.271 

> <ROCS_FitColorTversky>
0.533 

> <ROCS_FitTverskyCombo>
1.804 

> <ROCS_ColorScore>
-4.370

> <ROCS_Overlap>
1278.465

> <ROCS_Rank>
437                 

$$$$
untitled-dbase-1951_24
  -OEChem-02092407103D

 25 26  0     0  0  0  0  0  0999 V2000
    5.6436   12.5156   23.5169 C   0  0  0  0  0  0  0  0  0  0  0  0
    4.7646   12.2895   22.4635 C   0  0  0  0  0  0  0  0  0  0  0  0
    7.1173   13.5876   21.9885 C   0  0  0  0  0  0  0  0  0  0  0  0
    3.5623   11.7984   18.3063 C   0  0  0  0  0  0  0  0  0  0  0  0
    2.9764   12.9763   20.0682 C   0  0  0  0  0  0  0  0  0  0  0  0
    6.8445   13.1763   23.2832 C   0  0  0  0  0  0  0  0  0  0  0  0
    2.4918   12.5209   18.8664 C   0  0  0  0  0  0  0  0  0  0  0  0
    5.1304   12.7406   21.2056 C   0  0  0  0  0  0  0  0  0  0  0  0
    6.2882   13.3860   20.9399 N   0  0  0  0  0  0  0  0  0  0  0  0
    4.6454   11.7925   19.0879 N   0  0  0  0  0  0  0  0  0  0  0  0
    4.2579   12.5170   20.1515 N   0  0  0  0  0  0  0  0  0  0  0  0
    7.7520   13.4197   24.3270 N   0  0  0  0  0  0  0  0  0  0  0  0
    0.0584   11.4343   18.8136 N   0  0  0  0  0  0  0  0  0  0  0  0
    0.3493   13.9954   18.7718 O   0  0  0  0  0  0  0  0  0  0  0  0
    0.9908   12.6484   16.7415 O   0  0  0  0  0  0  0  0  0  0  0  0
    0.9476   12.7743   18.2078 S   0  0  0  0  0  0  0  0  0  0  0  0
    5.3829   12.1734   24.5147 H   0  0  0  0  0  0  0  0  0  0  0  0
    3.8252   11.7750   22.6387 H   0  0  0  0  0  0  0  0  0  0  0  0
    8.0389   14.1073   21.7449 H   0  0  0  0  0  0  0  0  0  0  0  0
    3.6011   11.2751   17.3614 H   0  0  0  0  0  0  0  0  0  0  0  0
    2.5244   13.5739   20.8490 H   0  0  0  0  0  0  0  0  0  0  0  0
    7.5103   13.1546   25.2635 H   0  0  0  0  0  0  0  0  0  0  0  0
    8.5895   13.9395   24.1418 H   0  0  0  0  0  0  0  0  0  0  0  0
    0.2486   10.5034   18.4226 H   0  0  0  0  0  0  0  0  0  0  0  0
   -0.1922   11.4229   19.8098 H   0  0  0  0  0  0  0  0  0  0  0  0
  1  2  2  0  0  0  0
  1  6  1  0  0  0  0
  2  8  1  0  0  0  0
  3  6  2  0  0  0  0
  3  9  1  0  0  0  0
  4  7  1  0  0  0  0
  4 10  2  0  0  0  0
  5  7  2  0  0  0  0
  5 11  1  0  0  0  0
  6 12  1  0  0  0  0
  7 16  1  0  0  0  0
  8  9  2  0  0  0  0
  8 11  1  0  0  0  0
 10 11  1  0  0  0  0
 13 16  1  0  0  0  0
 14 16  2  0  0  0  0
 15 16  2  0  0  0  0
  1 17  1  0  0  0  0
  2 18  1  0  0  0  0
  3 19  1  0  0  0  0
  4 20  1  0  0  0  0
  5 21  1  0  0  0  0
 12 22  1  0  0  0  0
 12 23  1  0  0  0  0
 13 24  1  0  0  0  0
 13 25  1  0  0  0  0
M  END
> <Mol Weight>
239,25

> <Formula>
C8H9N5O2S

> <ID>
EN300-75809

> <name>
Sulfonamides

> <LogP>
-0,79

> <ROCS_ShapeQuery>
x0310_0A_x0719_0A_x1080_0A_x0739_0A_x0929_0A_x0526_0A_x0911_0A

> <ROCS_TanimotoCombo>
0.298 

> <ROCS_ShapeTanimoto>
0.178 

> <ROCS_ColorTanimoto>
0.120 

> <ROCS_RefTversky>
0.172 

> <ROCS_RefColorTversky>
0.144 

> <ROCS_RefTverskyCombo>
0.316 

> <ROCS_FitTversky>
1.254 

> <ROCS_FitColorTversky>
0.417 

> <ROCS_FitTverskyCombo>
1.671 

> <ROCS_ColorScore>
-4.201

> <ROCS_Overlap>
1377.536

> <ROCS_Rank>
438                 

$$$$
untitled-dbase-331_13
  -OEChem-02092407103D

 20 20  0     0  0  0  0  0  0999 V2000
    9.2250   12.4177   23.6390 C   0  0  0  0  0  0  0  0  0  0  0  0
    9.9104   11.3078   24.0687 C   0  0  0  0  0  0  0  0  0  0  0  0
    7.9741   11.9210   23.2264 C   0  0  0  0  0  0  0  0  0  0  0  0
    9.3371    8.8723   24.2040 C   0  0  0  0  0  0  0  0  0  0  0  0
    6.8243   12.6990   22.6645 C   0  0  0  0  0  0  0  0  0  0  0  0
    7.8683   10.5984   23.3800 N   0  0  0  0  0  0  0  0  0  0  0  0
    9.0616   10.2547   23.8939 N   0  0  0  0  0  0  0  0  0  0  0  0
    5.7085   15.0830   22.3149 N   0  0  0  0  0  0  0  0  0  0  0  0
    7.0248   14.5800   24.4669 O   0  0  0  0  0  0  0  0  0  0  0  0
    8.2694   14.8424   22.2834 O   0  0  0  0  0  0  0  0  0  0  0  0
    7.1026   14.4144   23.0291 S   0  0  0  0  0  0  0  0  0  0  0  0
    9.5832   13.4368   23.6276 H   0  0  0  0  0  0  0  0  0  0  0  0
   10.9055   11.1831   24.4730 H   0  0  0  0  0  0  0  0  0  0  0  0
    9.0286    8.6904   25.2368 H   0  0  0  0  0  0  0  0  0  0  0  0
    8.7795    8.2274   23.5191 H   0  0  0  0  0  0  0  0  0  0  0  0
   10.4073    8.6815   24.0842 H   0  0  0  0  0  0  0  0  0  0  0  0
    5.8718   12.4050   23.1143 H   0  0  0  0  0  0  0  0  0  0  0  0
    6.7470   12.5896   21.5791 H   0  0  0  0  0  0  0  0  0  0  0  0
    5.6533   15.0949   21.2890 H   0  0  0  0  0  0  0  0  0  0  0  0
    4.8058   14.9163   22.7762 H   0  0  0  0  0  0  0  0  0  0  0  0
  1  2  2  0  0  0  0
  1  3  1  0  0  0  0
  2  7  1  0  0  0  0
  3  5  1  0  0  0  0
  3  6  2  0  0  0  0
  4  7  1  0  0  0  0
  5 11  1  0  0  0  0
  6  7  1  0  0  0  0
  8 11  1  0  0  0  0
  9 11  2  0  0  0  0
 10 11  2  0  0  0  0
  1 12  1  0  0  0  0
  2 13  1  0  0  0  0
  4 14  1  0  0  0  0
  4 15  1  0  0  0  0
  4 16  1  0  0  0  0
  5 17  1  0  0  0  0
  5 18  1  0  0  0  0
  8 19  1  0  0  0  0
  8 20  1  0  0  0  0
M  END
> <Mol Weight>
175,21

> <Formula>
C5H9N3O2S

> <ID>
EN300-282017

> <name>
Sulfonamides

> <LogP>
-0,84

> <ROCS_ShapeQuery>
x0310_0A_x0719_0A_x1080_0A_x0739_0A_x0929_0A_x0526_0A_x0911_0A

> <ROCS_TanimotoCombo>
0.298 

> <ROCS_ShapeTanimoto>
0.145 

> <ROCS_ColorTanimoto>
0.152 

> <ROCS_RefTversky>
0.141 

> <ROCS_RefColorTversky>
0.161 

> <ROCS_RefTverskyCombo>
0.301 

> <ROCS_FitTversky>
1.313 

> <ROCS_FitColorTversky>
0.744 

> <ROCS_FitTverskyCombo>
2.057 

> <ROCS_ColorScore>
-4.665

> <ROCS_Overlap>
1124.708

> <ROCS_Rank>
439                 

$$$$
untitled-dbase-2295_20
  -OEChem-02092407103D

 23 23  0     0  0  0  0  0  0999 V2000
   10.0972   10.5291   23.2329 C   0  0  0  0  0  0  0  0  0  0  0  0
    9.9191   11.2347   24.4229 C   0  0  0  0  0  0  0  0  0  0  0  0
    9.0038   10.2663   22.4076 C   0  0  0  0  0  0  0  0  0  0  0  0
    7.5542   11.4146   23.9623 C   0  0  0  0  0  0  0  0  0  0  0  0
    8.6476   11.6774   24.7876 C   0  0  0  0  0  0  0  0  0  0  0  0
    7.7324   10.7090   22.7723 C   0  0  0  0  0  0  0  0  0  0  0  0
    6.1886   11.8907   24.3539 C   0  0  0  0  0  0  0  0  0  0  0  0
    5.5573   12.8325   23.3290 C   0  0  0  0  0  0  0  0  0  0  0  0
    5.3493   15.2972   22.3629 N   0  0  0  0  0  0  0  0  0  0  0  0
    6.9640   14.8066   24.3043 O   0  0  0  0  0  0  0  0  0  0  0  0
    7.5063   13.9458   21.9912 O   0  0  0  0  0  0  0  0  0  0  0  0
    6.5375   14.2688   23.0241 S   0  0  0  0  0  0  0  0  0  0  0  0
    8.4727   12.5476   26.2689 Cl  0  0  0  0  0  0  0  0  0  0  0  0
    6.4077   10.3655   21.7189 Cl  0  0  0  0  0  0  0  0  0  0  0  0
   11.0872   10.1836   22.9498 H   0  0  0  0  0  0  0  0  0  0  0  0
   10.7817   11.4290   25.0553 H   0  0  0  0  0  0  0  0  0  0  0  0
    9.1605    9.7155   21.4837 H   0  0  0  0  0  0  0  0  0  0  0  0
    6.2552   12.4225   25.3162 H   0  0  0  0  0  0  0  0  0  0  0  0
    5.5136   11.0390   24.5330 H   0  0  0  0  0  0  0  0  0  0  0  0
    5.4564   12.3281   22.3626 H   0  0  0  0  0  0  0  0  0  0  0  0
    4.5675   13.1790   23.6415 H   0  0  0  0  0  0  0  0  0  0  0  0
    5.0324   16.0908   22.9333 H   0  0  0  0  0  0  0  0  0  0  0  0
    5.4017   15.5043   21.3580 H   0  0  0  0  0  0  0  0  0  0  0  0
  1  2  1  0  0  0  0
  1  3  2  0  0  0  0
  2  5  2  0  0  0  0
  3  6  1  0  0  0  0
  4  5  1  0  0  0  0
  4  6  2  0  0  0  0
  4  7  1  0  0  0  0
  5 13  1  0  0  0  0
  6 14  1  0  0  0  0
  7  8  1  0  0  0  0
  8 12  1  0  0  0  0
  9 12  1  0  0  0  0
 10 12  2  0  0  0  0
 11 12  2  0  0  0  0
  1 15  1  0  0  0  0
  2 16  1  0  0  0  0
  3 17  1  0  0  0  0
  7 18  1  0  0  0  0
  7 19  1  0  0  0  0
  8 20  1  0  0  0  0
  8 21  1  0  0  0  0
  9 22  1  0  0  0  0
  9 23  1  0  0  0  0
M  END
> <Mol Weight>
254,13

> <Formula>
C8H9Cl2NO2S

> <ID>
EN300-37375558

> <name>
Sulfonamides

> <LogP>
1,84

> <ROCS_ShapeQuery>
x0310_0A_x0719_0A_x1080_0A_x0739_0A_x0929_0A_x0526_0A_x0911_0A

> <ROCS_TanimotoCombo>
0.298 

> <ROCS_ShapeTanimoto>
0.144 

> <ROCS_ColorTanimoto>
0.153 

> <ROCS_RefTversky>
0.141 

> <ROCS_RefColorTversky>
0.157 

> <ROCS_RefTverskyCombo>
0.299 

> <ROCS_FitTversky>
1.188 

> <ROCS_FitColorTversky>
0.857 

> <ROCS_FitTverskyCombo>
2.045 

> <ROCS_ColorScore>
-4.557

> <ROCS_Overlap>
1130.944

> <ROCS_Rank>
440                 

$$$$
untitled-dbase-1954_30
  -OEChem-02092407103D

 29 30  0     0  0  0  0  0  0999 V2000
    9.5220   10.1665   22.8909 C   0  0  0  0  0  0  0  0  0  0  0  0
    9.1225    9.5679   24.0855 C   0  0  0  0  0  0  0  0  0  0  0  0
    8.1288   11.6513   24.8041 C   0  0  0  0  0  0  0  0  0  0  0  0
    8.5163   12.2586   23.6038 C   0  0  0  0  0  0  0  0  0  0  0  0
    9.2153   11.5093   22.6375 C   0  0  0  0  0  0  0  0  0  0  0  0
    8.4280   10.3087   25.0401 C   0  0  0  0  0  0  0  0  0  0  0  0
    8.2083   13.6721   23.3544 C   0  0  0  0  0  0  0  0  0  0  0  0
    8.3489   14.1721   22.1192 C   0  0  0  0  0  0  0  0  0  0  0  0
    9.7049   12.1773   21.3759 C   0  0  0  0  0  0  0  0  0  0  0  0
    8.8333   13.3667   20.9522 C   0  0  0  0  0  0  0  0  0  0  0  0
    7.3301   10.5348   27.1375 C   0  0  0  0  0  0  0  0  0  0  0  0
    6.2668   15.7993   21.4866 N   0  0  0  0  0  0  0  0  0  0  0  0
    8.0535   16.5096   23.1772 O   0  0  0  0  0  0  0  0  0  0  0  0
    8.6596   16.3353   20.7432 O   0  0  0  0  0  0  0  0  0  0  0  0
    8.0370    9.7202   26.2038 O   0  0  0  0  0  0  0  0  0  0  0  0
    7.9342   15.8287   21.8974 S   0  0  0  0  0  0  0  0  0  0  0  0
   10.0688    9.5791   22.1579 H   0  0  0  0  0  0  0  0  0  0  0  0
    9.3498    8.5202   24.2631 H   0  0  0  0  0  0  0  0  0  0  0  0
    7.5954   12.2199   25.5628 H   0  0  0  0  0  0  0  0  0  0  0  0
    7.8977   14.2844   24.1949 H   0  0  0  0  0  0  0  0  0  0  0  0
   10.7380   12.5227   21.5018 H   0  0  0  0  0  0  0  0  0  0  0  0
    9.7070   11.4241   20.5774 H   0  0  0  0  0  0  0  0  0  0  0  0
    7.9895   12.9886   20.3635 H   0  0  0  0  0  0  0  0  0  0  0  0
    9.4090   14.0300   20.2942 H   0  0  0  0  0  0  0  0  0  0  0  0
    7.0778    9.9429   28.0208 H   0  0  0  0  0  0  0  0  0  0  0  0
    6.4196   10.9191   26.6710 H   0  0  0  0  0  0  0  0  0  0  0  0
    7.9672   11.3719   27.4326 H   0  0  0  0  0  0  0  0  0  0  0  0
    6.0196   16.0664   20.5253 H   0  0  0  0  0  0  0  0  0  0  0  0
    5.6137   16.1824   22.1821 H   0  0  0  0  0  0  0  0  0  0  0  0
  1  2  2  0  0  0  0
  1  5  1  0  0  0  0
  2  6  1  0  0  0  0
  3  4  1  0  0  0  0
  3  6  2  0  0  0  0
  4  5  2  0  0  0  0
  4  7  1  0  0  0  0
  5  9  1  0  0  0  0
  6 15  1  0  0  0  0
  7  8  2  0  0  0  0
  8 10  1  0  0  0  0
  8 16  1  0  0  0  0
  9 10  1  0  0  0  0
 11 15  1  0  0  0  0
 12 16  1  0  0  0  0
 13 16  2  0  0  0  0
 14 16  2  0  0  0  0
  1 17  1  0  0  0  0
  2 18  1  0  0  0  0
  3 19  1  0  0  0  0
  7 20  1  0  0  0  0
  9 21  1  0  0  0  0
  9 22  1  0  0  0  0
 10 23  1  0  0  0  0
 10 24  1  0  0  0  0
 11 25  1  0  0  0  0
 11 26  1  0  0  0  0
 11 27  1  0  0  0  0
 12 28  1  0  0  0  0
 12 29  1  0  0  0  0
M  END
> <Mol Weight>
239,29

> <Formula>
C11H13NO3S

> <ID>
EN300-123838

> <name>
Sulfonamides

> <LogP>
1,07

> <ROCS_ShapeQuery>
x0310_0A_x0719_0A_x1080_0A_x0739_0A_x0929_0A_x0526_0A_x0911_0A

> <ROCS_TanimotoCombo>
0.298 

> <ROCS_ShapeTanimoto>
0.163 

> <ROCS_ColorTanimoto>
0.135 

> <ROCS_RefTversky>
0.159 

> <ROCS_RefColorTversky>
0.149 

> <ROCS_RefTverskyCombo>
0.307 

> <ROCS_FitTversky>
1.182 

> <ROCS_FitColorTversky>
0.598 

> <ROCS_FitTverskyCombo>
1.780 

> <ROCS_ColorScore>
-4.322

> <ROCS_Overlap>
1270.660

> <ROCS_Rank>
441                 

$$$$
untitled-dbase-764_45
  -OEChem-02092407103D

 24 24  0     0  0  0  0  0  0999 V2000
    9.2817    9.7727   24.0472 C   0  0  0  0  0  0  0  0  0  0  0  0
    9.8128   10.4281   22.9364 C   0  0  0  0  0  0  0  0  0  0  0  0
    8.2771   10.3797   24.8009 C   0  0  0  0  0  0  0  0  0  0  0  0
    9.3393   11.6906   22.5792 C   0  0  0  0  0  0  0  0  0  0  0  0
    7.8036   11.6422   24.4437 C   0  0  0  0  0  0  0  0  0  0  0  0
    8.3347   12.2977   23.3329 C   0  0  0  0  0  0  0  0  0  0  0  0
    7.8407   13.6142   22.9610 C   0  0  0  0  0  0  0  0  0  0  0  0
    7.3702   14.5439   23.8186 C   0  0  0  0  0  0  0  0  0  0  0  0
    4.9244   15.0854   21.4528 C   0  0  0  0  0  0  0  0  0  0  0  0
    6.2741   15.6697   21.5800 N   0  0  0  0  0  0  0  0  0  0  0  0
    5.7115   16.5263   23.9427 O   0  0  0  0  0  0  0  0  0  0  0  0
    8.0086   16.9046   23.0027 O   0  0  0  0  0  0  0  0  0  0  0  0
    6.8436   16.0462   23.1632 S   0  0  0  0  0  0  0  0  0  0  0  0
    9.6494    8.7892   24.3246 H   0  0  0  0  0  0  0  0  0  0  0  0
   10.5942    9.9551   22.3487 H   0  0  0  0  0  0  0  0  0  0  0  0
    7.8627    9.8690   25.6651 H   0  0  0  0  0  0  0  0  0  0  0  0
    9.7633   12.1891   21.7107 H   0  0  0  0  0  0  0  0  0  0  0  0
    7.0202   12.1023   25.0412 H   0  0  0  0  0  0  0  0  0  0  0  0
    7.8760   13.8626   21.8937 H   0  0  0  0  0  0  0  0  0  0  0  0
    7.3178   14.3940   24.8892 H   0  0  0  0  0  0  0  0  0  0  0  0
    4.2443   15.5734   22.1665 H   0  0  0  0  0  0  0  0  0  0  0  0
    4.5532   15.2396   20.4289 H   0  0  0  0  0  0  0  0  0  0  0  0
    4.9697   14.0076   21.6680 H   0  0  0  0  0  0  0  0  0  0  0  0
    6.9608   15.2547   20.9366 H   0  0  0  0  0  0  0  0  0  0  0  0
  1  2  1  0  0  0  0
  1  3  2  0  0  0  0
  2  4  2  0  0  0  0
  3  5  1  0  0  0  0
  4  6  1  0  0  0  0
  5  6  2  0  0  0  0
  6  7  1  0  0  0  0
  7  8  2  0  0  0  0
  8 13  1  4  0  0  0
  9 10  1  0  0  0  0
 10 13  1  0  0  0  0
 11 13  2  0  0  0  0
 12 13  2  0  0  0  0
  1 14  1  0  0  0  0
  2 15  1  0  0  0  0
  3 16  1  0  0  0  0
  4 17  1  0  0  0  0
  5 18  1  0  0  0  0
  7 19  1  0  0  0  0
  8 20  1  0  0  0  0
  9 21  1  0  0  0  0
  9 22  1  0  0  0  0
  9 23  1  0  0  0  0
 10 24  1  0  0  0  0
M  END
> <Mol Weight>
197,25

> <Formula>
C9H11NO2S

> <ID>
EN300-15855

> <name>
Sulfonamides

> <LogP>
1,02

> <ROCS_ShapeQuery>
x0310_0A_x0719_0A_x1080_0A_x0739_0A_x0929_0A_x0526_0A_x0911_0A

> <ROCS_TanimotoCombo>
0.298 

> <ROCS_ShapeTanimoto>
0.170 

> <ROCS_ColorTanimoto>
0.128 

> <ROCS_RefTversky>
0.162 

> <ROCS_RefColorTversky>
0.134 

> <ROCS_RefTverskyCombo>
0.296 

> <ROCS_FitTversky>
1.399 

> <ROCS_FitColorTversky>
0.731 

> <ROCS_FitTverskyCombo>
2.130 

> <ROCS_ColorScore>
-3.888

> <ROCS_Overlap>
1295.487

> <ROCS_Rank>
442                 

$$$$
untitled-dbase-2350_1
  -OEChem-02092407103D

 23 23  0     0  0  0  0  0  0999 V2000
    9.3740   10.1201   24.2118 C   0  0  0  0  0  0  0  0  0  0  0  0
   10.0271   11.3516   24.2589 C   0  0  0  0  0  0  0  0  0  0  0  0
    8.1538   10.0027   23.5461 C   0  0  0  0  0  0  0  0  0  0  0  0
    9.4600   12.4660   23.6406 C   0  0  0  0  0  0  0  0  0  0  0  0
    8.2398   12.3487   22.9750 C   0  0  0  0  0  0  0  0  0  0  0  0
    7.5867   11.1170   22.9277 C   0  0  0  0  0  0  0  0  0  0  0  0
    7.6165   13.5294   22.3052 C   0  0  0  0  0  0  0  0  0  0  0  0
   10.1785   13.7736   23.7039 C   0  0  0  0  0  0  0  0  0  0  0  0
    5.7074   15.3743   22.3622 N   0  0  0  0  0  0  0  0  0  0  0  0
    5.2409   13.0097   23.2610 O   0  0  0  0  0  0  0  0  0  0  0  0
    6.7686   14.5506   24.5560 O   0  0  0  0  0  0  0  0  0  0  0  0
    6.4142   10.9932   22.2898 F   0  0  0  0  0  0  0  0  0  0  0  0
   11.3568   13.7159   24.3908 F   0  0  0  0  0  0  0  0  0  0  0  0
   10.5039   14.2763   22.4771 F   0  0  0  0  0  0  0  0  0  0  0  0
    9.4430   14.7455   24.3164 F   0  0  0  0  0  0  0  0  0  0  0  0
    6.2524   14.0527   23.2920 S   0  0  0  0  0  0  0  0  0  0  0  0
    9.8157    9.2523   24.6930 H   0  0  0  0  0  0  0  0  0  0  0  0
   10.9776   11.4323   24.7795 H   0  0  0  0  0  0  0  0  0  0  0  0
    7.6457    9.0438   23.5086 H   0  0  0  0  0  0  0  0  0  0  0  0
    7.2384   13.2867   21.3065 H   0  0  0  0  0  0  0  0  0  0  0  0
    8.3126   14.3703   22.2171 H   0  0  0  0  0  0  0  0  0  0  0  0
    4.8195   15.2688   21.8562 H   0  0  0  0  0  0  0  0  0  0  0  0
    5.8602   16.3182   22.7380 H   0  0  0  0  0  0  0  0  0  0  0  0
  1  2  2  0  0  0  0
  1  3  1  0  0  0  0
  2  4  1  0  0  0  0
  3  6  2  0  0  0  0
  4  5  2  0  0  0  0
  4  8  1  0  0  0  0
  5  6  1  0  0  0  0
  5  7  1  0  0  0  0
  6 12  1  0  0  0  0
  7 16  1  0  0  0  0
  8 13  1  0  0  0  0
  8 14  1  0  0  0  0
  8 15  1  0  0  0  0
  9 16  1  0  0  0  0
 10 16  2  0  0  0  0
 11 16  2  0  0  0  0
  1 17  1  0  0  0  0
  2 18  1  0  0  0  0
  3 19  1  0  0  0  0
  7 20  1  0  0  0  0
  7 21  1  0  0  0  0
  9 22  1  0  0  0  0
  9 23  1  0  0  0  0
M  END
> <Mol Weight>
257,20

> <Formula>
C8H7F4NO2S

> <ID>
EN300-39672689

> <name>
Sulfonamides

> <LogP>
1,36

> <ROCS_ShapeQuery>
x0310_0A_x0719_0A_x1080_0A_x0739_0A_x0929_0A_x0526_0A_x0911_0A

> <ROCS_TanimotoCombo>
0.298 

> <ROCS_ShapeTanimoto>
0.156 

> <ROCS_ColorTanimoto>
0.141 

> <ROCS_RefTversky>
0.153 

> <ROCS_RefColorTversky>
0.146 

> <ROCS_RefTverskyCombo>
0.300 

> <ROCS_FitTversky>
1.136 

> <ROCS_FitColorTversky>
0.798 

> <ROCS_FitTverskyCombo>
1.933 

> <ROCS_ColorScore>
-4.242

> <ROCS_Overlap>
1229.746

> <ROCS_Rank>
443                 

$$$$
untitled-dbase-1858_38
  -OEChem-02092407103D

 22 23  0     0  0  0  0  0  0999 V2000
    6.4196   13.3084   20.5559 C   0  0  0  0  0  0  0  0  0  0  0  0
    5.3949   12.3861   20.5164 C   0  0  0  0  0  0  0  0  0  0  0  0
    6.9341   12.1665   22.3562 C   0  0  0  0  0  0  0  0  0  0  0  0
    9.8053   11.6621   24.2470 C   0  0  0  0  0  0  0  0  0  0  0  0
    9.5032   10.4052   23.4748 C   0  0  0  0  0  0  0  0  0  0  0  0
    7.6518   11.7186   23.5984 C   0  0  0  0  0  0  0  0  0  0  0  0
    7.3030   13.1842   21.6104 N   0  0  0  0  0  0  0  0  0  0  0  0
    3.3231   10.7403   20.1948 N   0  0  0  0  0  0  0  0  0  0  0  0
    3.1344   13.2258   19.5373 O   0  0  0  0  0  0  0  0  0  0  0  0
    4.5669   11.6882   18.1475 O   0  0  0  0  0  0  0  0  0  0  0  0
    8.7867   12.5655   23.8199 O   0  0  0  0  0  0  0  0  0  0  0  0
    8.0758   10.3593   23.4223 O   0  0  0  0  0  0  0  0  0  0  0  0
    5.5343   11.3140   21.8477 S   0  0  0  0  0  0  0  0  0  0  0  0
    4.0431   12.0938   19.4426 S   0  0  0  0  0  0  0  0  0  0  0  0
    6.5683   14.1015   19.8357 H   0  0  0  0  0  0  0  0  0  0  0  0
    9.6939   11.5075   25.3259 H   0  0  0  0  0  0  0  0  0  0  0  0
   10.7984   12.0697   24.0422 H   0  0  0  0  0  0  0  0  0  0  0  0
    9.8730   10.4728   22.4460 H   0  0  0  0  0  0  0  0  0  0  0  0
    9.9032    9.5016   23.9417 H   0  0  0  0  0  0  0  0  0  0  0  0
    6.9759   11.7709   24.4732 H   0  0  0  0  0  0  0  0  0  0  0  0
    3.8138    9.8397   20.1361 H   0  0  0  0  0  0  0  0  0  0  0  0
    2.8330   10.8888   21.0853 H   0  0  0  0  0  0  0  0  0  0  0  0
  1  2  2  0  0  0  0
  1  7  1  0  0  0  0
  2 13  1  0  0  0  0
  2 14  1  0  0  0  0
  3  6  1  0  0  0  0
  3  7  2  0  0  0  0
  3 13  1  0  0  0  0
  4  5  1  0  0  0  0
  4 11  1  0  0  0  0
  5 12  1  0  0  0  0
  6 11  1  0  0  0  0
  6 12  1  0  0  0  0
  8 14  1  0  0  0  0
  9 14  2  0  0  0  0
 10 14  2  0  0  0  0
  1 15  1  0  0  0  0
  4 16  1  0  0  0  0
  4 17  1  0  0  0  0
  5 18  1  0  0  0  0
  5 19  1  0  0  0  0
  6 20  1  0  0  0  0
  8 21  1  0  0  0  0
  8 22  1  0  0  0  0
M  END
> <Mol Weight>
236,26

> <Formula>
C6H8N2O4S2

> <ID>
EN300-1425570

> <name>
Sulfonamides

> <LogP>
-0,46

> <ROCS_ShapeQuery>
x0310_0A_x0719_0A_x1080_0A_x0739_0A_x0929_0A_x0526_0A_x0911_0A

> <ROCS_TanimotoCombo>
0.298 

> <ROCS_ShapeTanimoto>
0.162 

> <ROCS_ColorTanimoto>
0.135 

> <ROCS_RefTversky>
0.157 

> <ROCS_RefColorTversky>
0.157 

> <ROCS_RefTverskyCombo>
0.313 

> <ROCS_FitTversky>
1.279 

> <ROCS_FitColorTversky>
0.500 

> <ROCS_FitTverskyCombo>
1.780 

> <ROCS_ColorScore>
-4.566

> <ROCS_Overlap>
1254.006

> <ROCS_Rank>
444                 

$$$$
untitled-dbase-1751_647
  -OEChem-02092407103D

 29 29  0     0  0  0  0  0  0999 V2000
    4.1666   11.7809   18.4435 C   0  0  0  0  0  0  0  0  0  0  0  0
    3.2063   11.8344   17.4333 C   0  0  0  0  0  0  0  0  0  0  0  0
    2.7711   13.1699   19.8436 C   0  0  0  0  0  0  0  0  0  0  0  0
    3.9489   12.4486   19.6487 C   0  0  0  0  0  0  0  0  0  0  0  0
    1.8108   13.2235   18.8333 C   0  0  0  0  0  0  0  0  0  0  0  0
    2.0285   12.5557   17.6282 C   0  0  0  0  0  0  0  0  0  0  0  0
    0.1056   11.5757   16.6292 C   0  0  0  0  0  0  0  0  0  0  0  0
    6.4863   15.8331   21.6555 C   0  0  0  0  0  0  0  0  0  0  0  0
    4.9828   12.3905   20.7359 C   0  0  0  0  0  0  0  0  0  0  0  0
    0.6229   13.9570   19.0441 N   0  0  0  0  0  0  0  0  0  0  0  0
    4.9863   13.6127   21.5597 N   0  0  0  0  0  0  0  0  0  0  0  0
    7.5675   13.4496   21.6334 O   0  0  0  0  0  0  0  0  0  0  0  0
    6.3047   14.2007   23.6822 O   0  0  0  0  0  0  0  0  0  0  0  0
    1.1024   12.5954   16.6290 O   0  0  0  0  0  0  0  0  0  0  0  0
    6.4553   14.1542   22.2405 S   0  0  0  0  0  0  0  0  0  0  0  0
    5.0811   11.2159   18.2827 H   0  0  0  0  0  0  0  0  0  0  0  0
    3.3821   11.3116   16.4969 H   0  0  0  0  0  0  0  0  0  0  0  0
    2.6037   13.6900   20.7843 H   0  0  0  0  0  0  0  0  0  0  0  0
   -0.5682   11.7236   15.7817 H   0  0  0  0  0  0  0  0  0  0  0  0
   -0.4561   11.6141   17.5660 H   0  0  0  0  0  0  0  0  0  0  0  0
    0.5930   10.6021   16.5386 H   0  0  0  0  0  0  0  0  0  0  0  0
    7.3952   16.3100   22.0257 H   0  0  0  0  0  0  0  0  0  0  0  0
    6.4796   15.8178   20.5646 H   0  0  0  0  0  0  0  0  0  0  0  0
    5.6024   16.3468   22.0365 H   0  0  0  0  0  0  0  0  0  0  0  0
    4.7989   11.5377   21.3984 H   0  0  0  0  0  0  0  0  0  0  0  0
    5.9870   12.2662   20.3170 H   0  0  0  0  0  0  0  0  0  0  0  0
    0.4683   14.3875   19.9324 H   0  0  0  0  0  0  0  0  0  0  0  0
   -0.0824   13.9538   18.3363 H   0  0  0  0  0  0  0  0  0  0  0  0
    4.1376   13.7358   22.1271 H   0  0  0  0  0  0  0  0  0  0  0  0
  1  2  2  0  0  0  0
  1  4  1  0  0  0  0
  2  6  1  0  0  0  0
  3  4  2  0  0  0  0
  3  5  1  0  0  0  0
  4  9  1  0  0  0  0
  5  6  2  0  0  0  0
  5 10  1  0  0  0  0
  6 14  1  0  0  0  0
  7 14  1  0  0  0  0
  8 15  1  0  0  0  0
  9 11  1  0  0  0  0
 11 15  1  0  0  0  0
 12 15  2  0  0  0  0
 13 15  2  0  0  0  0
  1 16  1  0  0  0  0
  2 17  1  0  0  0  0
  3 18  1  0  0  0  0
  7 19  1  0  0  0  0
  7 20  1  0  0  0  0
  7 21  1  0  0  0  0
  8 22  1  0  0  0  0
  8 23  1  0  0  0  0
  8 24  1  0  0  0  0
  9 25  1  0  0  0  0
  9 26  1  0  0  0  0
 10 27  1  0  0  0  0
 10 28  1  0  0  0  0
 11 29  1  0  0  0  0
M  END
> <Mol Weight>
230,28

> <Formula>
C9H14N2O3S

> <ID>
EN300-244391

> <name>
Sulfonamides

> <LogP>
-0,57

> <ROCS_ShapeQuery>
x0310_0A_x0719_0A_x1080_0A_x0739_0A_x0929_0A_x0526_0A_x0911_0A

> <ROCS_TanimotoCombo>
0.298 

> <ROCS_ShapeTanimoto>
0.170 

> <ROCS_ColorTanimoto>
0.127 

> <ROCS_RefTversky>
0.164 

> <ROCS_RefColorTversky>
0.144 

> <ROCS_RefTverskyCombo>
0.308 

> <ROCS_FitTversky>
1.298 

> <ROCS_FitColorTversky>
0.515 

> <ROCS_FitTverskyCombo>
1.813 

> <ROCS_ColorScore>
-4.205

> <ROCS_Overlap>
1313.152

> <ROCS_Rank>
445                 

$$$$
untitled-dbase-2517_147
  -OEChem-02092407103D

 28 29  0     0  0  0  0  0  0999 V2000
    6.2067   13.2009   22.3749 C   0  0  0  0  0  0  0  0  0  0  0  0
    6.1760   10.9938   21.3926 C   0  0  0  0  0  0  0  0  0  0  0  0
    5.1118   13.5649   21.5912 C   0  0  0  0  0  0  0  0  0  0  0  0
    5.0810   11.3578   20.6089 C   0  0  0  0  0  0  0  0  0  0  0  0
    8.8220   12.4475   23.4886 C   0  0  0  0  0  0  0  0  0  0  0  0
    6.7389   11.9153   22.2755 C   0  0  0  0  0  0  0  0  0  0  0  0
    4.5489   12.6434   20.7082 C   0  0  0  0  0  0  0  0  0  0  0  0
    7.8664   11.5400   23.0817 C   0  0  0  0  0  0  0  0  0  0  0  0
    9.1529   10.1762   24.2196 C   0  0  0  0  0  0  0  0  0  0  0  0
    2.2629   10.6861   19.2525 C   0  0  0  0  0  0  0  0  0  0  0  0
    8.0547   10.2371   23.4996 N   0  0  0  0  0  0  0  0  0  0  0  0
    9.6342    9.0384   24.7873 N   0  0  0  0  0  0  0  0  0  0  0  0
    3.4269   13.0159   19.9082 N   0  0  0  0  0  0  0  0  0  0  0  0
    2.0823   12.7803   17.7198 O   0  0  0  0  0  0  0  0  0  0  0  0
    4.3007   11.5990   17.8881 O   0  0  0  0  0  0  0  0  0  0  0  0
   10.0082   11.6483   24.4350 S   0  0  0  0  0  0  0  0  0  0  0  0
    3.0801   12.0785   18.5056 S   0  0  0  0  0  0  0  0  0  0  0  0
    6.6339   13.9307   23.0586 H   0  0  0  0  0  0  0  0  0  0  0  0
    6.5789    9.9875   21.3036 H   0  0  0  0  0  0  0  0  0  0  0  0
    4.7046   14.5692   21.6763 H   0  0  0  0  0  0  0  0  0  0  0  0
    4.6496   10.6324   19.9238 H   0  0  0  0  0  0  0  0  0  0  0  0
    8.8848   13.5087   23.2900 H   0  0  0  0  0  0  0  0  0  0  0  0
    1.9782    9.9894   18.4625 H   0  0  0  0  0  0  0  0  0  0  0  0
    2.9568   10.2123   19.9485 H   0  0  0  0  0  0  0  0  0  0  0  0
    1.3791   11.0480   19.7800 H   0  0  0  0  0  0  0  0  0  0  0  0
    9.1287    8.1483   24.7220 H   0  0  0  0  0  0  0  0  0  0  0  0
   10.4704    9.0451   25.3813 H   0  0  0  0  0  0  0  0  0  0  0  0
    2.5947   13.3013   20.4508 H   0  0  0  0  0  0  0  0  0  0  0  0
  1  3  2  0  0  0  0
  1  6  1  0  0  0  0
  2  4  1  0  0  0  0
  2  6  2  0  0  0  0
  3  7  1  0  0  0  0
  4  7  2  0  0  0  0
  5  8  2  0  0  0  0
  5 16  1  0  0  0  0
  6  8  1  0  0  0  0
  7 13  1  0  0  0  0
  8 11  1  0  0  0  0
  9 11  2  0  0  0  0
  9 12  1  0  0  0  0
  9 16  1  0  0  0  0
 10 17  1  0  0  0  0
 13 17  1  0  0  0  0
 14 17  2  0  0  0  0
 15 17  2  0  0  0  0
  1 18  1  0  0  0  0
  2 19  1  0  0  0  0
  3 20  1  0  0  0  0
  4 21  1  0  0  0  0
  5 22  1  0  0  0  0
 10 23  1  0  0  0  0
 10 24  1  0  0  0  0
 10 25  1  0  0  0  0
 12 26  1  0  0  0  0
 12 27  1  0  0  0  0
 13 28  1  0  0  0  0
M  END
> <Mol Weight>
269,34

> <Formula>
C10H11N3O2S2

> <ID>
EN300-14788

> <name>
Sulfonamides

> <LogP>
0,89

> <ROCS_ShapeQuery>
x0310_0A_x0719_0A_x1080_0A_x0739_0A_x0929_0A_x0526_0A_x0911_0A

> <ROCS_TanimotoCombo>
0.297 

> <ROCS_ShapeTanimoto>
0.182 

> <ROCS_ColorTanimoto>
0.115 

> <ROCS_RefTversky>
0.176 

> <ROCS_RefColorTversky>
0.136 

> <ROCS_RefTverskyCombo>
0.311 

> <ROCS_FitTversky>
1.267 

> <ROCS_FitColorTversky>
0.433 

> <ROCS_FitTverskyCombo>
1.700 

> <ROCS_ColorScore>
-3.955

> <ROCS_Overlap>
1407.004

> <ROCS_Rank>
446                 

$$$$
untitled-dbase-2750_3
  -OEChem-02092407103D

 22 23  0     0  0  0  0  0  0999 V2000
    7.4818   13.4738   22.5277 C   0  0  0  0  0  0  0  0  0  0  0  0
    7.1808   12.8060   21.3330 C   0  0  0  0  0  0  0  0  0  0  0  0
    8.2016   12.5641   23.2685 C   0  0  0  0  0  0  0  0  0  0  0  0
    8.9683   10.2834   22.9557 C   0  0  0  0  0  0  0  0  0  0  0  0
    9.3855   11.5682   24.9144 C   0  0  0  0  0  0  0  0  0  0  0  0
    9.5407   10.2912   24.1650 C   0  0  0  0  0  0  0  0  0  0  0  0
    6.4237   13.3180   20.1768 C   0  0  0  0  0  0  0  0  0  0  0  0
    7.6638   11.5646   21.2966 N   0  0  0  0  0  0  0  0  0  0  0  0
    8.7644   12.6349   24.5080 N   0  0  0  0  0  0  0  0  0  0  0  0
    8.2945   11.4099   22.4902 N   0  0  0  0  0  0  0  0  0  0  0  0
    6.1814   15.6091   21.6034 N   0  0  0  0  0  0  0  0  0  0  0  0
    6.1275   15.0295   24.1147 O   0  0  0  0  0  0  0  0  0  0  0  0
    8.2631   15.8931   23.0943 O   0  0  0  0  0  0  0  0  0  0  0  0
    7.0571   15.0589   22.9750 S   0  0  0  0  0  0  0  0  0  0  0  0
   10.4660    8.8861   24.9253 Br  0  0  0  0  0  0  0  0  0  0  0  0
    8.9967    9.4259   22.2930 H   0  0  0  0  0  0  0  0  0  0  0  0
    9.8513   11.5947   25.9138 H   0  0  0  0  0  0  0  0  0  0  0  0
    7.0910   13.8076   19.4475 H   0  0  0  0  0  0  0  0  0  0  0  0
    5.8816   12.5157   19.6462 H   0  0  0  0  0  0  0  0  0  0  0  0
    5.6574   14.0553   20.4748 H   0  0  0  0  0  0  0  0  0  0  0  0
    5.1626   15.7139   21.6833 H   0  0  0  0  0  0  0  0  0  0  0  0
    6.6230   16.3019   20.9867 H   0  0  0  0  0  0  0  0  0  0  0  0
  1  2  1  0  0  0  0
  1  3  2  0  0  0  0
  1 14  1  0  0  0  0
  2  7  1  0  0  0  0
  2  8  2  0  0  0  0
  3  9  1  0  0  0  0
  3 10  1  0  0  0  0
  4  6  2  0  0  0  0
  4 10  1  0  0  0  0
  5  6  1  0  0  0  0
  5  9  2  0  0  0  0
  6 15  1  0  0  0  0
  8 10  1  0  0  0  0
 11 14  1  0  0  0  0
 12 14  2  0  0  0  0
 13 14  2  0  0  0  0
  4 16  1  0  0  0  0
  5 17  1  0  0  0  0
  7 18  1  0  0  0  0
  7 19  1  0  0  0  0
  7 20  1  0  0  0  0
 11 21  1  0  0  0  0
 11 22  1  0  0  0  0
M  END
> <Mol Weight>
291,12

> <Formula>
C7H7BrN4O2S

> <ID>
EN300-307186

> <name>
Sulfonamides

> <LogP>
0,16

> <ROCS_ShapeQuery>
x0310_0A_x0719_0A_x1080_0A_x0739_0A_x0929_0A_x0526_0A_x0911_0A

> <ROCS_TanimotoCombo>
0.297 

> <ROCS_ShapeTanimoto>
0.158 

> <ROCS_ColorTanimoto>
0.140 

> <ROCS_RefTversky>
0.154 

> <ROCS_RefColorTversky>
0.161 

> <ROCS_RefTverskyCombo>
0.315 

> <ROCS_FitTversky>
1.182 

> <ROCS_FitColorTversky>
0.513 

> <ROCS_FitTverskyCombo>
1.695 

> <ROCS_ColorScore>
-4.691

> <ROCS_Overlap>
1234.118

> <ROCS_Rank>
447                 

$$$$
untitled-dbase-2239_6
  -OEChem-02092407103D

 19 19  0     0  0  0  0  0  0999 V2000
   10.1981   11.5085   23.2975 C   0  0  0  0  0  0  0  0  0  0  0  0
    9.2310   12.3182   22.7124 C   0  0  0  0  0  0  0  0  0  0  0  0
    9.8123   10.4756   24.1447 C   0  0  0  0  0  0  0  0  0  0  0  0
    7.9022   12.0558   23.0043 C   0  0  0  0  0  0  0  0  0  0  0  0
    8.4575   10.2958   24.3727 C   0  0  0  0  0  0  0  0  0  0  0  0
    6.8377   12.9047   22.3938 C   0  0  0  0  0  0  0  0  0  0  0  0
    7.4891   11.0619   23.8223 N   0  0  0  0  0  0  0  0  0  0  0  0
    5.7936   15.3330   22.1393 N   0  0  0  0  0  0  0  0  0  0  0  0
    6.8501   14.6126   24.3712 O   0  0  0  0  0  0  0  0  0  0  0  0
    8.3387   15.0435   22.3752 O   0  0  0  0  0  0  0  0  0  0  0  0
    7.0883   14.5631   22.9386 S   0  0  0  0  0  0  0  0  0  0  0  0
    7.9082    8.8901   25.5261 Br  0  0  0  0  0  0  0  0  0  0  0  0
   11.2503   11.6819   23.0934 H   0  0  0  0  0  0  0  0  0  0  0  0
    9.5191   13.1271   22.0496 H   0  0  0  0  0  0  0  0  0  0  0  0
   10.5636    9.8414   24.6035 H   0  0  0  0  0  0  0  0  0  0  0  0
    5.8327   12.5963   22.7023 H   0  0  0  0  0  0  0  0  0  0  0  0
    6.8794   12.8993   21.2989 H   0  0  0  0  0  0  0  0  0  0  0  0
    5.0053   15.6599   22.7113 H   0  0  0  0  0  0  0  0  0  0  0  0
    6.0191   15.9532   21.3519 H   0  0  0  0  0  0  0  0  0  0  0  0
  1  2  2  0  0  0  0
  1  3  1  0  0  0  0
  2  4  1  0  0  0  0
  3  5  2  0  0  0  0
  4  6  1  0  0  0  0
  4  7  2  0  0  0  0
  5  7  1  0  0  0  0
  5 12  1  0  0  0  0
  6 11  1  0  0  0  0
  8 11  1  0  0  0  0
  9 11  2  0  0  0  0
 10 11  2  0  0  0  0
  1 13  1  0  0  0  0
  2 14  1  0  0  0  0
  3 15  1  0  0  0  0
  6 16  1  0  0  0  0
  6 17  1  0  0  0  0
  8 18  1  0  0  0  0
  8 19  1  0  0  0  0
M  END
> <Mol Weight>
251,10

> <Formula>
C6H7BrN2O2S

> <ID>
EN300-1120749

> <name>
Sulfonamides

> <LogP>
0,48

> <ROCS_ShapeQuery>
x0310_0A_x0719_0A_x1080_0A_x0739_0A_x0929_0A_x0526_0A_x0911_0A

> <ROCS_TanimotoCombo>
0.297 

> <ROCS_ShapeTanimoto>
0.151 

> <ROCS_ColorTanimoto>
0.147 

> <ROCS_RefTversky>
0.145 

> <ROCS_RefColorTversky>
0.160 

> <ROCS_RefTverskyCombo>
0.305 

> <ROCS_FitTversky>
1.316 

> <ROCS_FitColorTversky>
0.643 

> <ROCS_FitTverskyCombo>
1.959 

> <ROCS_ColorScore>
-4.640

> <ROCS_Overlap>
1163.192

> <ROCS_Rank>
448                 

$$$$
untitled-dbase-2570_643
  -OEChem-02092407103D

 24 24  0     0  0  0  0  0  0999 V2000
    9.4365   11.9058   23.7649 C   0  0  0  0  0  0  0  0  0  0  0  0
    7.1060   11.5251   23.2542 C   0  0  0  0  0  0  0  0  0  0  0  0
    9.3112   13.2312   23.3489 C   0  0  0  0  0  0  0  0  0  0  0  0
    6.9807   12.8505   22.8382 C   0  0  0  0  0  0  0  0  0  0  0  0
    8.3339   11.0527   23.7175 C   0  0  0  0  0  0  0  0  0  0  0  0
    8.0833   13.7036   22.8855 C   0  0  0  0  0  0  0  0  0  0  0  0
    9.5372    9.3475   22.0179 C   0  0  0  0  0  0  0  0  0  0  0  0
    9.3902    8.9126   23.4532 C   0  0  0  0  0  0  0  0  0  0  0  0
    6.2792   15.4075   21.9126 N   0  0  0  0  0  0  0  0  0  0  0  0
    8.1211   16.2276   23.5189 O   0  0  0  0  0  0  0  0  0  0  0  0
    8.7426   15.5518   21.1727 O   0  0  0  0  0  0  0  0  0  0  0  0
    8.4560    9.7593   24.1240 O   0  0  0  0  0  0  0  0  0  0  0  0
    9.8683    8.2807   21.2489 F   0  0  0  0  0  0  0  0  0  0  0  0
   10.5562   10.2356   21.9159 F   0  0  0  0  0  0  0  0  0  0  0  0
    8.9648    7.6275   23.4950 F   0  0  0  0  0  0  0  0  0  0  0  0
   10.5959    8.9906   24.0669 F   0  0  0  0  0  0  0  0  0  0  0  0
    7.9265   15.3627   22.3638 S   0  0  0  0  0  0  0  0  0  0  0  0
   10.3955   11.5436   24.1256 H   0  0  0  0  0  0  0  0  0  0  0  0
    6.2436   10.8653   23.2150 H   0  0  0  0  0  0  0  0  0  0  0  0
   10.1766   13.8870   23.3899 H   0  0  0  0  0  0  0  0  0  0  0  0
    6.0196   13.2082   22.4786 H   0  0  0  0  0  0  0  0  0  0  0  0
    8.6264    9.8016   21.6184 H   0  0  0  0  0  0  0  0  0  0  0  0
    5.6288   15.9279   22.5140 H   0  0  0  0  0  0  0  0  0  0  0  0
    6.0549   15.4644   20.9117 H   0  0  0  0  0  0  0  0  0  0  0  0
  1  3  2  0  0  0  0
  1  5  1  0  0  0  0
  2  4  1  0  0  0  0
  2  5  2  0  0  0  0
  3  6  1  0  0  0  0
  4  6  2  0  0  0  0
  5 12  1  0  0  0  0
  6 17  1  0  0  0  0
  7  8  1  0  0  0  0
  7 13  1  0  0  0  0
  7 14  1  0  0  0  0
  8 12  1  0  0  0  0
  8 15  1  0  0  0  0
  8 16  1  0  0  0  0
  9 17  1  0  0  0  0
 10 17  2  0  0  0  0
 11 17  2  0  0  0  0
  1 18  1  0  0  0  0
  2 19  1  0  0  0  0
  3 20  1  0  0  0  0
  4 21  1  0  0  0  0
  7 22  1  0  0  0  0
  9 23  1  0  0  0  0
  9 24  1  0  0  0  0
M  END
> <Mol Weight>
273,20

> <Formula>
C8H7F4NO3S

> <ID>
EN300-37401811

> <name>
Sulfonamides

> <LogP>
1,74

> <ROCS_ShapeQuery>
x0310_0A_x0719_0A_x1080_0A_x0739_0A_x0929_0A_x0526_0A_x0911_0A

> <ROCS_TanimotoCombo>
0.297 

> <ROCS_ShapeTanimoto>
0.168 

> <ROCS_ColorTanimoto>
0.130 

> <ROCS_RefTversky>
0.164 

> <ROCS_RefColorTversky>
0.140 

> <ROCS_RefTverskyCombo>
0.303 

> <ROCS_FitTversky>
1.167 

> <ROCS_FitColorTversky>
0.646 

> <ROCS_FitTverskyCombo>
1.813 

> <ROCS_ColorScore>
-4.049

> <ROCS_Overlap>
1312.265

> <ROCS_Rank>
449                 

$$$$
untitled-dbase-2484_74
  -OEChem-02092407103D

 32 33  0     1  0  0  0  0  0999 V2000
    5.7867   11.2286   20.2711 C   0  0  0  0  0  0  0  0  0  0  0  0
    6.4432   12.1485   21.0859 C   0  0  0  0  0  0  0  0  0  0  0  0
    4.5042   13.6207   21.0377 C   0  0  0  0  0  0  0  0  0  0  0  0
    4.4932   11.5157   19.8553 C   0  0  0  0  0  0  0  0  0  0  0  0
    3.8428   12.6919   20.2475 C   0  0  0  0  0  0  0  0  0  0  0  0
    5.8077   13.3385   21.4616 C   0  0  0  0  0  0  0  0  0  0  0  0
    0.9996   13.3930   22.1804 C   0  0  0  0  0  0  0  0  0  0  0  0
    1.2771   14.2105   21.1625 C   0  0  0  0  0  0  0  0  0  0  0  0
    1.5133   13.6312   19.8285 C   0  0  0  0  0  0  0  0  0  0  0  0
    2.4470   11.6246   18.7078 C   0  0  0  0  0  0  0  0  0  0  0  0
    3.6233   10.6704   18.9687 C   0  0  2  0  0  0  0  0  0  0  0  0
    3.1819    9.3822   19.6517 C   0  0  0  0  0  0  0  0  0  0  0  0
    2.5548   12.7356   19.6713 N   0  0  0  0  0  0  0  0  0  0  0  0
    5.4762   15.7129   22.6276 N   0  0  0  0  0  0  0  0  0  0  0  0
    0.7299   13.9337   18.9255 O   0  0  0  0  0  0  0  0  0  0  0  0
    6.8721   13.8749   23.7760 O   0  0  0  0  0  0  0  0  0  0  0  0
    7.7849   15.0143   21.7226 O   0  0  0  0  0  0  0  0  0  0  0  0
    6.6548   14.4860   22.4729 S   0  0  0  0  0  0  0  0  0  0  0  0
    6.2834   10.3139   19.9676 H   0  0  0  0  0  0  0  0  0  0  0  0
    7.4540   11.9349   21.4227 H   0  0  0  0  0  0  0  0  0  0  0  0
    4.0420   14.5544   21.3396 H   0  0  0  0  0  0  0  0  0  0  0  0
    0.8164   13.7597   23.1848 H   0  0  0  0  0  0  0  0  0  0  0  0
    0.9505   12.3212   22.0198 H   0  0  0  0  0  0  0  0  0  0  0  0
    1.3345   15.2844   21.2831 H   0  0  0  0  0  0  0  0  0  0  0  0
    2.4881   12.0263   17.6894 H   0  0  0  0  0  0  0  0  0  0  0  0
    1.4735   11.1405   18.8466 H   0  0  0  0  0  0  0  0  0  0  0  0
    4.1515   10.4565   18.0468 H   0  0  0  0  0  0  0  0  0  0  0  0
    2.6523    9.6118   20.5769 H   0  0  0  0  0  0  0  0  0  0  0  0
    4.0508    8.7665   19.8862 H   0  0  0  0  0  0  0  0  0  0  0  0
    2.5174    8.8194   18.9952 H   0  0  0  0  0  0  0  0  0  0  0  0
    5.2761   16.2949   21.8050 H   0  0  0  0  0  0  0  0  0  0  0  0
    4.6519   15.5184   23.2090 H   0  0  0  0  0  0  0  0  0  0  0  0
  1  2  2  0  0  0  0
  1  4  1  0  0  0  0
  2  6  1  0  0  0  0
  3  5  1  0  0  0  0
  3  6  2  0  0  0  0
  4  5  2  0  0  0  0
  4 11  1  0  0  0  0
  5 13  1  0  0  0  0
  6 18  1  0  0  0  0
  7  8  2  0  0  0  0
  8  9  1  0  0  0  0
  9 13  1  0  0  0  0
  9 15  2  0  0  0  0
 10 11  1  0  0  0  0
 10 13  1  0  0  0  0
 11 12  1  0  0  0  0
 14 18  1  0  0  0  0
 16 18  2  0  0  0  0
 17 18  2  0  0  0  0
  1 19  1  0  0  0  0
  2 20  1  0  0  0  0
  3 21  1  0  0  0  0
  7 22  1  0  0  0  0
  7 23  1  0  0  0  0
  8 24  1  0  0  0  0
 10 25  1  0  0  0  0
 10 26  1  0  0  0  0
 11 27  1  0  0  0  0
 12 28  1  0  0  0  0
 12 29  1  0  0  0  0
 12 30  1  0  0  0  0
 14 31  1  0  0  0  0
 14 32  1  0  0  0  0
M  END
> <Mol Weight>
266,32

> <Formula>
C12H14N2O3S

> <ID>
EN300-26606575

> <name>
Sulfonamides

> <LogP>
0,84

> <ROCS_ShapeQuery>
x0310_0A_x0719_0A_x1080_0A_x0739_0A_x0929_0A_x0526_0A_x0911_0A

> <ROCS_TanimotoCombo>
0.297 

> <ROCS_ShapeTanimoto>
0.173 

> <ROCS_ColorTanimoto>
0.124 

> <ROCS_RefTversky>
0.169 

> <ROCS_RefColorTversky>
0.141 

> <ROCS_RefTverskyCombo>
0.310 

> <ROCS_FitTversky>
1.164 

> <ROCS_FitColorTversky>
0.503 

> <ROCS_FitTverskyCombo>
1.667 

> <ROCS_ColorScore>
-4.113

> <ROCS_Overlap>
1356.270

> <ROCS_Rank>
450                 

$$$$
untitled-dbase-2667_8
  -OEChem-02092407103D

 24 24  0     0  0  0  0  0  0999 V2000
    8.1947    9.8012   25.9398 C   0  0  0  0  0  0  0  0  0  0  0  0
    9.8056   10.7947   22.7321 C   0  0  0  0  0  0  0  0  0  0  0  0
    9.1394   11.9892   22.4585 C   0  0  0  0  0  0  0  0  0  0  0  0
    7.8507   11.7350   24.4862 C   0  0  0  0  0  0  0  0  0  0  0  0
    8.5169   10.5404   24.7598 C   0  0  0  0  0  0  0  0  0  0  0  0
    9.4943   10.0702   23.8828 C   0  0  0  0  0  0  0  0  0  0  0  0
    8.1620   12.4594   23.3356 C   0  0  0  0  0  0  0  0  0  0  0  0
    6.0927   13.3333   20.6107 C   0  0  0  0  0  0  0  0  0  0  0  0
    5.2363   12.2207   20.0606 C   0  0  0  0  0  0  0  0  0  0  0  0
    7.9331    9.2009   26.8979 N   0  0  0  0  0  0  0  0  0  0  0  0
    5.9872   13.4261   22.0739 N   0  0  0  0  0  0  0  0  0  0  0  0
    6.8416   14.5185   24.2449 O   0  0  0  0  0  0  0  0  0  0  0  0
    8.1906   14.7580   22.1361 O   0  0  0  0  0  0  0  0  0  0  0  0
   10.1419    8.9223   24.1305 F   0  0  0  0  0  0  0  0  0  0  0  0
    5.3490   12.1585   18.7153 F   0  0  0  0  0  0  0  0  0  0  0  0
    5.6066   11.0214   20.5580 F   0  0  0  0  0  0  0  0  0  0  0  0
    3.9323   12.4116   20.3533 F   0  0  0  0  0  0  0  0  0  0  0  0
    7.3281   13.9547   22.9923 S   0  0  0  0  0  0  0  0  0  0  0  0
   10.5663   10.4281   22.0493 H   0  0  0  0  0  0  0  0  0  0  0  0
    9.3900   12.5454   21.5592 H   0  0  0  0  0  0  0  0  0  0  0  0
    7.0877   12.1056   25.1680 H   0  0  0  0  0  0  0  0  0  0  0  0
    5.7871   14.2978   20.1946 H   0  0  0  0  0  0  0  0  0  0  0  0
    7.1456   13.1678   20.3645 H   0  0  0  0  0  0  0  0  0  0  0  0
    5.0422   13.5730   22.4491 H   0  0  0  0  0  0  0  0  0  0  0  0
  1  5  1  0  0  0  0
  1 10  3  0  0  0  0
  2  3  2  0  0  0  0
  2  6  1  0  0  0  0
  3  7  1  0  0  0  0
  4  5  1  0  0  0  0
  4  7  2  0  0  0  0
  5  6  2  0  0  0  0
  6 14  1  0  0  0  0
  7 18  1  0  0  0  0
  8  9  1  0  0  0  0
  8 11  1  0  0  0  0
  9 15  1  0  0  0  0
  9 16  1  0  0  0  0
  9 17  1  0  0  0  0
 11 18  1  0  0  0  0
 12 18  2  0  0  0  0
 13 18  2  0  0  0  0
  2 19  1  0  0  0  0
  3 20  1  0  0  0  0
  4 21  1  0  0  0  0
  8 22  1  0  0  0  0
  8 23  1  0  0  0  0
 11 24  1  0  0  0  0
M  END
> <Mol Weight>
282,21

> <Formula>
C9H6F4N2O2S

> <ID>
EN300-109305

> <name>
Sulfonamides

> <LogP>
1,76

> <ROCS_ShapeQuery>
x0310_0A_x0719_0A_x1080_0A_x0739_0A_x0929_0A_x0526_0A_x0911_0A

> <ROCS_TanimotoCombo>
0.297 

> <ROCS_ShapeTanimoto>
0.181 

> <ROCS_ColorTanimoto>
0.116 

> <ROCS_RefTversky>
0.176 

> <ROCS_RefColorTversky>
0.126 

> <ROCS_RefTverskyCombo>
0.302 

> <ROCS_FitTversky>
1.216 

> <ROCS_FitColorTversky>
0.585 

> <ROCS_FitTverskyCombo>
1.801 

> <ROCS_ColorScore>
-3.665

> <ROCS_Overlap>
1408.435

> <ROCS_Rank>
451                 

$$$$
untitled-dbase-2323_26
  -OEChem-02092407103D

 27 28  0     0  0  0  0  0  0999 V2000
    5.5490   10.5540   20.6888 C   0  0  0  0  0  0  0  0  0  0  0  0
    6.5265   10.5572   21.6838 C   0  0  0  0  0  0  0  0  0  0  0  0
    6.3526   12.9614   21.8468 C   0  0  0  0  0  0  0  0  0  0  0  0
    3.1696   11.8138   17.3620 C   0  0  0  0  0  0  0  0  0  0  0  0
    2.6598   11.6363   19.4935 C   0  0  0  0  0  0  0  0  0  0  0  0
    2.0838   11.6763   18.2473 C   0  0  0  0  0  0  0  0  0  0  0  0
    4.9734   11.7545   20.2727 C   0  0  0  0  0  0  0  0  0  0  0  0
    5.3752   12.9582   20.8517 C   0  0  0  0  0  0  0  0  0  0  0  0
    6.9283   11.7609   22.2628 C   0  0  0  0  0  0  0  0  0  0  0  0
    0.6528   11.5937   17.9151 C   0  0  0  0  0  0  0  0  0  0  0  0
    4.3464   11.8584   17.9923 N   0  0  0  0  0  0  0  0  0  0  0  0
    4.0033   11.7483   19.2870 N   0  0  0  0  0  0  0  0  0  0  0  0
    9.5704   11.9313   22.5713 N   0  0  0  0  0  0  0  0  0  0  0  0
    7.9796   12.9642   24.3171 O   0  0  0  0  0  0  0  0  0  0  0  0
    8.1647   10.4572   24.1486 O   0  0  0  0  0  0  0  0  0  0  0  0
    4.8298   14.1195   20.4617 F   0  0  0  0  0  0  0  0  0  0  0  0
    8.1515   11.7653   23.5087 S   0  0  0  0  0  0  0  0  0  0  0  0
    5.2452    9.6083   20.2466 H   0  0  0  0  0  0  0  0  0  0  0  0
    6.9685    9.6160   22.0005 H   0  0  0  0  0  0  0  0  0  0  0  0
    6.6583   13.9049   22.2912 H   0  0  0  0  0  0  0  0  0  0  0  0
    3.1551   11.8837   16.2835 H   0  0  0  0  0  0  0  0  0  0  0  0
    2.2328   11.5400   20.4833 H   0  0  0  0  0  0  0  0  0  0  0  0
    0.3366   10.5478   17.7570 H   0  0  0  0  0  0  0  0  0  0  0  0
    0.0132   12.0163   18.7111 H   0  0  0  0  0  0  0  0  0  0  0  0
    0.4030   12.1574   16.9978 H   0  0  0  0  0  0  0  0  0  0  0  0
    9.8742   11.1261   22.0102 H   0  0  0  0  0  0  0  0  0  0  0  0
    9.7503   12.8393   22.1258 H   0  0  0  0  0  0  0  0  0  0  0  0
  1  2  2  0  0  0  0
  1  7  1  0  0  0  0
  2  9  1  0  0  0  0
  3  8  1  0  0  0  0
  3  9  2  0  0  0  0
  4  6  1  0  0  0  0
  4 11  2  0  0  0  0
  5  6  2  0  0  0  0
  5 12  1  0  0  0  0
  6 10  1  0  0  0  0
  7  8  2  0  0  0  0
  7 12  1  0  0  0  0
  8 16  1  0  0  0  0
  9 17  1  0  0  0  0
 11 12  1  0  0  0  0
 13 17  1  0  0  0  0
 14 17  2  0  0  0  0
 15 17  2  0  0  0  0
  1 18  1  0  0  0  0
  2 19  1  0  0  0  0
  3 20  1  0  0  0  0
  4 21  1  0  0  0  0
  5 22  1  0  0  0  0
 10 23  1  0  0  0  0
 10 24  1  0  0  0  0
 10 25  1  0  0  0  0
 13 26  1  0  0  0  0
 13 27  1  0  0  0  0
M  END
> <Mol Weight>
255,27

> <Formula>
C10H10FN3O2S

> <ID>
EN300-107077

> <name>
Sulfonamides

> <LogP>
1,32

> <ROCS_ShapeQuery>
x0310_0A_x0719_0A_x1080_0A_x0739_0A_x0929_0A_x0526_0A_x0911_0A

> <ROCS_TanimotoCombo>
0.297 

> <ROCS_ShapeTanimoto>
0.195 

> <ROCS_ColorTanimoto>
0.102 

> <ROCS_RefTversky>
0.186 

> <ROCS_RefColorTversky>
0.116 

> <ROCS_RefTverskyCombo>
0.302 

> <ROCS_FitTversky>
1.309 

> <ROCS_FitColorTversky>
0.467 

> <ROCS_FitTverskyCombo>
1.776 

> <ROCS_ColorScore>
-3.371

> <ROCS_Overlap>
1492.642

> <ROCS_Rank>
452                 

$$$$
untitled-dbase-1787_1
  -OEChem-02092407103D

 20 21  0     0  0  0  0  0  0999 V2000
    8.0599   14.3708   23.9539 C   0  0  0  0  0  0  0  0  0  0  0  0
    8.7668   13.8411   22.9000 C   0  0  0  0  0  0  0  0  0  0  0  0
    8.2053   12.2801   24.3746 C   0  0  0  0  0  0  0  0  0  0  0  0
    8.1733   10.9399   24.8606 C   0  0  0  0  0  0  0  0  0  0  0  0
    8.7640    9.9588   24.1513 C   0  0  0  0  0  0  0  0  0  0  0  0
    9.4397   10.2306   22.8925 C   0  0  0  0  0  0  0  0  0  0  0  0
    9.4744   11.4903   22.4284 C   0  0  0  0  0  0  0  0  0  0  0  0
    7.7158   13.4019   24.8622 N   0  0  0  0  0  0  0  0  0  0  0  0
    8.8619   12.4993   23.1665 N   0  0  0  0  0  0  0  0  0  0  0  0
   11.0122   14.9895   22.0373 N   0  0  0  0  0  0  0  0  0  0  0  0
    9.5733   13.5659   20.4409 O   0  0  0  0  0  0  0  0  0  0  0  0
    8.7197   15.8122   21.1981 O   0  0  0  0  0  0  0  0  0  0  0  0
    9.4596   14.5934   21.4564 S   0  0  0  0  0  0  0  0  0  0  0  0
    7.6312   16.0054   24.1711 Cl  0  0  0  0  0  0  0  0  0  0  0  0
    7.6726   10.7253   25.7981 H   0  0  0  0  0  0  0  0  0  0  0  0
    8.7502    8.9334   24.5046 H   0  0  0  0  0  0  0  0  0  0  0  0
    9.9013    9.4102   22.3568 H   0  0  0  0  0  0  0  0  0  0  0  0
    9.9638   11.7499   21.4981 H   0  0  0  0  0  0  0  0  0  0  0  0
   11.0865   15.7532   22.7204 H   0  0  0  0  0  0  0  0  0  0  0  0
   11.6719   14.2195   22.2021 H   0  0  0  0  0  0  0  0  0  0  0  0
  1  2  2  0  0  0  0
  1  8  1  0  0  0  0
  1 14  1  0  0  0  0
  2  9  1  0  0  0  0
  2 13  1  0  0  0  0
  3  4  1  0  0  0  0
  3  8  2  0  0  0  0
  3  9  1  0  0  0  0
  4  5  2  0  0  0  0
  5  6  1  0  0  0  0
  6  7  2  0  0  0  0
  7  9  1  0  0  0  0
 10 13  1  0  0  0  0
 11 13  2  0  0  0  0
 12 13  2  0  0  0  0
  4 15  1  0  0  0  0
  5 16  1  0  0  0  0
  6 17  1  0  0  0  0
  7 18  1  0  0  0  0
 10 19  1  0  0  0  0
 10 20  1  0  0  0  0
M  END
> <Mol Weight>
231,65

> <Formula>
C7H6ClN3O2S

> <ID>
EN300-59807

> <name>
Sulfonamides

> <LogP>
0,28

> <ROCS_ShapeQuery>
x0310_0A_x0719_0A_x1080_0A_x0739_0A_x0929_0A_x0526_0A_x0911_0A

> <ROCS_TanimotoCombo>
0.297 

> <ROCS_ShapeTanimoto>
0.171 

> <ROCS_ColorTanimoto>
0.126 

> <ROCS_RefTversky>
0.165 

> <ROCS_RefColorTversky>
0.143 

> <ROCS_RefTverskyCombo>
0.308 

> <ROCS_FitTversky>
1.313 

> <ROCS_FitColorTversky>
0.509 

> <ROCS_FitTverskyCombo>
1.821 

> <ROCS_ColorScore>
-4.165

> <ROCS_Overlap>
1319.583

> <ROCS_Rank>
453                 

$$$$
untitled-dbase-978_3
  -OEChem-02092407103D

 22 23  0     0  0  0  0  0  0999 V2000
    7.1737   12.8067   21.3403 C   0  0  0  0  0  0  0  0  0  0  0  0
    7.4710   13.4818   22.5421 C   0  0  0  0  0  0  0  0  0  0  0  0
    8.1731   12.5662   23.2916 C   0  0  0  0  0  0  0  0  0  0  0  0
    9.8686   10.5127   24.0698 C   0  0  0  0  0  0  0  0  0  0  0  0
    8.9514   10.2350   22.8854 C   0  0  0  0  0  0  0  0  0  0  0  0
    9.1447   11.4021   25.0797 C   0  0  0  0  0  0  0  0  0  0  0  0
    7.6555   11.5603   21.3132 N   0  0  0  0  0  0  0  0  0  0  0  0
    8.2674   11.4512   22.5036 N   0  0  0  0  0  0  0  0  0  0  0  0
    6.1867   15.6132   21.5870 N   0  0  0  0  0  0  0  0  0  0  0  0
    6.1068   15.0557   24.1026 O   0  0  0  0  0  0  0  0  0  0  0  0
    8.2550   15.9033   23.0953 O   0  0  0  0  0  0  0  0  0  0  0  0
    8.7251   12.6484   24.5047 O   0  0  0  0  0  0  0  0  0  0  0  0
    7.0480   15.0700   22.9711 S   0  0  0  0  0  0  0  0  0  0  0  0
    6.6273   13.1701   20.4814 H   0  0  0  0  0  0  0  0  0  0  0  0
   10.1925    9.5753   24.5329 H   0  0  0  0  0  0  0  0  0  0  0  0
   10.7632   11.0378   23.7119 H   0  0  0  0  0  0  0  0  0  0  0  0
    9.5188    9.8676   22.0248 H   0  0  0  0  0  0  0  0  0  0  0  0
    8.1775    9.5054   23.1468 H   0  0  0  0  0  0  0  0  0  0  0  0
    8.2658   10.8932   25.4945 H   0  0  0  0  0  0  0  0  0  0  0  0
    9.8135   11.6353   25.9145 H   0  0  0  0  0  0  0  0  0  0  0  0
    5.1675   15.7221   21.6562 H   0  0  0  0  0  0  0  0  0  0  0  0
    6.6365   16.2992   20.9686 H   0  0  0  0  0  0  0  0  0  0  0  0
  1  2  1  0  0  0  0
  1  7  2  0  0  0  0
  2  3  2  0  0  0  0
  2 13  1  0  0  0  0
  3  8  1  0  0  0  0
  3 12  1  0  0  0  0
  4  5  1  0  0  0  0
  4  6  1  0  0  0  0
  5  8  1  0  0  0  0
  6 12  1  0  0  0  0
  7  8  1  0  0  0  0
  9 13  1  0  0  0  0
 10 13  2  0  0  0  0
 11 13  2  0  0  0  0
  1 14  1  0  0  0  0
  4 15  1  0  0  0  0
  4 16  1  0  0  0  0
  5 17  1  0  0  0  0
  5 18  1  0  0  0  0
  6 19  1  0  0  0  0
  6 20  1  0  0  0  0
  9 21  1  0  0  0  0
  9 22  1  0  0  0  0
M  END
> <Mol Weight>
203,22

> <Formula>
C6H9N3O3S

> <ID>
EN300-219833

> <name>
Sulfonamides

> <LogP>
-1,17

> <ROCS_ShapeQuery>
x0310_0A_x0719_0A_x1080_0A_x0739_0A_x0929_0A_x0526_0A_x0911_0A

> <ROCS_TanimotoCombo>
0.297 

> <ROCS_ShapeTanimoto>
0.153 

> <ROCS_ColorTanimoto>
0.144 

> <ROCS_RefTversky>
0.149 

> <ROCS_RefColorTversky>
0.161 

> <ROCS_RefTverskyCombo>
0.310 

> <ROCS_FitTversky>
1.238 

> <ROCS_FitColorTversky>
0.572 

> <ROCS_FitTverskyCombo>
1.810 

> <ROCS_ColorScore>
-4.688

> <ROCS_Overlap>
1193.203

> <ROCS_Rank>
454                 

$$$$
untitled-dbase-1478_38
  -OEChem-02092407103D

 22 22  0     0  0  0  0  0  0999 V2000
    9.1311    9.8765   23.8113 C   0  0  0  0  0  0  0  0  0  0  0  0
    9.6358   10.6242   22.7475 C   0  0  0  0  0  0  0  0  0  0  0  0
    8.1013   11.8642   24.7199 C   0  0  0  0  0  0  0  0  0  0  0  0
    8.3638   10.4964   24.7976 C   0  0  0  0  0  0  0  0  0  0  0  0
    8.6060   12.6119   23.6561 C   0  0  0  0  0  0  0  0  0  0  0  0
    9.3732   11.9919   22.6698 C   0  0  0  0  0  0  0  0  0  0  0  0
    6.3188   15.5835   22.7430 C   0  0  0  0  0  0  0  0  0  0  0  0
    7.8539    9.7400   25.8730 N   0  0  0  0  0  0  0  0  0  0  0  0
    8.3179   14.0129   23.6065 N   0  0  0  0  0  0  0  0  0  0  0  0
    8.6728   15.6351   21.6371 O   0  0  0  0  0  0  0  0  0  0  0  0
    7.2127   13.6161   21.2672 O   0  0  0  0  0  0  0  0  0  0  0  0
    7.7145   14.6648   22.1329 S   0  0  0  0  0  0  0  0  0  0  0  0
   10.0189   12.8820   21.3382 Cl  0  0  0  0  0  0  0  0  0  0  0  0
    9.3423    8.8114   23.8618 H   0  0  0  0  0  0  0  0  0  0  0  0
   10.2320   10.1260   21.9873 H   0  0  0  0  0  0  0  0  0  0  0  0
    7.5025   12.3471   25.4894 H   0  0  0  0  0  0  0  0  0  0  0  0
    5.8258   16.0638   21.8963 H   0  0  0  0  0  0  0  0  0  0  0  0
    5.6386   14.8885   23.2375 H   0  0  0  0  0  0  0  0  0  0  0  0
    6.6813   16.3319   23.4493 H   0  0  0  0  0  0  0  0  0  0  0  0
    7.3452   10.2041   26.5982 H   0  0  0  0  0  0  0  0  0  0  0  0
    8.0887    8.7703   25.9420 H   0  0  0  0  0  0  0  0  0  0  0  0
    9.0145   14.6031   24.0878 H   0  0  0  0  0  0  0  0  0  0  0  0
  1  2  2  0  0  0  0
  1  4  1  0  0  0  0
  2  6  1  0  0  0  0
  3  4  2  0  0  0  0
  3  5  1  0  0  0  0
  4  8  1  0  0  0  0
  5  6  2  0  0  0  0
  5  9  1  0  0  0  0
  6 13  1  0  0  0  0
  7 12  1  0  0  0  0
  9 12  1  0  0  0  0
 10 12  2  0  0  0  0
 11 12  2  0  0  0  0
  1 14  1  0  0  0  0
  2 15  1  0  0  0  0
  3 16  1  0  0  0  0
  7 17  1  0  0  0  0
  7 18  1  0  0  0  0
  7 19  1  0  0  0  0
  8 20  1  0  0  0  0
  8 21  1  0  0  0  0
  9 22  1  0  0  0  0
M  END
> <Mol Weight>
220,67

> <Formula>
C7H9ClN2O2S

> <ID>
EN300-6472530

> <name>
Sulfonamides

> <LogP>
0,12

> <ROCS_ShapeQuery>
x0310_0A_x0719_0A_x1080_0A_x0739_0A_x0929_0A_x0526_0A_x0911_0A

> <ROCS_TanimotoCombo>
0.297 

> <ROCS_ShapeTanimoto>
0.168 

> <ROCS_ColorTanimoto>
0.129 

> <ROCS_RefTversky>
0.161 

> <ROCS_RefColorTversky>
0.142 

> <ROCS_RefTverskyCombo>
0.303 

> <ROCS_FitTversky>
1.388 

> <ROCS_FitColorTversky>
0.574 

> <ROCS_FitTverskyCombo>
1.962 

> <ROCS_ColorScore>
-4.140

> <ROCS_Overlap>
1285.685

> <ROCS_Rank>
455                 

$$$$
untitled-dbase-2317_9
  -OEChem-02092407103D

 24 24  0     0  0  0  0  0  0999 V2000
    9.9518   11.2980   22.8697 C   0  0  0  0  0  0  0  0  0  0  0  0
    9.3833   12.5022   23.2848 C   0  0  0  0  0  0  0  0  0  0  0  0
    9.3810   10.0864   23.2594 C   0  0  0  0  0  0  0  0  0  0  0  0
    7.6733   11.2832   24.4794 C   0  0  0  0  0  0  0  0  0  0  0  0
    8.2441   12.4948   24.0897 C   0  0  0  0  0  0  0  0  0  0  0  0
    8.2418   10.0790   24.0642 C   0  0  0  0  0  0  0  0  0  0  0  0
    6.4517   11.2911   25.3424 C   0  0  0  0  0  0  0  0  0  0  0  0
    7.2590   14.5858   23.4816 C   0  0  0  0  0  0  0  0  0  0  0  0
    8.6281    7.4592   23.7608 N   0  0  0  0  0  0  0  0  0  0  0  0
    7.6952    8.3969   25.9735 O   0  0  0  0  0  0  0  0  0  0  0  0
    6.2416    8.4171   23.9157 O   0  0  0  0  0  0  0  0  0  0  0  0
    7.7041   13.6820   24.4856 O   0  0  0  0  0  0  0  0  0  0  0  0
    7.9852   14.4534   22.3514 F   0  0  0  0  0  0  0  0  0  0  0  0
    7.4194   15.8503   23.9339 F   0  0  0  0  0  0  0  0  0  0  0  0
    5.9493   14.4047   23.2097 F   0  0  0  0  0  0  0  0  0  0  0  0
    7.5536    8.5391   24.5326 S   0  0  0  0  0  0  0  0  0  0  0  0
   10.8390   11.3047   22.2432 H   0  0  0  0  0  0  0  0  0  0  0  0
    9.8335   13.4421   22.9772 H   0  0  0  0  0  0  0  0  0  0  0  0
    9.8323    9.1547   22.9288 H   0  0  0  0  0  0  0  0  0  0  0  0
    5.5501   11.3024   24.7205 H   0  0  0  0  0  0  0  0  0  0  0  0
    6.4209   10.4072   25.9900 H   0  0  0  0  0  0  0  0  0  0  0  0
    6.4378   12.1699   25.9977 H   0  0  0  0  0  0  0  0  0  0  0  0
    9.2777    6.9238   24.3496 H   0  0  0  0  0  0  0  0  0  0  0  0
    8.2843    6.9400   22.9437 H   0  0  0  0  0  0  0  0  0  0  0  0
  1  2  1  0  0  0  0
  1  3  2  0  0  0  0
  2  5  2  0  0  0  0
  3  6  1  0  0  0  0
  4  5  1  0  0  0  0
  4  6  2  0  0  0  0
  4  7  1  0  0  0  0
  5 12  1  0  0  0  0
  6 16  1  0  0  0  0
  8 12  1  0  0  0  0
  8 13  1  0  0  0  0
  8 14  1  0  0  0  0
  8 15  1  0  0  0  0
  9 16  1  0  0  0  0
 10 16  2  0  0  0  0
 11 16  2  0  0  0  0
  1 17  1  0  0  0  0
  2 18  1  0  0  0  0
  3 19  1  0  0  0  0
  7 20  1  0  0  0  0
  7 21  1  0  0  0  0
  7 22  1  0  0  0  0
  9 23  1  0  0  0  0
  9 24  1  0  0  0  0
M  END
> <Mol Weight>
255,21

> <Formula>
C8H8F3NO3S

> <ID>
EN300-11764421

> <name>
Sulfonamides

> <LogP>
2,52

> <ROCS_ShapeQuery>
x0310_0A_x0719_0A_x1080_0A_x0739_0A_x0929_0A_x0526_0A_x0911_0A

> <ROCS_TanimotoCombo>
0.297 

> <ROCS_ShapeTanimoto>
0.191 

> <ROCS_ColorTanimoto>
0.106 

> <ROCS_RefTversky>
0.182 

> <ROCS_RefColorTversky>
0.117 

> <ROCS_RefTverskyCombo>
0.299 

> <ROCS_FitTversky>
1.346 

> <ROCS_FitColorTversky>
0.541 

> <ROCS_FitTverskyCombo>
1.888 

> <ROCS_ColorScore>
-3.393

> <ROCS_Overlap>
1455.693

> <ROCS_Rank>
456                 

$$$$
untitled-dbase-2404_212
  -OEChem-02092407103D

 28 28  0     1  0  0  0  0  0999 V2000
    8.2561   10.1447   24.3855 C   0  0  0  0  0  0  0  0  0  0  0  0
    9.9585   11.0596   22.9358 C   0  0  0  0  0  0  0  0  0  0  0  0
    7.7204   11.4205   24.5617 C   0  0  0  0  0  0  0  0  0  0  0  0
    9.4229   12.3355   23.1119 C   0  0  0  0  0  0  0  0  0  0  0  0
    9.3751    9.9643   23.5725 C   0  0  0  0  0  0  0  0  0  0  0  0
    8.3038   12.5159   23.9249 C   0  0  0  0  0  0  0  0  0  0  0  0
    9.9330    8.6340   23.3881 C   0  0  0  0  0  0  0  0  0  0  0  0
    9.1408    6.5659   22.1839 C   0  0  0  0  0  0  0  0  0  0  0  0
    5.7814   15.2950   23.0365 C   0  0  0  0  0  0  0  0  0  0  0  0
    9.0269    7.3915   23.4540 C   0  0  1  0  0  0  0  0  0  0  0  0
    7.7560   13.8220   24.1059 N   0  0  0  0  0  0  0  0  0  0  0  0
   11.1513    8.4929   23.1575 O   0  0  0  0  0  0  0  0  0  0  0  0
    8.2808   15.9665   22.7732 O   0  0  0  0  0  0  0  0  0  0  0  0
    7.4345   13.9572   21.5117 O   0  0  0  0  0  0  0  0  0  0  0  0
    7.4511   14.7780   22.7063 S   0  0  0  0  0  0  0  0  0  0  0  0
    9.5123    6.4012   24.8623 Cl  0  0  0  0  0  0  0  0  0  0  0  0
    7.7930    9.2983   24.8859 H   0  0  0  0  0  0  0  0  0  0  0  0
   10.8300   10.9313   22.2991 H   0  0  0  0  0  0  0  0  0  0  0  0
    6.8485   11.5501   25.1977 H   0  0  0  0  0  0  0  0  0  0  0  0
    9.8853   13.1821   22.6109 H   0  0  0  0  0  0  0  0  0  0  0  0
   10.1796    6.2741   21.9980 H   0  0  0  0  0  0  0  0  0  0  0  0
    8.5537    5.6427   22.2496 H   0  0  0  0  0  0  0  0  0  0  0  0
    8.7913    7.1313   21.3135 H   0  0  0  0  0  0  0  0  0  0  0  0
    5.4463   15.9250   22.2110 H   0  0  0  0  0  0  0  0  0  0  0  0
    5.1550   14.4054   23.1172 H   0  0  0  0  0  0  0  0  0  0  0  0
    5.7732   15.8550   23.9728 H   0  0  0  0  0  0  0  0  0  0  0  0
    7.9931    7.6869   23.6468 H   0  0  0  0  0  0  0  0  0  0  0  0
    8.1560   14.3428   24.9038 H   0  0  0  0  0  0  0  0  0  0  0  0
  1  3  2  0  0  0  0
  1  5  1  0  0  0  0
  2  4  1  0  0  0  0
  2  5  2  0  0  0  0
  3  6  1  0  0  0  0
  4  6  2  0  0  0  0
  5  7  1  0  0  0  0
  6 11  1  0  0  0  0
  7 10  1  0  0  0  0
  7 12  2  0  0  0  0
  8 10  1  0  0  0  0
  9 15  1  0  0  0  0
 10 16  1  0  0  0  0
 11 15  1  0  0  0  0
 13 15  2  0  0  0  0
 14 15  2  0  0  0  0
  1 17  1  0  0  0  0
  2 18  1  0  0  0  0
  3 19  1  0  0  0  0
  4 20  1  0  0  0  0
  8 21  1  0  0  0  0
  8 22  1  0  0  0  0
  8 23  1  0  0  0  0
  9 24  1  0  0  0  0
  9 25  1  0  0  0  0
  9 26  1  0  0  0  0
 10 27  1  0  0  0  0
 11 28  1  0  0  0  0
M  END
> <Mol Weight>
261,72

> <Formula>
C10H12ClNO3S

> <ID>
EN300-11663

> <name>
Sulfonamides

> <LogP>
1,01

> <ROCS_ShapeQuery>
x0310_0A_x0719_0A_x1080_0A_x0739_0A_x0929_0A_x0526_0A_x0911_0A

> <ROCS_TanimotoCombo>
0.297 

> <ROCS_ShapeTanimoto>
0.177 

> <ROCS_ColorTanimoto>
0.120 

> <ROCS_RefTversky>
0.170 

> <ROCS_RefColorTversky>
0.130 

> <ROCS_RefTverskyCombo>
0.300 

> <ROCS_FitTversky>
1.305 

> <ROCS_FitColorTversky>
0.602 

> <ROCS_FitTverskyCombo>
1.907 

> <ROCS_ColorScore>
-3.770

> <ROCS_Overlap>
1363.721

> <ROCS_Rank>
457                 

$$$$
untitled-dbase-1379_23
  -OEChem-02092407103D

 26 26  0     0  0  0  0  0  0999 V2000
    8.4036   10.0595   24.5019 C   0  0  0  0  0  0  0  0  0  0  0  0
    7.8447   11.3069   24.7797 C   0  0  0  0  0  0  0  0  0  0  0  0
    9.8329   11.0707   22.8371 C   0  0  0  0  0  0  0  0  0  0  0  0
    9.3978    9.9414   23.5306 C   0  0  0  0  0  0  0  0  0  0  0  0
    9.2740   12.3181   23.1149 C   0  0  0  0  0  0  0  0  0  0  0  0
    8.2798   12.4362   24.0862 C   0  0  0  0  0  0  0  0  0  0  0  0
    6.7111   13.6727   25.3769 C   0  0  0  0  0  0  0  0  0  0  0  0
    8.7754   15.8880   21.7388 C   0  0  0  0  0  0  0  0  0  0  0  0
    9.9631    8.6800   23.2502 N   0  0  0  0  0  0  0  0  0  0  0  0
    9.7311   13.4661   22.3960 N   0  0  0  0  0  0  0  0  0  0  0  0
    9.2782   14.0825   19.9347 O   0  0  0  0  0  0  0  0  0  0  0  0
    7.3024   13.7432   21.4600 O   0  0  0  0  0  0  0  0  0  0  0  0
    7.7200   13.6461   24.3697 O   0  0  0  0  0  0  0  0  0  0  0  0
    8.6675   14.1818   21.2473 S   0  0  0  0  0  0  0  0  0  0  0  0
    8.0576    9.1861   25.0487 H   0  0  0  0  0  0  0  0  0  0  0  0
    7.0706   11.3914   25.5378 H   0  0  0  0  0  0  0  0  0  0  0  0
   10.6082   10.9781   22.0793 H   0  0  0  0  0  0  0  0  0  0  0  0
    6.3493   14.6959   25.5045 H   0  0  0  0  0  0  0  0  0  0  0  0
    7.1245   13.3011   26.3179 H   0  0  0  0  0  0  0  0  0  0  0  0
    5.8824   13.0316   25.0670 H   0  0  0  0  0  0  0  0  0  0  0  0
    8.1350   16.4772   21.0806 H   0  0  0  0  0  0  0  0  0  0  0  0
    8.4391   15.9702   22.7735 H   0  0  0  0  0  0  0  0  0  0  0  0
    9.8146   16.2075   21.6477 H   0  0  0  0  0  0  0  0  0  0  0  0
    9.6764    7.8866   23.7870 H   0  0  0  0  0  0  0  0  0  0  0  0
   10.7076    8.6162   22.5856 H   0  0  0  0  0  0  0  0  0  0  0  0
   10.7175   13.4109   22.0950 H   0  0  0  0  0  0  0  0  0  0  0  0
  1  2  2  0  0  0  0
  1  4  1  0  0  0  0
  2  6  1  0  0  0  0
  3  4  2  0  0  0  0
  3  5  1  0  0  0  0
  4  9  1  0  0  0  0
  5  6  2  0  0  0  0
  5 10  1  0  0  0  0
  6 13  1  0  0  0  0
  7 13  1  0  0  0  0
  8 14  1  0  0  0  0
 10 14  1  0  0  0  0
 11 14  2  0  0  0  0
 12 14  2  0  0  0  0
  1 15  1  0  0  0  0
  2 16  1  0  0  0  0
  3 17  1  0  0  0  0
  7 18  1  0  0  0  0
  7 19  1  0  0  0  0
  7 20  1  0  0  0  0
  8 21  1  0  0  0  0
  8 22  1  0  0  0  0
  8 23  1  0  0  0  0
  9 24  1  0  0  0  0
  9 25  1  0  0  0  0
 10 26  1  0  0  0  0
M  END
> <Mol Weight>
216,26

> <Formula>
C8H12N2O3S

> <ID>
EN300-29797

> <name>
Sulfonamides

> <LogP>
-0,64

> <ROCS_ShapeQuery>
x0310_0A_x0719_0A_x1080_0A_x0739_0A_x0929_0A_x0526_0A_x0911_0A

> <ROCS_TanimotoCombo>
0.297 

> <ROCS_ShapeTanimoto>
0.168 

> <ROCS_ColorTanimoto>
0.129 

> <ROCS_RefTversky>
0.161 

> <ROCS_RefColorTversky>
0.146 

> <ROCS_RefTverskyCombo>
0.308 

> <ROCS_FitTversky>
1.320 

> <ROCS_FitColorTversky>
0.522 

> <ROCS_FitTverskyCombo>
1.842 

> <ROCS_ColorScore>
-4.262

> <ROCS_Overlap>
1291.038

> <ROCS_Rank>
458                 

$$$$
untitled-dbase-2785_472
  -OEChem-02092407103D

 33 33  0     0  0  0  0  0  0999 V2000
    3.6524   11.1326   20.1588 C   0  0  0  0  0  0  0  0  0  0  0  0
    2.9689   13.5100   19.6979 C   0  0  0  0  0  0  0  0  0  0  0  0
    4.0067   11.0003   18.6769 C   0  0  0  0  0  0  0  0  0  0  0  0
    3.3391   13.2806   18.2312 C   0  0  0  0  0  0  0  0  0  0  0  0
    3.7352   12.5817   20.6444 C   0  0  0  0  0  0  0  0  0  0  0  0
    7.1897   12.5458   22.0588 C   0  0  0  0  0  0  0  0  0  0  0  0
    5.6661   12.5016   22.0389 C   0  0  0  0  0  0  0  0  0  0  0  0
    7.7336   13.9542   21.8606 C   0  0  0  0  0  0  0  0  0  0  0  0
    3.1792   11.8778   17.8494 N   0  0  0  0  0  0  0  0  0  0  0  0
    5.6189   15.3859   22.5881 N   0  0  0  0  0  0  0  0  0  0  0  0
    5.1103   13.0005   20.7921 N   0  0  0  0  0  0  0  0  0  0  0  0
    7.0943   14.2685   24.3745 O   0  0  0  0  0  0  0  0  0  0  0  0
    7.9910   16.2481   23.0851 O   0  0  0  0  0  0  0  0  0  0  0  0
    7.1918   15.0367   23.1456 S   0  0  0  0  0  0  0  0  0  0  0  0
    2.6287   10.7663   20.3144 H   0  0  0  0  0  0  0  0  0  0  0  0
    4.3051   10.4835   20.7557 H   0  0  0  0  0  0  0  0  0  0  0  0
    3.1360   14.5614   19.9626 H   0  0  0  0  0  0  0  0  0  0  0  0
    1.8930   13.3287   19.8240 H   0  0  0  0  0  0  0  0  0  0  0  0
    5.0696   11.2133   18.5108 H   0  0  0  0  0  0  0  0  0  0  0  0
    3.8401    9.9636   18.3638 H   0  0  0  0  0  0  0  0  0  0  0  0
    2.6857   13.8932   17.6001 H   0  0  0  0  0  0  0  0  0  0  0  0
    4.3666   13.6106   18.0361 H   0  0  0  0  0  0  0  0  0  0  0  0
    3.2556   12.6374   21.6483 H   0  0  0  0  0  0  0  0  0  0  0  0
    7.5718   11.8954   21.2623 H   0  0  0  0  0  0  0  0  0  0  0  0
    7.5643   12.1355   23.0049 H   0  0  0  0  0  0  0  0  0  0  0  0
    5.3001   11.4801   22.1831 H   0  0  0  0  0  0  0  0  0  0  0  0
    5.2615   13.1265   22.8411 H   0  0  0  0  0  0  0  0  0  0  0  0
    8.8275   13.9640   21.8781 H   0  0  0  0  0  0  0  0  0  0  0  0
    7.3914   14.3908   20.9178 H   0  0  0  0  0  0  0  0  0  0  0  0
    2.2003   11.6111   17.9508 H   0  0  0  0  0  0  0  0  0  0  0  0
    4.8278   14.9823   23.1046 H   0  0  0  0  0  0  0  0  0  0  0  0
    5.4385   16.3305   22.2263 H   0  0  0  0  0  0  0  0  0  0  0  0
    5.1446   14.0166   20.7852 H   0  0  0  0  0  0  0  0  0  0  0  0
  1  3  1  0  0  0  0
  1  5  1  0  0  0  0
  2  4  1  0  0  0  0
  2  5  1  0  0  0  0
  3  9  1  0  0  0  0
  4  9  1  0  0  0  0
  5 11  1  0  0  0  0
  6  7  1  0  0  0  0
  6  8  1  0  0  0  0
  7 11  1  0  0  0  0
  8 14  1  0  0  0  0
 10 14  1  0  0  0  0
 12 14  2  0  0  0  0
 13 14  2  0  0  0  0
  1 15  1  0  0  0  0
  1 16  1  0  0  0  0
  2 17  1  0  0  0  0
  2 18  1  0  0  0  0
  3 19  1  0  0  0  0
  3 20  1  0  0  0  0
  4 21  1  0  0  0  0
  4 22  1  0  0  0  0
  5 23  1  0  0  0  0
  6 24  1  0  0  0  0
  6 25  1  0  0  0  0
  7 26  1  0  0  0  0
  7 27  1  0  0  0  0
  8 28  1  0  0  0  0
  8 29  1  0  0  0  0
  9 30  1  0  0  0  0
 10 31  1  0  0  0  0
 10 32  1  0  0  0  0
 11 33  1  0  0  0  0
M  END
> <Mol Weight>
294,24

> <Formula>
C8H21Cl2N3O2S

> <ID>
EN300-45589995

> <name>
Sulfonamides

> <LogP>
-2,19

> <ROCS_ShapeQuery>
x0310_0A_x0719_0A_x1080_0A_x0739_0A_x0929_0A_x0526_0A_x0911_0A

> <ROCS_TanimotoCombo>
0.297 

> <ROCS_ShapeTanimoto>
0.153 

> <ROCS_ColorTanimoto>
0.144 

> <ROCS_RefTversky>
0.148 

> <ROCS_RefColorTversky>
0.165 

> <ROCS_RefTverskyCombo>
0.313 

> <ROCS_FitTversky>
1.260 

> <ROCS_FitColorTversky>
0.527 

> <ROCS_FitTverskyCombo>
1.787 

> <ROCS_ColorScore>
-4.807

> <ROCS_Overlap>
1188.670

> <ROCS_Rank>
459                 

$$$$
untitled-dbase-199_0
  -OEChem-02092407103D

 13 13  0     0  0  0  0  0  0999 V2000
    9.7607   11.8109   23.6927 C   0  0  0  0  0  0  0  0  0  0  0  0
    9.7086   10.4225   24.0058 C   0  0  0  0  0  0  0  0  0  0  0  0
    8.4916   12.2891   23.4485 C   0  0  0  0  0  0  0  0  0  0  0  0
    8.5100    9.8441   24.0123 N   0  0  0  0  0  0  0  0  0  0  0  0
    9.2205   14.8037   22.9484 N   0  0  0  0  0  0  0  0  0  0  0  0
    7.2427   13.7383   21.6840 O   0  0  0  0  0  0  0  0  0  0  0  0
    6.9845   14.3026   24.1258 O   0  0  0  0  0  0  0  0  0  0  0  0
    7.3789   10.9993   23.6272 S   0  0  0  0  0  0  0  0  0  0  0  0
    7.8108   13.8417   23.0199 S   0  0  0  0  0  0  0  0  0  0  0  0
   10.6596   12.4111   23.6499 H   0  0  0  0  0  0  0  0  0  0  0  0
   10.5601    9.7980   24.2392 H   0  0  0  0  0  0  0  0  0  0  0  0
    9.6889   15.0378   23.8323 H   0  0  0  0  0  0  0  0  0  0  0  0
    9.8659   14.6547   22.1633 H   0  0  0  0  0  0  0  0  0  0  0  0
  1  2  1  0  0  0  0
  1  3  2  0  0  0  0
  2  4  2  0  0  0  0
  3  8  1  0  0  0  0
  3  9  1  0  0  0  0
  4  8  1  0  0  0  0
  5  9  1  0  0  0  0
  6  9  2  0  0  0  0
  7  9  2  0  0  0  0
  1 10  1  0  0  0  0
  2 11  1  0  0  0  0
  5 12  1  0  0  0  0
  5 13  1  0  0  0  0
M  END
> <Mol Weight>
164,20

> <Formula>
C3H4N2O2S2

> <ID>
EN300-1617458

> <name>
Sulfonamides

> <LogP>
-0,29

> <ROCS_ShapeQuery>
x0310_0A_x0719_0A_x1080_0A_x0739_0A_x0929_0A_x0526_0A_x0911_0A

> <ROCS_TanimotoCombo>
0.297 

> <ROCS_ShapeTanimoto>
0.127 

> <ROCS_ColorTanimoto>
0.169 

> <ROCS_RefTversky>
0.124 

> <ROCS_RefColorTversky>
0.176 

> <ROCS_RefTverskyCombo>
0.300 

> <ROCS_FitTversky>
1.312 

> <ROCS_FitColorTversky>
0.814 

> <ROCS_FitTverskyCombo>
2.126 

> <ROCS_ColorScore>
-5.104

> <ROCS_Overlap>
988.734

> <ROCS_Rank>
460                 

$$$$
untitled-dbase-492_273
  -OEChem-02092407103D

 22 22  0     0  0  0  0  0  0999 V2000
    8.9848    9.9386   22.9620 C   0  0  0  0  0  0  0  0  0  0  0  0
    8.4021    9.8579   24.2219 C   0  0  0  0  0  0  0  0  0  0  0  0
    9.3656   11.1765   22.4563 C   0  0  0  0  0  0  0  0  0  0  0  0
    8.2234   11.0352   24.9304 C   0  0  0  0  0  0  0  0  0  0  0  0
    9.1436   12.2948   23.2437 C   0  0  0  0  0  0  0  0  0  0  0  0
    8.4503   16.0022   25.8396 C   0  0  0  0  0  0  0  0  0  0  0  0
    9.5421   13.6478   22.7293 C   0  0  0  0  0  0  0  0  0  0  0  0
    8.5804   12.2559   24.4721 N   0  0  0  0  0  0  0  0  0  0  0  0
    9.5587   14.6617   23.7990 N   0  0  0  0  0  0  0  0  0  0  0  0
    6.9992   14.5998   24.1729 O   0  0  0  0  0  0  0  0  0  0  0  0
    8.0912   16.7210   23.3577 O   0  0  0  0  0  0  0  0  0  0  0  0
    8.1244   15.5140   24.1611 S   0  0  0  0  0  0  0  0  0  0  0  0
    9.1418    9.0383   22.3755 H   0  0  0  0  0  0  0  0  0  0  0  0
    8.0975    8.9037   24.6362 H   0  0  0  0  0  0  0  0  0  0  0  0
    9.8212   11.2530   21.4748 H   0  0  0  0  0  0  0  0  0  0  0  0
    7.7735   11.0262   25.9177 H   0  0  0  0  0  0  0  0  0  0  0  0
    7.5932   16.5696   26.2058 H   0  0  0  0  0  0  0  0  0  0  0  0
    8.5967   15.1017   26.4379 H   0  0  0  0  0  0  0  0  0  0  0  0
    9.3501   16.6192   25.8501 H   0  0  0  0  0  0  0  0  0  0  0  0
   10.5419   13.6121   22.2830 H   0  0  0  0  0  0  0  0  0  0  0  0
    8.8513   13.9920   21.9524 H   0  0  0  0  0  0  0  0  0  0  0  0
   10.4403   15.1872   23.8622 H   0  0  0  0  0  0  0  0  0  0  0  0
  1  2  1  0  0  0  0
  1  3  2  0  0  0  0
  2  4  2  0  0  0  0
  3  5  1  0  0  0  0
  4  8  1  0  0  0  0
  5  7  1  0  0  0  0
  5  8  2  0  0  0  0
  6 12  1  0  0  0  0
  7  9  1  0  0  0  0
  9 12  1  0  0  0  0
 10 12  2  0  0  0  0
 11 12  2  0  0  0  0
  1 13  1  0  0  0  0
  2 14  1  0  0  0  0
  3 15  1  0  0  0  0
  4 16  1  0  0  0  0
  6 17  1  0  0  0  0
  6 18  1  0  0  0  0
  6 19  1  0  0  0  0
  7 20  1  0  0  0  0
  7 21  1  0  0  0  0
  9 22  1  0  0  0  0
M  END
> <Mol Weight>
186,23

> <Formula>
C7H10N2O2S

> <ID>
EN300-30688

> <name>
Sulfonamides

> <LogP>
-0,72

> <ROCS_ShapeQuery>
x0310_0A_x0719_0A_x1080_0A_x0739_0A_x0929_0A_x0526_0A_x0911_0A

> <ROCS_TanimotoCombo>
0.297 

> <ROCS_ShapeTanimoto>
0.160 

> <ROCS_ColorTanimoto>
0.137 

> <ROCS_RefTversky>
0.153 

> <ROCS_RefColorTversky>
0.146 

> <ROCS_RefTverskyCombo>
0.299 

> <ROCS_FitTversky>
1.375 

> <ROCS_FitColorTversky>
0.678 

> <ROCS_FitTverskyCombo>
2.053 

> <ROCS_ColorScore>
-4.247

> <ROCS_Overlap>
1224.683

> <ROCS_Rank>
461                 

$$$$
untitled-dbase-2469_103
  -OEChem-02092407103D

 26 26  0     0  0  0  0  0  0999 V2000
    9.4205   12.9896   20.6104 C   0  0  0  0  0  0  0  0  0  0  0  0
    8.7337   14.0262   21.2422 C   0  0  0  0  0  0  0  0  0  0  0  0
    8.9855   11.5493   22.5008 C   0  0  0  0  0  0  0  0  0  0  0  0
    9.5463   11.7510   21.2396 C   0  0  0  0  0  0  0  0  0  0  0  0
    8.2988   12.5860   23.1326 C   0  0  0  0  0  0  0  0  0  0  0  0
    8.1729   13.8245   22.5033 C   0  0  0  0  0  0  0  0  0  0  0  0
    9.1148   10.2569   23.1556 C   0  0  0  0  0  0  0  0  0  0  0  0
    5.2727   16.5766   22.1419 C   0  0  0  0  0  0  0  0  0  0  0  0
   10.5104    8.3337   23.3682 C   0  0  0  0  0  0  0  0  0  0  0  0
    5.9010   15.2621   22.3365 N   0  0  0  0  0  0  0  0  0  0  0  0
    8.2860    9.7866   23.9459 O   0  0  0  0  0  0  0  0  0  0  0  0
    6.9331   14.6958   24.6279 O   0  0  0  0  0  0  0  0  0  0  0  0
    8.1023   16.3403   23.1270 O   0  0  0  0  0  0  0  0  0  0  0  0
   10.2691    9.6205   22.7889 O   0  0  0  0  0  0  0  0  0  0  0  0
   10.2065   10.7611   20.6219 F   0  0  0  0  0  0  0  0  0  0  0  0
    7.7593   12.3918   24.3455 F   0  0  0  0  0  0  0  0  0  0  0  0
    7.3136   15.1263   23.2888 S   0  0  0  0  0  0  0  0  0  0  0  0
    9.8553   13.1441   19.6273 H   0  0  0  0  0  0  0  0  0  0  0  0
    8.6411   14.9867   20.7423 H   0  0  0  0  0  0  0  0  0  0  0  0
    6.0313   17.3658   22.2498 H   0  0  0  0  0  0  0  0  0  0  0  0
    4.8321   16.6269   21.1352 H   0  0  0  0  0  0  0  0  0  0  0  0
    4.4840   16.7209   22.8950 H   0  0  0  0  0  0  0  0  0  0  0  0
   11.4580    7.9374   22.9954 H   0  0  0  0  0  0  0  0  0  0  0  0
    9.6926    7.6569   23.1080 H   0  0  0  0  0  0  0  0  0  0  0  0
   10.5634    8.4372   24.4545 H   0  0  0  0  0  0  0  0  0  0  0  0
    5.2785   14.4488   22.2568 H   0  0  0  0  0  0  0  0  0  0  0  0
  1  2  2  0  0  0  0
  1  4  1  0  0  0  0
  2  6  1  0  0  0  0
  3  4  2  0  0  0  0
  3  5  1  0  0  0  0
  3  7  1  0  0  0  0
  4 15  1  0  0  0  0
  5  6  2  0  0  0  0
  5 16  1  0  0  0  0
  6 17  1  0  0  0  0
  7 11  2  0  0  0  0
  7 14  1  0  0  0  0
  8 10  1  0  0  0  0
  9 14  1  0  0  0  0
 10 17  1  0  0  0  0
 12 17  2  0  0  0  0
 13 17  2  0  0  0  0
  1 18  1  0  0  0  0
  2 19  1  0  0  0  0
  8 20  1  0  0  0  0
  8 21  1  0  0  0  0
  8 22  1  0  0  0  0
  9 23  1  0  0  0  0
  9 24  1  0  0  0  0
  9 25  1  0  0  0  0
 10 26  1  0  0  0  0
M  END
> <Mol Weight>
265,23

> <Formula>
C9H9F2NO4S

> <ID>
EN300-170018

> <name>
Sulfonamides

> <LogP>
1,09

> <ROCS_ShapeQuery>
x0310_0A_x0719_0A_x1080_0A_x0739_0A_x0929_0A_x0526_0A_x0911_0A

> <ROCS_TanimotoCombo>
0.297 

> <ROCS_ShapeTanimoto>
0.178 

> <ROCS_ColorTanimoto>
0.118 

> <ROCS_RefTversky>
0.172 

> <ROCS_RefColorTversky>
0.129 

> <ROCS_RefTverskyCombo>
0.301 

> <ROCS_FitTversky>
1.237 

> <ROCS_FitColorTversky>
0.596 

> <ROCS_FitTverskyCombo>
1.833 

> <ROCS_ColorScore>
-3.732

> <ROCS_Overlap>
1381.195

> <ROCS_Rank>
462                 

$$$$
untitled-dbase-1892_10
  -OEChem-02092407103D

 25 25  0     0  0  0  0  0  0999 V2000
    8.5606    9.8317   24.0145 C   0  0  0  0  0  0  0  0  0  0  0  0
    9.5060   10.1853   23.0518 C   0  0  0  0  0  0  0  0  0  0  0  0
    7.8675   10.8234   24.7086 C   0  0  0  0  0  0  0  0  0  0  0  0
    9.7583   11.5306   22.7832 C   0  0  0  0  0  0  0  0  0  0  0  0
    8.1198   12.1687   24.4400 C   0  0  0  0  0  0  0  0  0  0  0  0
    9.0652   12.5223   23.4773 C   0  0  0  0  0  0  0  0  0  0  0  0
    7.3648   13.2133   25.1947 C   0  0  0  0  0  0  0  0  0  0  0  0
    9.3528   13.9559   23.1730 C   0  0  0  0  0  0  0  0  0  0  0  0
    6.6009   14.0698   24.3247 N   0  0  0  0  0  0  0  0  0  0  0  0
    9.8070   13.6802   20.5713 N   0  0  0  0  0  0  0  0  0  0  0  0
    7.4034   13.5579   21.4793 O   0  0  0  0  0  0  0  0  0  0  0  0
    8.6093   15.7784   21.4544 O   0  0  0  0  0  0  0  0  0  0  0  0
    8.6250   14.3338   21.6123 S   0  0  0  0  0  0  0  0  0  0  0  0
    8.3651    8.7842   24.2239 H   0  0  0  0  0  0  0  0  0  0  0  0
   10.0456    9.4125   22.5120 H   0  0  0  0  0  0  0  0  0  0  0  0
    7.1340   10.5374   25.4580 H   0  0  0  0  0  0  0  0  0  0  0  0
   10.4964   11.7960   22.0309 H   0  0  0  0  0  0  0  0  0  0  0  0
    6.6654   12.7561   25.9075 H   0  0  0  0  0  0  0  0  0  0  0  0
    8.0401   13.8538   25.7769 H   0  0  0  0  0  0  0  0  0  0  0  0
   10.4271   14.1567   23.1030 H   0  0  0  0  0  0  0  0  0  0  0  0
    8.9223   14.6319   23.9195 H   0  0  0  0  0  0  0  0  0  0  0  0
    5.9158   13.5254   23.8426 H   0  0  0  0  0  0  0  0  0  0  0  0
    6.1473   14.7738   24.8694 H   0  0  0  0  0  0  0  0  0  0  0  0
    9.5685   12.8247   20.0548 H   0  0  0  0  0  0  0  0  0  0  0  0
   10.3899   14.3370   20.0380 H   0  0  0  0  0  0  0  0  0  0  0  0
  1  2  1  0  0  0  0
  1  3  2  0  0  0  0
  2  4  2  0  0  0  0
  3  5  1  0  0  0  0
  4  6  1  0  0  0  0
  5  6  2  0  0  0  0
  5  7  1  0  0  0  0
  6  8  1  0  0  0  0
  7  9  1  0  0  0  0
  8 13  1  0  0  0  0
 10 13  1  0  0  0  0
 11 13  2  0  0  0  0
 12 13  2  0  0  0  0
  1 14  1  0  0  0  0
  2 15  1  0  0  0  0
  3 16  1  0  0  0  0
  4 17  1  0  0  0  0
  7 18  1  0  0  0  0
  7 19  1  0  0  0  0
  8 20  1  0  0  0  0
  8 21  1  0  0  0  0
  9 22  1  0  0  0  0
  9 23  1  0  0  0  0
 10 24  1  0  0  0  0
 10 25  1  0  0  0  0
M  END
> <Mol Weight>
236,71

> <Formula>
C8H13ClN2O2S

> <ID>
EN300-1664746

> <name>
Sulfonamides

> <LogP>
-0,62

> <ROCS_ShapeQuery>
x0310_0A_x0719_0A_x1080_0A_x0739_0A_x0929_0A_x0526_0A_x0911_0A

> <ROCS_TanimotoCombo>
0.296 

> <ROCS_ShapeTanimoto>
0.165 

> <ROCS_ColorTanimoto>
0.132 

> <ROCS_RefTversky>
0.158 

> <ROCS_RefColorTversky>
0.145 

> <ROCS_RefTverskyCombo>
0.303 

> <ROCS_FitTversky>
1.360 

> <ROCS_FitColorTversky>
0.585 

> <ROCS_FitTverskyCombo>
1.945 

> <ROCS_ColorScore>
-4.222

> <ROCS_Overlap>
1263.938

> <ROCS_Rank>
463                 

$$$$
untitled-dbase-2467_8
  -OEChem-02092407103D

 22 22  0     0  0  0  0  0  0999 V2000
    7.3551   11.4987   23.6963 C   0  0  0  0  0  0  0  0  0  0  0  0
    7.5775   10.3110   24.3744 C   0  0  0  0  0  0  0  0  0  0  0  0
    9.7247   10.1516   23.5732 C   0  0  0  0  0  0  0  0  0  0  0  0
    8.3922   12.0120   22.9256 C   0  0  0  0  0  0  0  0  0  0  0  0
    9.6029   11.3317   22.8574 C   0  0  0  0  0  0  0  0  0  0  0  0
    8.1633   13.2921   22.1902 C   0  0  0  0  0  0  0  0  0  0  0  0
    8.2005   14.5291   23.0900 C   0  0  0  0  0  0  0  0  0  0  0  0
    8.7397    9.6217   24.3326 N   0  0  0  0  0  0  0  0  0  0  0  0
    6.3154   15.6829   21.6182 N   0  0  0  0  0  0  0  0  0  0  0  0
    7.7883   17.1079   23.1728 O   0  0  0  0  0  0  0  0  0  0  0  0
    8.7981   16.0983   21.0880 O   0  0  0  0  0  0  0  0  0  0  0  0
    7.8776   16.0246   22.2092 S   0  0  0  0  0  0  0  0  0  0  0  0
   11.0633   11.9574   21.8351 Br  0  0  0  0  0  0  0  0  0  0  0  0
    6.3984   12.0043   23.7710 H   0  0  0  0  0  0  0  0  0  0  0  0
    6.8005    9.8687   24.9893 H   0  0  0  0  0  0  0  0  0  0  0  0
   10.6425    9.5712   23.5637 H   0  0  0  0  0  0  0  0  0  0  0  0
    7.1773   13.2575   21.6971 H   0  0  0  0  0  0  0  0  0  0  0  0
    8.8941   13.4155   21.3734 H   0  0  0  0  0  0  0  0  0  0  0  0
    7.4267   14.4629   23.8617 H   0  0  0  0  0  0  0  0  0  0  0  0
    9.1696   14.6493   23.5837 H   0  0  0  0  0  0  0  0  0  0  0  0
    6.2288   14.9803   20.8736 H   0  0  0  0  0  0  0  0  0  0  0  0
    5.5413   15.6682   22.2935 H   0  0  0  0  0  0  0  0  0  0  0  0
  1  2  2  0  0  0  0
  1  4  1  0  0  0  0
  2  8  1  0  0  0  0
  3  5  1  0  0  0  0
  3  8  2  0  0  0  0
  4  5  2  0  0  0  0
  4  6  1  0  0  0  0
  5 13  1  0  0  0  0
  6  7  1  0  0  0  0
  7 12  1  0  0  0  0
  9 12  1  0  0  0  0
 10 12  2  0  0  0  0
 11 12  2  0  0  0  0
  1 14  1  0  0  0  0
  2 15  1  0  0  0  0
  3 16  1  0  0  0  0
  6 17  1  0  0  0  0
  6 18  1  0  0  0  0
  7 19  1  0  0  0  0
  7 20  1  0  0  0  0
  9 21  1  0  0  0  0
  9 22  1  0  0  0  0
M  END
> <Mol Weight>
265,13

> <Formula>
C7H9BrN2O2S

> <ID>
EN300-7456597

> <name>
Sulfonamides

> <LogP>
0,18

> <ROCS_ShapeQuery>
x0310_0A_x0719_0A_x1080_0A_x0739_0A_x0929_0A_x0526_0A_x0911_0A

> <ROCS_TanimotoCombo>
0.296 

> <ROCS_ShapeTanimoto>
0.145 

> <ROCS_ColorTanimoto>
0.152 

> <ROCS_RefTversky>
0.141 

> <ROCS_RefColorTversky>
0.164 

> <ROCS_RefTverskyCombo>
0.305 

> <ROCS_FitTversky>
1.229 

> <ROCS_FitColorTversky>
0.662 

> <ROCS_FitTverskyCombo>
1.891 

> <ROCS_ColorScore>
-4.779

> <ROCS_Overlap>
1127.420

> <ROCS_Rank>
464                 

$$$$
untitled-dbase-2078_69
  -OEChem-02092407103D

 29 29  0     0  0  0  0  0  0999 V2000
    4.5352   11.3147   18.8954 C   0  0  0  0  0  0  0  0  0  0  0  0
    3.6975   12.2721   20.9494 C   0  0  0  0  0  0  0  0  0  0  0  0
    3.3555   11.6772   18.2453 C   0  0  0  0  0  0  0  0  0  0  0  0
    2.5178   12.6346   20.2993 C   0  0  0  0  0  0  0  0  0  0  0  0
    4.7062   11.6121   20.2475 C   0  0  0  0  0  0  0  0  0  0  0  0
    2.3468   12.3372   18.9473 C   0  0  0  0  0  0  0  0  0  0  0  0
    6.8227   12.0856   21.5409 C   0  0  0  0  0  0  0  0  0  0  0  0
    8.5160   12.1889   23.3952 C   0  0  0  0  0  0  0  0  0  0  0  0
    7.2332   10.1059   23.0397 C   0  0  0  0  0  0  0  0  0  0  0  0
   -0.0855   11.3981   18.3933 N   0  0  0  0  0  0  0  0  0  0  0  0
    5.9046   11.2439   20.9079 N   0  0  0  0  0  0  0  0  0  0  0  0
    7.5025   11.4807   22.6236 N   0  0  0  0  0  0  0  0  0  0  0  0
    7.0544   13.2460   21.1947 O   0  0  0  0  0  0  0  0  0  0  0  0
    0.2750   13.9093   18.8513 O   0  0  0  0  0  0  0  0  0  0  0  0
    1.1449   12.9096   16.7085 O   0  0  0  0  0  0  0  0  0  0  0  0
    0.8701   12.7906   18.1337 S   0  0  0  0  0  0  0  0  0  0  0  0
    5.3145   10.8006   18.3385 H   0  0  0  0  0  0  0  0  0  0  0  0
    3.8200   12.5091   22.0032 H   0  0  0  0  0  0  0  0  0  0  0  0
    3.2325   11.4405   17.1919 H   0  0  0  0  0  0  0  0  0  0  0  0
    1.7385   13.1485   20.8556 H   0  0  0  0  0  0  0  0  0  0  0  0
    8.0387   12.7075   24.2397 H   0  0  0  0  0  0  0  0  0  0  0  0
    9.2549   11.4692   23.7774 H   0  0  0  0  0  0  0  0  0  0  0  0
    9.0197   12.9243   22.7507 H   0  0  0  0  0  0  0  0  0  0  0  0
    7.8981    9.4202   22.4941 H   0  0  0  0  0  0  0  0  0  0  0  0
    7.4128   10.0081   24.1205 H   0  0  0  0  0  0  0  0  0  0  0  0
    6.1855    9.8543   22.8179 H   0  0  0  0  0  0  0  0  0  0  0  0
   -0.8692   11.4677   19.0539 H   0  0  0  0  0  0  0  0  0  0  0  0
   -0.2725   10.7853   17.5904 H   0  0  0  0  0  0  0  0  0  0  0  0
    6.1215   10.2524   20.9228 H   0  0  0  0  0  0  0  0  0  0  0  0
  1  3  2  0  0  0  0
  1  5  1  0  0  0  0
  2  4  1  0  0  0  0
  2  5  2  0  0  0  0
  3  6  1  0  0  0  0
  4  6  2  0  0  0  0
  5 11  1  0  0  0  0
  6 16  1  0  0  0  0
  7 11  1  0  0  0  0
  7 12  1  0  0  0  0
  7 13  2  0  0  0  0
  8 12  1  0  0  0  0
  9 12  1  0  0  0  0
 10 16  1  0  0  0  0
 14 16  2  0  0  0  0
 15 16  2  0  0  0  0
  1 17  1  0  0  0  0
  2 18  1  0  0  0  0
  3 19  1  0  0  0  0
  4 20  1  0  0  0  0
  8 21  1  0  0  0  0
  8 22  1  0  0  0  0
  8 23  1  0  0  0  0
  9 24  1  0  0  0  0
  9 25  1  0  0  0  0
  9 26  1  0  0  0  0
 10 27  1  0  0  0  0
 10 28  1  0  0  0  0
 11 29  1  0  0  0  0
M  END
> <Mol Weight>
243,28

> <Formula>
C9H13N3O3S

> <ID>
EN300-23369469

> <name>
Sulfonamides

> <LogP>
-0,07

> <ROCS_ShapeQuery>
x0310_0A_x0719_0A_x1080_0A_x0739_0A_x0929_0A_x0526_0A_x0911_0A

> <ROCS_TanimotoCombo>
0.296 

> <ROCS_ShapeTanimoto>
0.184 

> <ROCS_ColorTanimoto>
0.112 

> <ROCS_RefTversky>
0.176 

> <ROCS_RefColorTversky>
0.125 

> <ROCS_RefTverskyCombo>
0.302 

> <ROCS_FitTversky>
1.331 

> <ROCS_FitColorTversky>
0.505 

> <ROCS_FitTverskyCombo>
1.836 

> <ROCS_ColorScore>
-3.646

> <ROCS_Overlap>
1412.124

> <ROCS_Rank>
465                 

$$$$
untitled-dbase-2116_192
  -OEChem-02092407103D

 26 26  0     0  0  0  0  0  0999 V2000
    3.8207   12.8516   20.9057 C   0  0  0  0  0  0  0  0  0  0  0  0
    4.5618   11.5586   19.0041 C   0  0  0  0  0  0  0  0  0  0  0  0
    2.5957   13.0743   20.2769 C   0  0  0  0  0  0  0  0  0  0  0  0
    3.3368   11.7813   18.3753 C   0  0  0  0  0  0  0  0  0  0  0  0
    4.8038   12.0938   20.2693 C   0  0  0  0  0  0  0  0  0  0  0  0
    2.3537   12.5391   19.0118 C   0  0  0  0  0  0  0  0  0  0  0  0
    7.2925   12.8575   22.9243 C   0  0  0  0  0  0  0  0  0  0  0  0
    6.1140   11.8562   20.9410 C   0  0  0  0  0  0  0  0  0  0  0  0
    8.2568   11.8878   22.9325 N   0  0  0  0  0  0  0  0  0  0  0  0
   -0.0796   11.4751   18.7851 N   0  0  0  0  0  0  0  0  0  0  0  0
    6.4907   12.9442   21.8074 N   0  0  0  0  0  0  0  0  0  0  0  0
    0.2366   14.0335   18.7714 O   0  0  0  0  0  0  0  0  0  0  0  0
    1.0068   12.6854   16.7872 O   0  0  0  0  0  0  0  0  0  0  0  0
    7.0982   13.8971   24.2204 S   0  0  0  0  0  0  0  0  0  0  0  0
    0.8197   12.8158   18.2255 S   0  0  0  0  0  0  0  0  0  0  0  0
    4.0004   13.2728   21.8913 H   0  0  0  0  0  0  0  0  0  0  0  0
    5.3220   10.9673   18.5005 H   0  0  0  0  0  0  0  0  0  0  0  0
    1.8368   13.6666   20.7814 H   0  0  0  0  0  0  0  0  0  0  0  0
    3.1590   11.3600   17.3894 H   0  0  0  0  0  0  0  0  0  0  0  0
    6.0862   10.9427   21.5515 H   0  0  0  0  0  0  0  0  0  0  0  0
    6.9236   11.7245   20.2100 H   0  0  0  0  0  0  0  0  0  0  0  0
    8.3972   11.2462   22.1603 H   0  0  0  0  0  0  0  0  0  0  0  0
    8.8768   11.7774   23.7283 H   0  0  0  0  0  0  0  0  0  0  0  0
    0.1583   10.5468   18.4149 H   0  0  0  0  0  0  0  0  0  0  0  0
   -0.3704   11.4670   19.7703 H   0  0  0  0  0  0  0  0  0  0  0  0
    6.1344   13.8712   21.5781 H   0  0  0  0  0  0  0  0  0  0  0  0
  1  3  2  0  0  0  0
  1  5  1  0  0  0  0
  2  4  1  0  0  0  0
  2  5  2  0  0  0  0
  3  6  1  0  0  0  0
  4  6  2  0  0  0  0
  5  8  1  0  0  0  0
  6 15  1  0  0  0  0
  7  9  1  0  0  0  0
  7 11  1  0  0  0  0
  7 14  2  0  0  0  0
  8 11  1  0  0  0  0
 10 15  1  0  0  0  0
 12 15  2  0  0  0  0
 13 15  2  0  0  0  0
  1 16  1  0  0  0  0
  2 17  1  0  0  0  0
  3 18  1  0  0  0  0
  4 19  1  0  0  0  0
  8 20  1  0  0  0  0
  8 21  1  0  0  0  0
  9 22  1  0  0  0  0
  9 23  1  0  0  0  0
 10 24  1  0  0  0  0
 10 25  1  0  0  0  0
 11 26  1  0  0  0  0
M  END
> <Mol Weight>
245,32

> <Formula>
C8H11N3O2S2

> <ID>
EN300-65994

> <name>
Sulfonamides

> <LogP>
0,08

> <ROCS_ShapeQuery>
x0310_0A_x0719_0A_x1080_0A_x0739_0A_x0929_0A_x0526_0A_x0911_0A

> <ROCS_TanimotoCombo>
0.296 

> <ROCS_ShapeTanimoto>
0.186 

> <ROCS_ColorTanimoto>
0.110 

> <ROCS_RefTversky>
0.176 

> <ROCS_RefColorTversky>
0.127 

> <ROCS_RefTverskyCombo>
0.303 

> <ROCS_FitTversky>
1.407 

> <ROCS_FitColorTversky>
0.452 

> <ROCS_FitTverskyCombo>
1.860 

> <ROCS_ColorScore>
-3.697

> <ROCS_Overlap>
1412.787

> <ROCS_Rank>
466                 

$$$$
untitled-dbase-1243_15
  -OEChem-02092407103D

 29 29  0     1  0  0  0  0  0999 V2000
    9.4032   10.0694   24.2476 C   0  0  0  0  0  0  0  0  0  0  0  0
    9.1454   10.0257   22.8775 C   0  0  0  0  0  0  0  0  0  0  0  0
    9.0120   11.1797   24.9959 C   0  0  0  0  0  0  0  0  0  0  0  0
    8.4966   11.0924   22.2556 C   0  0  0  0  0  0  0  0  0  0  0  0
    8.3633   12.2465   24.3739 C   0  0  0  0  0  0  0  0  0  0  0  0
    8.1055   12.2028   23.0038 C   0  0  0  0  0  0  0  0  0  0  0  0
    8.8147   15.4063   22.9108 C   0  0  0  0  0  0  0  0  0  0  0  0
    9.6094   13.8571   21.1332 C   0  0  0  0  0  0  0  0  0  0  0  0
    7.4030   13.3587   22.3307 C   0  0  2  0  0  0  0  0  0  0  0  0
    8.3595   14.4561   21.7933 C   0  0  0  0  0  0  0  0  0  0  0  0
    5.5657   15.2704   22.4738 N   0  0  0  0  0  0  0  0  0  0  0  0
    5.1694   13.0131   23.6417 O   0  0  0  0  0  0  0  0  0  0  0  0
    6.8979   14.6049   24.5712 O   0  0  0  0  0  0  0  0  0  0  0  0
    6.1855   14.0252   23.4539 S   0  0  0  0  0  0  0  0  0  0  0  0
    9.9071    9.2381   24.7320 H   0  0  0  0  0  0  0  0  0  0  0  0
    9.4489    9.1607   22.2950 H   0  0  0  0  0  0  0  0  0  0  0  0
    9.2116   11.2136   26.0628 H   0  0  0  0  0  0  0  0  0  0  0  0
    8.3001   11.0498   21.1875 H   0  0  0  0  0  0  0  0  0  0  0  0
    8.0623   13.1075   24.9649 H   0  0  0  0  0  0  0  0  0  0  0  0
    9.3389   14.8558   23.6998 H   0  0  0  0  0  0  0  0  0  0  0  0
    7.9601   15.9175   23.3673 H   0  0  0  0  0  0  0  0  0  0  0  0
    9.5080   16.1662   22.5375 H   0  0  0  0  0  0  0  0  0  0  0  0
   10.1768   13.2436   21.8412 H   0  0  0  0  0  0  0  0  0  0  0  0
   10.2726   14.6481   20.7659 H   0  0  0  0  0  0  0  0  0  0  0  0
    9.3505   13.2359   20.2710 H   0  0  0  0  0  0  0  0  0  0  0  0
    6.8050   12.9808   21.4900 H   0  0  0  0  0  0  0  0  0  0  0  0
    7.8425   15.0544   21.0320 H   0  0  0  0  0  0  0  0  0  0  0  0
    6.1611   16.0900   22.3023 H   0  0  0  0  0  0  0  0  0  0  0  0
    4.9837   15.0059   21.6695 H   0  0  0  0  0  0  0  0  0  0  0  0
  1  2  1  0  0  0  0
  1  3  2  0  0  0  0
  2  4  2  0  0  0  0
  3  5  1  0  0  0  0
  4  6  1  0  0  0  0
  5  6  2  0  0  0  0
  6  9  1  0  0  0  0
  7 10  1  0  0  0  0
  8 10  1  0  0  0  0
  9 10  1  0  0  0  0
  9 14  1  0  0  0  0
 11 14  1  0  0  0  0
 12 14  2  0  0  0  0
 13 14  2  0  0  0  0
  1 15  1  0  0  0  0
  2 16  1  0  0  0  0
  3 17  1  0  0  0  0
  4 18  1  0  0  0  0
  5 19  1  0  0  0  0
  7 20  1  0  0  0  0
  7 21  1  0  0  0  0
  7 22  1  0  0  0  0
  8 23  1  0  0  0  0
  8 24  1  0  0  0  0
  8 25  1  0  0  0  0
  9 26  1  0  0  0  0
 10 27  1  0  0  0  0
 11 28  1  0  0  0  0
 11 29  1  0  0  0  0
M  END
> <Mol Weight>
213,30

> <Formula>
C10H15NO2S

> <ID>
EN300-221822

> <name>
Sulfonamides

> <LogP>
1,80

> <ROCS_ShapeQuery>
x0310_0A_x0719_0A_x1080_0A_x0739_0A_x0929_0A_x0526_0A_x0911_0A

> <ROCS_TanimotoCombo>
0.296 

> <ROCS_ShapeTanimoto>
0.155 

> <ROCS_ColorTanimoto>
0.141 

> <ROCS_RefTversky>
0.151 

> <ROCS_RefColorTversky>
0.150 

> <ROCS_RefTverskyCombo>
0.301 

> <ROCS_FitTversky>
1.248 

> <ROCS_FitColorTversky>
0.694 

> <ROCS_FitTverskyCombo>
1.942 

> <ROCS_ColorScore>
-4.352

> <ROCS_Overlap>
1205.646

> <ROCS_Rank>
467                 

$$$$
untitled-dbase-2369_9
  -OEChem-02092407103D

 26 27  0     0  0  0  0  0  0999 V2000
    5.9607   11.3888   20.4462 C   0  0  0  0  0  0  0  0  0  0  0  0
    6.6169   12.2798   21.2927 C   0  0  0  0  0  0  0  0  0  0  0  0
    4.7787   13.7928   21.0425 C   0  0  0  0  0  0  0  0  0  0  0  0
    4.0825   12.9002   20.1892 C   0  0  0  0  0  0  0  0  0  0  0  0
    4.6981   11.6788   19.8707 C   0  0  0  0  0  0  0  0  0  0  0  0
    6.0250   13.4919   21.5880 C   0  0  0  0  0  0  0  0  0  0  0  0
    1.7596   12.9304   19.0763 C   0  0  0  0  0  0  0  0  0  0  0  0
    1.7383   11.5295   18.5445 C   0  0  0  0  0  0  0  0  0  0  0  0
    2.9664   11.2057   17.7323 C   0  0  0  0  0  0  0  0  0  0  0  0
    2.8236   13.4097   19.7855 N   0  0  0  0  0  0  0  0  0  0  0  0
    5.6961   15.9137   22.6520 N   0  0  0  0  0  0  0  0  0  0  0  0
    0.7642   13.6461   18.9025 O   0  0  0  0  0  0  0  0  0  0  0  0
    6.9245   14.0643   23.9622 O   0  0  0  0  0  0  0  0  0  0  0  0
    8.0396   15.1017   21.9552 O   0  0  0  0  0  0  0  0  0  0  0  0
    4.1442   10.3649   18.7983 S   0  0  0  0  0  0  0  0  0  0  0  0
    6.8327   14.6377   22.6262 S   0  0  0  0  0  0  0  0  0  0  0  0
    6.4571   10.4388   20.2466 H   0  0  0  0  0  0  0  0  0  0  0  0
    7.5811   12.0095   21.7136 H   0  0  0  0  0  0  0  0  0  0  0  0
    4.3396   14.7622   21.2820 H   0  0  0  0  0  0  0  0  0  0  0  0
    1.7328   10.8672   19.4208 H   0  0  0  0  0  0  0  0  0  0  0  0
    0.7891   11.3553   18.0244 H   0  0  0  0  0  0  0  0  0  0  0  0
    2.7525   10.6121   16.8371 H   0  0  0  0  0  0  0  0  0  0  0  0
    3.4447   12.1346   17.4046 H   0  0  0  0  0  0  0  0  0  0  0  0
    2.6762   14.3669   20.1014 H   0  0  0  0  0  0  0  0  0  0  0  0
    5.1664   16.0702   23.5182 H   0  0  0  0  0  0  0  0  0  0  0  0
    5.9284   16.7768   22.1458 H   0  0  0  0  0  0  0  0  0  0  0  0
  1  2  2  0  0  0  0
  1  5  1  0  0  0  0
  2  6  1  0  0  0  0
  3  4  1  0  0  0  0
  3  6  2  0  0  0  0
  4  5  2  0  0  0  0
  4 10  1  0  0  0  0
  5 15  1  0  0  0  0
  6 16  1  0  0  0  0
  7  8  1  0  0  0  0
  7 10  1  0  0  0  0
  7 12  2  0  0  0  0
  8  9  1  0  0  0  0
  9 15  1  0  0  0  0
 11 16  1  0  0  0  0
 13 16  2  0  0  0  0
 14 16  2  0  0  0  0
  1 17  1  0  0  0  0
  2 18  1  0  0  0  0
  3 19  1  0  0  0  0
  8 20  1  0  0  0  0
  8 21  1  0  0  0  0
  9 22  1  0  0  0  0
  9 23  1  0  0  0  0
 10 24  1  0  0  0  0
 11 25  1  0  0  0  0
 11 26  1  0  0  0  0
M  END
> <Mol Weight>
258,31

> <Formula>
C9H10N2O3S2

> <ID>
EN300-26621715

> <name>
Sulfonamides

> <LogP>
0,28

> <ROCS_ShapeQuery>
x0310_0A_x0719_0A_x1080_0A_x0739_0A_x0929_0A_x0526_0A_x0911_0A

> <ROCS_TanimotoCombo>
0.296 

> <ROCS_ShapeTanimoto>
0.168 

> <ROCS_ColorTanimoto>
0.128 

> <ROCS_RefTversky>
0.163 

> <ROCS_RefColorTversky>
0.145 

> <ROCS_RefTverskyCombo>
0.308 

> <ROCS_FitTversky>
1.230 

> <ROCS_FitColorTversky>
0.517 

> <ROCS_FitTverskyCombo>
1.748 

> <ROCS_ColorScore>
-4.226

> <ROCS_Overlap>
1304.069

> <ROCS_Rank>
468                 

$$$$
untitled-dbase-1382_144
  -OEChem-02092407103D

 26 26  0     0  0  0  0  0  0999 V2000
    2.2648   13.0661   19.2661 C   0  0  0  0  0  0  0  0  0  0  0  0
    3.2908   11.3619   17.8949 C   0  0  0  0  0  0  0  0  0  0  0  0
    3.1483   12.7643   20.3024 C   0  0  0  0  0  0  0  0  0  0  0  0
    4.1744   11.0601   18.9312 C   0  0  0  0  0  0  0  0  0  0  0  0
    2.3360   12.3649   18.0624 C   0  0  0  0  0  0  0  0  0  0  0  0
    4.1031   11.7613   20.1350 C   0  0  0  0  0  0  0  0  0  0  0  0
    5.3201   12.5312   22.0276 C   0  0  0  0  0  0  0  0  0  0  0  0
    6.5380   13.2680   21.5051 C   0  0  0  0  0  0  0  0  0  0  0  0
    1.4426   12.6700   17.0147 N   0  0  0  0  0  0  0  0  0  0  0  0
    5.5625   15.5347   22.4855 N   0  0  0  0  0  0  0  0  0  0  0  0
    7.1470   14.0923   23.9086 O   0  0  0  0  0  0  0  0  0  0  0  0
    8.0643   15.3484   21.9172 O   0  0  0  0  0  0  0  0  0  0  0  0
    4.9653   11.4668   21.1462 O   0  0  0  0  0  0  0  0  0  0  0  0
    6.9923   14.6096   22.5605 S   0  0  0  0  0  0  0  0  0  0  0  0
    1.5246   13.8496   19.4074 H   0  0  0  0  0  0  0  0  0  0  0  0
    3.3551   10.8093   16.9611 H   0  0  0  0  0  0  0  0  0  0  0  0
    3.0879   13.3139   21.2378 H   0  0  0  0  0  0  0  0  0  0  0  0
    4.9161   10.2778   18.7948 H   0  0  0  0  0  0  0  0  0  0  0  0
    5.5283   12.0976   23.0107 H   0  0  0  0  0  0  0  0  0  0  0  0
    4.4573   13.1975   22.1225 H   0  0  0  0  0  0  0  0  0  0  0  0
    6.3575   13.6989   20.5161 H   0  0  0  0  0  0  0  0  0  0  0  0
    7.4045   12.6023   21.4598 H   0  0  0  0  0  0  0  0  0  0  0  0
    0.7325   13.3582   17.1637 H   0  0  0  0  0  0  0  0  0  0  0  0
    1.4730   12.1285   16.1745 H   0  0  0  0  0  0  0  0  0  0  0  0
    4.9680   15.5655   23.3229 H   0  0  0  0  0  0  0  0  0  0  0  0
    5.5927   16.4209   21.9664 H   0  0  0  0  0  0  0  0  0  0  0  0
  1  3  2  0  0  0  0
  1  5  1  0  0  0  0
  2  4  1  0  0  0  0
  2  5  2  0  0  0  0
  3  6  1  0  0  0  0
  4  6  2  0  0  0  0
  5  9  1  0  0  0  0
  6 13  1  0  0  0  0
  7  8  1  0  0  0  0
  7 13  1  0  0  0  0
  8 14  1  0  0  0  0
 10 14  1  0  0  0  0
 11 14  2  0  0  0  0
 12 14  2  0  0  0  0
  1 15  1  0  0  0  0
  2 16  1  0  0  0  0
  3 17  1  0  0  0  0
  4 18  1  0  0  0  0
  7 19  1  0  0  0  0
  7 20  1  0  0  0  0
  8 21  1  0  0  0  0
  8 22  1  0  0  0  0
  9 23  1  0  0  0  0
  9 24  1  0  0  0  0
 10 25  1  0  0  0  0
 10 26  1  0  0  0  0
M  END
> <Mol Weight>
216,26

> <Formula>
C8H12N2O3S

> <ID>
EN300-269872

> <name>
Sulfonamides

> <LogP>
-0,57

> <ROCS_ShapeQuery>
x0310_0A_x0719_0A_x1080_0A_x0739_0A_x0929_0A_x0526_0A_x0911_0A

> <ROCS_TanimotoCombo>
0.296 

> <ROCS_ShapeTanimoto>
0.165 

> <ROCS_ColorTanimoto>
0.131 

> <ROCS_RefTversky>
0.159 

> <ROCS_RefColorTversky>
0.148 

> <ROCS_RefTverskyCombo>
0.307 

> <ROCS_FitTversky>
1.311 

> <ROCS_FitColorTversky>
0.528 

> <ROCS_FitTverskyCombo>
1.838 

> <ROCS_ColorScore>
-4.311

> <ROCS_Overlap>
1271.150

> <ROCS_Rank>
469                 

$$$$
untitled-dbase-2461_379
  -OEChem-02092407103D

 37 37  0     0  0  0  0  0  0999 V2000
    4.0866   12.3092   18.8948 C   0  0  0  0  0  0  0  0  0  0  0  0
    5.9081   12.6014   22.1111 C   0  0  0  0  0  0  0  0  0  0  0  0
    7.0204   14.1429   20.4009 C   0  0  0  0  0  0  0  0  0  0  0  0
    4.6961   12.8816   21.2288 C   0  0  0  0  0  0  0  0  0  0  0  0
    6.3938   13.1692   19.4103 C   0  0  0  0  0  0  0  0  0  0  0  0
    7.0638   13.5671   21.8210 C   0  0  0  0  0  0  0  0  0  0  0  0
    1.8499   10.6390   18.2682 C   0  0  0  0  0  0  0  0  0  0  0  0
    0.4315   12.5785   19.0002 C   0  0  0  0  0  0  0  0  0  0  0  0
    1.9705   12.8275   17.0310 C   0  0  0  0  0  0  0  0  0  0  0  0
    1.7676   12.1599   18.3904 C   0  0  0  0  0  0  0  0  0  0  0  0
    5.0348   12.7818   19.8074 N   0  0  0  0  0  0  0  0  0  0  0  0
    5.5605   15.5604   22.7299 N   0  0  0  0  0  0  0  0  0  0  0  0
    4.3618   11.7030   17.8611 O   0  0  0  0  0  0  0  0  0  0  0  0
    7.1256   14.2947   24.3315 O   0  0  0  0  0  0  0  0  0  0  0  0
    8.1143   15.8349   22.5891 O   0  0  0  0  0  0  0  0  0  0  0  0
    2.8032   12.6028   19.2750 O   0  0  0  0  0  0  0  0  0  0  0  0
    7.1002   14.8875   23.0087 S   0  0  0  0  0  0  0  0  0  0  0  0
    5.6165   12.6577   23.1630 H   0  0  0  0  0  0  0  0  0  0  0  0
    6.2491   11.5780   21.9247 H   0  0  0  0  0  0  0  0  0  0  0  0
    8.0432   14.3622   20.0788 H   0  0  0  0  0  0  0  0  0  0  0  0
    6.4684   15.0861   20.3873 H   0  0  0  0  0  0  0  0  0  0  0  0
    3.8879   12.1845   21.4803 H   0  0  0  0  0  0  0  0  0  0  0  0
    4.3081   13.8935   21.4010 H   0  0  0  0  0  0  0  0  0  0  0  0
    6.3205   13.6190   18.4088 H   0  0  0  0  0  0  0  0  0  0  0  0
    7.0421   12.2888   19.3061 H   0  0  0  0  0  0  0  0  0  0  0  0
    8.0151   13.0530   21.9716 H   0  0  0  0  0  0  0  0  0  0  0  0
    2.8075   10.3345   17.8309 H   0  0  0  0  0  0  0  0  0  0  0  0
    1.7408   10.1497   19.2416 H   0  0  0  0  0  0  0  0  0  0  0  0
    1.0696   10.2576   17.5997 H   0  0  0  0  0  0  0  0  0  0  0  0
    0.3681   13.6690   19.0897 H   0  0  0  0  0  0  0  0  0  0  0  0
    0.3232   12.1787   20.0149 H   0  0  0  0  0  0  0  0  0  0  0  0
   -0.4141   12.2303   18.3982 H   0  0  0  0  0  0  0  0  0  0  0  0
    1.9115   13.9184   17.1183 H   0  0  0  0  0  0  0  0  0  0  0  0
    2.9405   12.5677   16.5949 H   0  0  0  0  0  0  0  0  0  0  0  0
    1.1825   12.5304   16.3295 H   0  0  0  0  0  0  0  0  0  0  0  0
    4.8404   15.4258   23.4503 H   0  0  0  0  0  0  0  0  0  0  0  0
    5.5137   16.4746   22.2634 H   0  0  0  0  0  0  0  0  0  0  0  0
  1 11  1  0  0  0  0
  1 13  2  0  0  0  0
  1 16  1  0  0  0  0
  2  4  1  0  0  0  0
  2  6  1  0  0  0  0
  3  5  1  0  0  0  0
  3  6  1  0  0  0  0
  4 11  1  0  0  0  0
  5 11  1  0  0  0  0
  6 17  1  0  0  0  0
  7 10  1  0  0  0  0
  8 10  1  0  0  0  0
  9 10  1  0  0  0  0
 10 16  1  0  0  0  0
 12 17  1  0  0  0  0
 14 17  2  0  0  0  0
 15 17  2  0  0  0  0
  2 18  1  0  0  0  0
  2 19  1  0  0  0  0
  3 20  1  0  0  0  0
  3 21  1  0  0  0  0
  4 22  1  0  0  0  0
  4 23  1  0  0  0  0
  5 24  1  0  0  0  0
  5 25  1  0  0  0  0
  6 26  1  0  0  0  0
  7 27  1  0  0  0  0
  7 28  1  0  0  0  0
  7 29  1  0  0  0  0
  8 30  1  0  0  0  0
  8 31  1  0  0  0  0
  8 32  1  0  0  0  0
  9 33  1  0  0  0  0
  9 34  1  0  0  0  0
  9 35  1  0  0  0  0
 12 36  1  0  0  0  0
 12 37  1  0  0  0  0
M  END
> <Mol Weight>
264,34

> <Formula>
C10H20N2O4S

> <ID>
EN300-174058

> <name>
Sulfonamides

> <LogP>
-0,30

> <ROCS_ShapeQuery>
x0310_0A_x0719_0A_x1080_0A_x0739_0A_x0929_0A_x0526_0A_x0911_0A

> <ROCS_TanimotoCombo>
0.295 

> <ROCS_ShapeTanimoto>
0.180 

> <ROCS_ColorTanimoto>
0.116 

> <ROCS_RefTversky>
0.173 

> <ROCS_RefColorTversky>
0.129 

> <ROCS_RefTverskyCombo>
0.303 

> <ROCS_FitTversky>
1.268 

> <ROCS_FitColorTversky>
0.521 

> <ROCS_FitTverskyCombo>
1.789 

> <ROCS_ColorScore>
-3.763

> <ROCS_Overlap>
1387.599

> <ROCS_Rank>
470                 

$$$$
untitled-dbase-2458_1982
  -OEChem-02092407103D

 37 37  0     0  0  0  0  0  0999 V2000
    4.4607   12.2823   18.9157 C   0  0  0  0  0  0  0  0  0  0  0  0
    6.7788   12.1953   22.0564 C   0  0  0  0  0  0  0  0  0  0  0  0
    7.5800   12.0833   20.7909 C   0  0  0  0  0  0  0  0  0  0  0  0
    6.9382   13.4005   21.1593 C   0  0  0  0  0  0  0  0  0  0  0  0
    2.6696   10.1932   19.6757 C   0  0  0  0  0  0  0  0  0  0  0  0
    1.4540   11.9624   20.9801 C   0  0  0  0  0  0  0  0  0  0  0  0
    1.6357   12.1532   18.4824 C   0  0  0  0  0  0  0  0  0  0  0  0
    5.7440   13.8501   20.3634 C   0  0  0  0  0  0  0  0  0  0  0  0
    7.8336   14.5146   21.6273 C   0  0  0  0  0  0  0  0  0  0  0  0
    2.3278   11.6801   19.7599 C   0  0  0  0  0  0  0  0  0  0  0  0
    5.7242   15.7516   22.6624 N   0  0  0  0  0  0  0  0  0  0  0  0
    5.5857   13.0438   19.1904 N   0  0  0  0  0  0  0  0  0  0  0  0
    4.3029   11.5848   17.9191 O   0  0  0  0  0  0  0  0  0  0  0  0
    7.1106   14.1393   24.1100 O   0  0  0  0  0  0  0  0  0  0  0  0
    8.0942   16.3708   23.4478 O   0  0  0  0  0  0  0  0  0  0  0  0
    3.5440   12.4189   19.9199 O   0  0  0  0  0  0  0  0  0  0  0  0
    7.2679   15.2150   23.1471 S   0  0  0  0  0  0  0  0  0  0  0  0
    5.8177   11.6959   22.0889 H   0  0  0  0  0  0  0  0  0  0  0  0
    7.3174   12.1728   22.9964 H   0  0  0  0  0  0  0  0  0  0  0  0
    8.6552   11.9857   20.8835 H   0  0  0  0  0  0  0  0  0  0  0  0
    7.1555   11.5088   19.9760 H   0  0  0  0  0  0  0  0  0  0  0  0
    3.2967    9.9864   18.8011 H   0  0  0  0  0  0  0  0  0  0  0  0
    3.1975    9.8493   20.5712 H   0  0  0  0  0  0  0  0  0  0  0  0
    1.7627    9.5897   19.5554 H   0  0  0  0  0  0  0  0  0  0  0  0
    1.2063   13.0281   21.0445 H   0  0  0  0  0  0  0  0  0  0  0  0
    1.9843   11.7123   21.9061 H   0  0  0  0  0  0  0  0  0  0  0  0
    0.5208   11.3907   20.9498 H   0  0  0  0  0  0  0  0  0  0  0  0
    1.3904   13.2197   18.5425 H   0  0  0  0  0  0  0  0  0  0  0  0
    2.2637   11.9922   17.6001 H   0  0  0  0  0  0  0  0  0  0  0  0
    0.6865   11.6254   18.3351 H   0  0  0  0  0  0  0  0  0  0  0  0
    4.8532   13.7596   20.9952 H   0  0  0  0  0  0  0  0  0  0  0  0
    5.8952   14.8960   20.0735 H   0  0  0  0  0  0  0  0  0  0  0  0
    7.8709   15.3313   20.8965 H   0  0  0  0  0  0  0  0  0  0  0  0
    8.8557   14.1589   21.8032 H   0  0  0  0  0  0  0  0  0  0  0  0
    5.6753   16.5598   22.0300 H   0  0  0  0  0  0  0  0  0  0  0  0
    5.0055   15.0400   22.4812 H   0  0  0  0  0  0  0  0  0  0  0  0
    6.3504   13.0289   18.5135 H   0  0  0  0  0  0  0  0  0  0  0  0
  1 12  1  0  0  0  0
  1 13  2  0  0  0  0
  1 16  1  0  0  0  0
  2  3  1  0  0  0  0
  2  4  1  0  0  0  0
  3  4  1  0  0  0  0
  4  8  1  0  0  0  0
  4  9  1  0  0  0  0
  5 10  1  0  0  0  0
  6 10  1  0  0  0  0
  7 10  1  0  0  0  0
  8 12  1  0  0  0  0
  9 17  1  0  0  0  0
 10 16  1  0  0  0  0
 11 17  1  0  0  0  0
 14 17  2  0  0  0  0
 15 17  2  0  0  0  0
  2 18  1  0  0  0  0
  2 19  1  0  0  0  0
  3 20  1  0  0  0  0
  3 21  1  0  0  0  0
  5 22  1  0  0  0  0
  5 23  1  0  0  0  0
  5 24  1  0  0  0  0
  6 25  1  0  0  0  0
  6 26  1  0  0  0  0
  6 27  1  0  0  0  0
  7 28  1  0  0  0  0
  7 29  1  0  0  0  0
  7 30  1  0  0  0  0
  8 31  1  0  0  0  0
  8 32  1  0  0  0  0
  9 33  1  0  0  0  0
  9 34  1  0  0  0  0
 11 35  1  0  0  0  0
 11 36  1  0  0  0  0
 12 37  1  0  0  0  0
M  END
> <Mol Weight>
264,34

> <Formula>
C10H20N2O4S

> <ID>
EN300-7288737

> <name>
Sulfonamides

> <LogP>
-0,12

> <ROCS_ShapeQuery>
x0310_0A_x0719_0A_x1080_0A_x0739_0A_x0929_0A_x0526_0A_x0911_0A

> <ROCS_TanimotoCombo>
0.295 

> <ROCS_ShapeTanimoto>
0.174 

> <ROCS_ColorTanimoto>
0.122 

> <ROCS_RefTversky>
0.168 

> <ROCS_RefColorTversky>
0.135 

> <ROCS_RefTverskyCombo>
0.303 

> <ROCS_FitTversky>
1.238 

> <ROCS_FitColorTversky>
0.545 

> <ROCS_FitTverskyCombo>
1.783 

> <ROCS_ColorScore>
-3.937

> <ROCS_Overlap>
1346.565

> <ROCS_Rank>
471                 

$$$$
untitled-dbase-2459_908
  -OEChem-02092407103D

 37 37  0     1  0  0  0  0  0999 V2000
    5.3420   13.2741   20.9717 C   0  0  0  0  0  0  0  0  0  0  0  0
    3.7836   10.4901   18.8789 C   0  0  0  0  0  0  0  0  0  0  0  0
    3.3718   11.4955   17.8076 C   0  0  0  0  0  0  0  0  0  0  0  0
    4.8031   11.1070   19.8331 C   0  0  0  0  0  0  0  0  0  0  0  0
    3.1237   12.9494   19.9048 C   0  0  0  0  0  0  0  0  0  0  0  0
    2.8106   12.7890   18.4151 C   0  0  2  0  0  0  0  0  0  0  0  0
    7.1262   12.3139   22.9914 C   0  0  0  0  0  0  0  0  0  0  0  0
    8.9565   12.7734   21.3337 C   0  0  0  0  0  0  0  0  0  0  0  0
    7.5373   14.6625   22.1854 C   0  0  0  0  0  0  0  0  0  0  0  0
    7.5647   13.1810   21.8122 C   0  0  0  0  0  0  0  0  0  0  0  0
    4.4655   12.4767   20.2299 N   0  0  0  0  0  0  0  0  0  0  0  0
    0.5678   11.4846   18.9838 N   0  0  0  0  0  0  0  0  0  0  0  0
    4.9899   14.1506   21.7583 O   0  0  0  0  0  0  0  0  0  0  0  0
    0.5729   14.0550   18.8858 O   0  0  0  0  0  0  0  0  0  0  0  0
    0.8002   12.7308   16.7456 O   0  0  0  0  0  0  0  0  0  0  0  0
    6.6554   12.9674   20.7265 O   0  0  0  0  0  0  0  0  0  0  0  0
    1.0549   12.8950   18.1629 S   0  0  0  0  0  0  0  0  0  0  0  0
    2.9075   10.1624   19.4427 H   0  0  0  0  0  0  0  0  0  0  0  0
    4.2132    9.6048   18.4060 H   0  0  0  0  0  0  0  0  0  0  0  0
    4.2527   11.7472   17.2079 H   0  0  0  0  0  0  0  0  0  0  0  0
    2.6431   11.0383   17.1329 H   0  0  0  0  0  0  0  0  0  0  0  0
    4.9154   10.4636   20.7228 H   0  0  0  0  0  0  0  0  0  0  0  0
    5.7982   11.1469   19.3544 H   0  0  0  0  0  0  0  0  0  0  0  0
    3.0877   14.0137   20.1775 H   0  0  0  0  0  0  0  0  0  0  0  0
    2.3614   12.4434   20.5093 H   0  0  0  0  0  0  0  0  0  0  0  0
    3.2118   13.6488   17.8673 H   0  0  0  0  0  0  0  0  0  0  0  0
    6.1276   12.6033   23.3378 H   0  0  0  0  0  0  0  0  0  0  0  0
    7.1080   11.2517   22.7263 H   0  0  0  0  0  0  0  0  0  0  0  0
    7.8000   12.4458   23.8457 H   0  0  0  0  0  0  0  0  0  0  0  0
    9.2751   13.3930   20.4877 H   0  0  0  0  0  0  0  0  0  0  0  0
    8.9583   11.7376   20.9756 H   0  0  0  0  0  0  0  0  0  0  0  0
    9.7010   12.8659   22.1310 H   0  0  0  0  0  0  0  0  0  0  0  0
    7.8518   15.2847   21.3397 H   0  0  0  0  0  0  0  0  0  0  0  0
    6.5372   14.9817   22.4962 H   0  0  0  0  0  0  0  0  0  0  0  0
    8.2388   14.8719   23.0011 H   0  0  0  0  0  0  0  0  0  0  0  0
    0.0754   11.5958   19.8787 H   0  0  0  0  0  0  0  0  0  0  0  0
    0.2304   10.6939   18.4211 H   0  0  0  0  0  0  0  0  0  0  0  0
  1 11  1  0  0  0  0
  1 13  2  0  0  0  0
  1 16  1  0  0  0  0
  2  3  1  0  0  0  0
  2  4  1  0  0  0  0
  3  6  1  0  0  0  0
  4 11  1  0  0  0  0
  5  6  1  0  0  0  0
  5 11  1  0  0  0  0
  6 17  1  1  0  0  0
  7 10  1  0  0  0  0
  8 10  1  0  0  0  0
  9 10  1  0  0  0  0
 10 16  1  0  0  0  0
 12 17  1  0  0  0  0
 14 17  2  0  0  0  0
 15 17  2  0  0  0  0
  2 18  1  0  0  0  0
  2 19  1  0  0  0  0
  3 20  1  0  0  0  0
  3 21  1  0  0  0  0
  4 22  1  0  0  0  0
  4 23  1  0  0  0  0
  5 24  1  0  0  0  0
  5 25  1  0  0  0  0
  6 26  1  0  0  0  0
  7 27  1  0  0  0  0
  7 28  1  0  0  0  0
  7 29  1  0  0  0  0
  8 30  1  0  0  0  0
  8 31  1  0  0  0  0
  8 32  1  0  0  0  0
  9 33  1  0  0  0  0
  9 34  1  0  0  0  0
  9 35  1  0  0  0  0
 12 36  1  0  0  0  0
 12 37  1  0  0  0  0
M  END
> <Mol Weight>
264,34

> <Formula>
C10H20N2O4S

> <ID>
EN300-6739991

> <name>
Sulfonamides

> <LogP>
0,15

> <ROCS_ShapeQuery>
x0310_0A_x0719_0A_x1080_0A_x0739_0A_x0929_0A_x0526_0A_x0911_0A

> <ROCS_TanimotoCombo>
0.295 

> <ROCS_ShapeTanimoto>
0.186 

> <ROCS_ColorTanimoto>
0.109 

> <ROCS_RefTversky>
0.178 

> <ROCS_RefColorTversky>
0.123 

> <ROCS_RefTverskyCombo>
0.301 

> <ROCS_FitTversky>
1.307 

> <ROCS_FitColorTversky>
0.495 

> <ROCS_FitTverskyCombo>
1.802 

> <ROCS_ColorScore>
-3.571

> <ROCS_Overlap>
1428.271

> <ROCS_Rank>
472                 

$$$$
untitled-dbase-2795_12
  -OEChem-02092407103D

 25 25  0     0  0  0  0  0  0999 V2000
    7.8232   11.8883   23.8492 C   0  0  0  0  0  0  0  0  0  0  0  0
   10.3598   11.7584   22.6954 C   0  0  0  0  0  0  0  0  0  0  0  0
    8.5136   10.6768   23.8174 C   0  0  0  0  0  0  0  0  0  0  0  0
    9.6693   12.9699   22.7272 C   0  0  0  0  0  0  0  0  0  0  0  0
    8.4010   13.0349   23.3041 C   0  0  0  0  0  0  0  0  0  0  0  0
    9.7819   10.6118   23.2405 C   0  0  0  0  0  0  0  0  0  0  0  0
    6.6237    9.7489   24.9234 C   0  0  0  0  0  0  0  0  0  0  0  0
   10.0038   14.3348   20.8086 C   0  0  0  0  0  0  0  0  0  0  0  0
    6.6575   14.4635   21.8813 N   0  0  0  0  0  0  0  0  0  0  0  0
    6.5655   14.4750   24.4575 O   0  0  0  0  0  0  0  0  0  0  0  0
    8.4688   15.6387   23.2866 O   0  0  0  0  0  0  0  0  0  0  0  0
    7.9214    9.5748   24.3590 O   0  0  0  0  0  0  0  0  0  0  0  0
   10.2521   14.0778   22.1893 O   0  0  0  0  0  0  0  0  0  0  0  0
    7.5146   14.5423   23.3566 S   0  0  0  0  0  0  0  0  0  0  0  0
   10.7494    8.9832   23.1797 Br  0  0  0  0  0  0  0  0  0  0  0  0
    6.8349   11.9338   24.3002 H   0  0  0  0  0  0  0  0  0  0  0  0
   11.3482   11.7193   22.2431 H   0  0  0  0  0  0  0  0  0  0  0  0
    6.2668    8.7950   25.3194 H   0  0  0  0  0  0  0  0  0  0  0  0
    5.9379   10.1164   24.1558 H   0  0  0  0  0  0  0  0  0  0  0  0
    6.6839   10.4781   25.7348 H   0  0  0  0  0  0  0  0  0  0  0  0
   10.5262   15.2460   20.5071 H   0  0  0  0  0  0  0  0  0  0  0  0
    8.9290   14.4474   20.6456 H   0  0  0  0  0  0  0  0  0  0  0  0
   10.3737   13.4932   20.2182 H   0  0  0  0  0  0  0  0  0  0  0  0
    5.6442   14.2993   21.9215 H   0  0  0  0  0  0  0  0  0  0  0  0
    6.9463   15.0929   21.1225 H   0  0  0  0  0  0  0  0  0  0  0  0
  1  3  1  0  0  0  0
  1  5  2  0  0  0  0
  2  4  2  0  0  0  0
  2  6  1  0  0  0  0
  3  6  2  0  0  0  0
  3 12  1  0  0  0  0
  4  5  1  0  0  0  0
  4 13  1  0  0  0  0
  5 14  1  0  0  0  0
  6 15  1  0  0  0  0
  7 12  1  0  0  0  0
  8 13  1  0  0  0  0
  9 14  1  0  0  0  0
 10 14  2  0  0  0  0
 11 14  2  0  0  0  0
  1 16  1  0  0  0  0
  2 17  1  0  0  0  0
  7 18  1  0  0  0  0
  7 19  1  0  0  0  0
  7 20  1  0  0  0  0
  8 21  1  0  0  0  0
  8 22  1  0  0  0  0
  8 23  1  0  0  0  0
  9 24  1  0  0  0  0
  9 25  1  0  0  0  0
M  END
> <Mol Weight>
296,14

> <Formula>
C8H10BrNO4S

> <ID>
EN300-157890

> <name>
Sulfonamides

> <LogP>
1,03

> <ROCS_ShapeQuery>
x0310_0A_x0719_0A_x1080_0A_x0739_0A_x0929_0A_x0526_0A_x0911_0A

> <ROCS_TanimotoCombo>
0.295 

> <ROCS_ShapeTanimoto>
0.179 

> <ROCS_ColorTanimoto>
0.116 

> <ROCS_RefTversky>
0.171 

> <ROCS_RefColorTversky>
0.133 

> <ROCS_RefTverskyCombo>
0.304 

> <ROCS_FitTversky>
1.353 

> <ROCS_FitColorTversky>
0.475 

> <ROCS_FitTverskyCombo>
1.828 

> <ROCS_ColorScore>
-3.878

> <ROCS_Overlap>
1370.130

> <ROCS_Rank>
473                 

$$$$
untitled-dbase-2627_733
  -OEChem-02092407103D

 40 40  0     1  0  0  0  0  0999 V2000
    3.5115   11.6530   18.9575 C   0  0  0  0  0  0  0  0  0  0  0  0
    4.1920   10.7446   22.4631 C   0  0  0  0  0  0  0  0  0  0  0  0
    5.0538   11.8839   23.0099 C   0  0  0  0  0  0  0  0  0  0  0  0
    3.2259   11.2041   21.3799 C   0  0  0  0  0  0  0  0  0  0  0  0
    5.0831   12.7006   20.6107 C   0  0  0  0  0  0  0  0  0  0  0  0
    5.1076   13.0990   22.0824 C   0  0  2  0  0  0  0  0  0  0  0  0
    1.9572   12.3366   16.6549 C   0  0  0  0  0  0  0  0  0  0  0  0
   -0.0462   11.9207   18.1118 C   0  0  0  0  0  0  0  0  0  0  0  0
    1.5718   13.7488   18.7023 C   0  0  0  0  0  0  0  0  0  0  0  0
    4.8975   16.3015   22.2967 C   0  0  0  0  0  0  0  0  0  0  0  0
    1.4161   12.3603   18.0837 C   0  0  0  0  0  0  0  0  0  0  0  0
    3.9315   11.8559   20.2761 N   0  0  0  0  0  0  0  0  0  0  0  0
    6.0548   15.5802   21.7373 N   0  0  0  0  0  0  0  0  0  0  0  0
    4.2563   11.6792   17.9796 O   0  0  0  0  0  0  0  0  0  0  0  0
    6.6254   14.2424   23.8772 O   0  0  0  0  0  0  0  0  0  0  0  0
    7.6384   13.5610   21.6713 O   0  0  0  0  0  0  0  0  0  0  0  0
    2.1631   11.4247   18.8695 O   0  0  0  0  0  0  0  0  0  0  0  0
    6.5284   14.0963   22.4373 S   0  0  0  0  0  0  0  0  0  0  0  0
    4.8395    9.9484   22.0630 H   0  0  0  0  0  0  0  0  0  0  0  0
    3.6272   10.2873   23.2903 H   0  0  0  0  0  0  0  0  0  0  0  0
    4.6356   12.1998   23.9772 H   0  0  0  0  0  0  0  0  0  0  0  0
    6.0655   11.5087   23.2178 H   0  0  0  0  0  0  0  0  0  0  0  0
    2.6392   10.3518   21.0164 H   0  0  0  0  0  0  0  0  0  0  0  0
    2.5149   11.9364   21.7862 H   0  0  0  0  0  0  0  0  0  0  0  0
    5.0024   13.6013   19.9806 H   0  0  0  0  0  0  0  0  0  0  0  0
    6.0278   12.2121   20.3300 H   0  0  0  0  0  0  0  0  0  0  0  0
    4.2540   13.7497   22.2972 H   0  0  0  0  0  0  0  0  0  0  0  0
    3.0066   12.6516   16.6304 H   0  0  0  0  0  0  0  0  0  0  0  0
    1.8834   11.3380   16.2121 H   0  0  0  0  0  0  0  0  0  0  0  0
    1.4087   13.0393   16.0173 H   0  0  0  0  0  0  0  0  0  0  0  0
   -0.4386   11.9362   19.1351 H   0  0  0  0  0  0  0  0  0  0  0  0
   -0.1505   10.8891   17.7569 H   0  0  0  0  0  0  0  0  0  0  0  0
   -0.6743   12.5666   17.4898 H   0  0  0  0  0  0  0  0  0  0  0  0
    1.1837   13.7661   19.7271 H   0  0  0  0  0  0  0  0  0  0  0  0
    2.6196   14.0654   18.7242 H   0  0  0  0  0  0  0  0  0  0  0  0
    0.9949   14.4925   18.1407 H   0  0  0  0  0  0  0  0  0  0  0  0
    4.8734   16.1665   23.3881 H   0  0  0  0  0  0  0  0  0  0  0  0
    4.9846   17.3725   22.0616 H   0  0  0  0  0  0  0  0  0  0  0  0
    3.9706   15.9039   21.8576 H   0  0  0  0  0  0  0  0  0  0  0  0
    6.1430   15.6611   20.7160 H   0  0  0  0  0  0  0  0  0  0  0  0
  1 12  1  0  0  0  0
  1 14  2  0  0  0  0
  1 17  1  0  0  0  0
  2  3  1  0  0  0  0
  2  4  1  0  0  0  0
  3  6  1  0  0  0  0
  4 12  1  0  0  0  0
  5  6  1  0  0  0  0
  5 12  1  0  0  0  0
  6 18  1  6  0  0  0
  7 11  1  0  0  0  0
  8 11  1  0  0  0  0
  9 11  1  0  0  0  0
 10 13  1  0  0  0  0
 11 17  1  0  0  0  0
 13 18  1  0  0  0  0
 15 18  2  0  0  0  0
 16 18  2  0  0  0  0
  2 19  1  0  0  0  0
  2 20  1  0  0  0  0
  3 21  1  0  0  0  0
  3 22  1  0  0  0  0
  4 23  1  0  0  0  0
  4 24  1  0  0  0  0
  5 25  1  0  0  0  0
  5 26  1  0  0  0  0
  6 27  1  0  0  0  0
  7 28  1  0  0  0  0
  7 29  1  0  0  0  0
  7 30  1  0  0  0  0
  8 31  1  0  0  0  0
  8 32  1  0  0  0  0
  8 33  1  0  0  0  0
  9 34  1  0  0  0  0
  9 35  1  0  0  0  0
  9 36  1  0  0  0  0
 10 37  1  0  0  0  0
 10 38  1  0  0  0  0
 10 39  1  0  0  0  0
 13 40  1  0  0  0  0
M  END
> <Mol Weight>
278,37

> <Formula>
C11H22N2O4S

> <ID>
EN300-27752586

> <name>
Sulfonamides

> <LogP>
0,38

> <ROCS_ShapeQuery>
x0310_0A_x0719_0A_x1080_0A_x0739_0A_x0929_0A_x0526_0A_x0911_0A

> <ROCS_TanimotoCombo>
0.295 

> <ROCS_ShapeTanimoto>
0.179 

> <ROCS_ColorTanimoto>
0.116 

> <ROCS_RefTversky>
0.173 

> <ROCS_RefColorTversky>
0.130 

> <ROCS_RefTverskyCombo>
0.303 

> <ROCS_FitTversky>
1.227 

> <ROCS_FitColorTversky>
0.524 

> <ROCS_FitTverskyCombo>
1.751 

> <ROCS_ColorScore>
-3.782

> <ROCS_Overlap>
1386.370

> <ROCS_Rank>
474                 

$$$$
untitled-dbase-1958_63
  -OEChem-02092407103D

 33 34  0     0  0  0  0  0  0999 V2000
    2.0435   11.2461   18.8863 C   0  0  0  0  0  0  0  0  0  0  0  0
    3.1116   10.8092   18.1028 C   0  0  0  0  0  0  0  0  0  0  0  0
    2.2546   12.1952   19.8865 C   0  0  0  0  0  0  0  0  0  0  0  0
    4.3908   11.3213   18.3194 C   0  0  0  0  0  0  0  0  0  0  0  0
    3.5339   12.7073   20.1031 C   0  0  0  0  0  0  0  0  0  0  0  0
    4.6020   12.2704   19.3196 C   0  0  0  0  0  0  0  0  0  0  0  0
    6.8097   12.0106   20.5834 C   0  0  0  0  0  0  0  0  0  0  0  0
    5.9403   14.3305   19.8973 C   0  0  0  0  0  0  0  0  0  0  0  0
    6.9602   12.7206   21.9260 C   0  0  0  0  0  0  0  0  0  0  0  0
    7.2720   14.8083   20.4682 C   0  0  0  0  0  0  0  0  0  0  0  0
    5.9952   12.8285   19.5563 C   0  0  0  0  0  0  0  0  0  0  0  0
    7.6182   14.0977   21.7819 C   0  0  0  0  0  0  0  0  0  0  0  0
    5.6371   15.6085   22.7062 N   0  0  0  0  0  0  0  0  0  0  0  0
    7.0882   14.2494   24.3382 O   0  0  0  0  0  0  0  0  0  0  0  0
    8.0804   16.2617   23.1757 O   0  0  0  0  0  0  0  0  0  0  0  0
    7.1965   15.1128   23.1788 S   0  0  0  0  0  0  0  0  0  0  0  0
    1.0473   10.8482   18.7166 H   0  0  0  0  0  0  0  0  0  0  0  0
    2.9472   10.0710   17.3232 H   0  0  0  0  0  0  0  0  0  0  0  0
    1.4231   12.5364   20.4960 H   0  0  0  0  0  0  0  0  0  0  0  0
    5.2171   10.9749   17.7042 H   0  0  0  0  0  0  0  0  0  0  0  0
    3.6890   13.4464   20.8848 H   0  0  0  0  0  0  0  0  0  0  0  0
    7.8108   11.7956   20.1728 H   0  0  0  0  0  0  0  0  0  0  0  0
    6.3387   11.0244   20.7346 H   0  0  0  0  0  0  0  0  0  0  0  0
    5.1362   14.5261   20.6132 H   0  0  0  0  0  0  0  0  0  0  0  0
    5.7034   14.9073   18.9979 H   0  0  0  0  0  0  0  0  0  0  0  0
    5.9819   12.8129   22.4023 H   0  0  0  0  0  0  0  0  0  0  0  0
    7.5818   12.1035   22.5805 H   0  0  0  0  0  0  0  0  0  0  0  0
    8.0596   14.5989   19.7409 H   0  0  0  0  0  0  0  0  0  0  0  0
    7.2415   15.8888   20.6141 H   0  0  0  0  0  0  0  0  0  0  0  0
    6.5223   12.7367   18.5572 H   0  0  0  0  0  0  0  0  0  0  0  0
    8.6996   13.9854   21.8587 H   0  0  0  0  0  0  0  0  0  0  0  0
    5.5608   16.2790   21.9314 H   0  0  0  0  0  0  0  0  0  0  0  0
    4.8852   14.9085   22.7234 H   0  0  0  0  0  0  0  0  0  0  0  0
  1  2  1  0  0  0  0
  1  3  2  0  0  0  0
  2  4  2  0  0  0  0
  3  5  1  0  0  0  0
  4  6  1  0  0  0  0
  5  6  2  0  0  0  0
  6 11  1  0  0  0  0
  7  9  1  0  0  0  0
  7 11  1  0  0  0  0
  8 10  1  0  0  0  0
  8 11  1  0  0  0  0
  9 12  1  0  0  0  0
 10 12  1  0  0  0  0
 12 16  1  0  0  0  0
 13 16  1  0  0  0  0
 14 16  2  0  0  0  0
 15 16  2  0  0  0  0
  1 17  1  0  0  0  0
  2 18  1  0  0  0  0
  3 19  1  0  0  0  0
  4 20  1  0  0  0  0
  5 21  1  0  0  0  0
  7 22  1  0  0  0  0
  7 23  1  0  0  0  0
  8 24  1  0  0  0  0
  8 25  1  0  0  0  0
  9 26  1  0  0  0  0
  9 27  1  0  0  0  0
 10 28  1  0  0  0  0
 10 29  1  0  0  0  0
 11 30  1  0  0  0  0
 12 31  1  0  0  0  0
 13 32  1  0  0  0  0
 13 33  1  0  0  0  0
M  END
> <Mol Weight>
239,33

> <Formula>
C12H17NO2S

> <ID>
EN300-215779

> <name>
Sulfonamides

> <LogP>
1,99

> <ROCS_ShapeQuery>
x0310_0A_x0719_0A_x1080_0A_x0739_0A_x0929_0A_x0526_0A_x0911_0A

> <ROCS_TanimotoCombo>
0.295 

> <ROCS_ShapeTanimoto>
0.160 

> <ROCS_ColorTanimoto>
0.135 

> <ROCS_RefTversky>
0.156 

> <ROCS_RefColorTversky>
0.145 

> <ROCS_RefTverskyCombo>
0.301 

> <ROCS_FitTversky>
1.179 

> <ROCS_FitColorTversky>
0.671 

> <ROCS_FitTverskyCombo>
1.850 

> <ROCS_ColorScore>
-4.204

> <ROCS_Overlap>
1248.132

> <ROCS_Rank>
475                 

$$$$
untitled-dbase-2112_1210
  -OEChem-02092407103D

 31 31  0     0  0  0  0  0  0999 V2000
    8.7663   11.6700   24.9045 C   0  0  0  0  0  0  0  0  0  0  0  0
    9.3209   10.4861   24.4184 C   0  0  0  0  0  0  0  0  0  0  0  0
    8.7251   11.1312   22.1676 C   0  0  0  0  0  0  0  0  0  0  0  0
    8.1910   12.5845   24.0222 C   0  0  0  0  0  0  0  0  0  0  0  0
    8.1704   12.3151   22.6538 C   0  0  0  0  0  0  0  0  0  0  0  0
    9.3003   10.2167   23.0500 C   0  0  0  0  0  0  0  0  0  0  0  0
    8.7455   15.7463   25.2175 C   0  0  0  0  0  0  0  0  0  0  0  0
    5.8038   14.5098   20.9160 C   0  0  0  0  0  0  0  0  0  0  0  0
    8.2097   14.9626   24.0383 C   0  0  0  0  0  0  0  0  0  0  0  0
    6.2300   13.5052   21.9652 C   0  0  0  0  0  0  0  0  0  0  0  0
    9.7115    8.9061   20.7656 N   0  0  0  0  0  0  0  0  0  0  0  0
   11.4320    8.7699   22.6805 O   0  0  0  0  0  0  0  0  0  0  0  0
    9.2071    7.6161   22.9378 O   0  0  0  0  0  0  0  0  0  0  0  0
    7.6526   13.7371   24.5095 O   0  0  0  0  0  0  0  0  0  0  0  0
    7.6112   13.2002   21.7823 O   0  0  0  0  0  0  0  0  0  0  0  0
    9.9959    8.7351   22.4417 S   0  0  0  0  0  0  0  0  0  0  0  0
    8.7862   11.8742   25.9716 H   0  0  0  0  0  0  0  0  0  0  0  0
    9.7670    9.7808   25.1145 H   0  0  0  0  0  0  0  0  0  0  0  0
    8.7067   10.9251   21.1002 H   0  0  0  0  0  0  0  0  0  0  0  0
    7.9470   15.9765   25.9283 H   0  0  0  0  0  0  0  0  0  0  0  0
    9.5267   15.1796   25.7347 H   0  0  0  0  0  0  0  0  0  0  0  0
    9.2013   16.6839   24.8825 H   0  0  0  0  0  0  0  0  0  0  0  0
    6.3801   15.4349   21.0046 H   0  0  0  0  0  0  0  0  0  0  0  0
    5.9443   14.1006   19.9101 H   0  0  0  0  0  0  0  0  0  0  0  0
    4.7392   14.7457   21.0177 H   0  0  0  0  0  0  0  0  0  0  0  0
    9.0133   14.7356   23.3314 H   0  0  0  0  0  0  0  0  0  0  0  0
    7.4287   15.5298   23.5232 H   0  0  0  0  0  0  0  0  0  0  0  0
    5.6498   12.5824   21.8710 H   0  0  0  0  0  0  0  0  0  0  0  0
    6.0897   13.9159   22.9695 H   0  0  0  0  0  0  0  0  0  0  0  0
    8.7452    8.8141   20.4290 H   0  0  0  0  0  0  0  0  0  0  0  0
   10.2659    9.6012   20.2511 H   0  0  0  0  0  0  0  0  0  0  0  0
  1  2  2  0  0  0  0
  1  4  1  0  0  0  0
  2  6  1  0  0  0  0
  3  5  1  0  0  0  0
  3  6  2  0  0  0  0
  4  5  2  0  0  0  0
  4 14  1  0  0  0  0
  5 15  1  0  0  0  0
  6 16  1  0  0  0  0
  7  9  1  0  0  0  0
  8 10  1  0  0  0  0
  9 14  1  0  0  0  0
 10 15  1  0  0  0  0
 11 16  1  0  0  0  0
 12 16  2  0  0  0  0
 13 16  2  0  0  0  0
  1 17  1  0  0  0  0
  2 18  1  0  0  0  0
  3 19  1  0  0  0  0
  7 20  1  0  0  0  0
  7 21  1  0  0  0  0
  7 22  1  0  0  0  0
  8 23  1  0  0  0  0
  8 24  1  0  0  0  0
  8 25  1  0  0  0  0
  9 26  1  0  0  0  0
  9 27  1  0  0  0  0
 10 28  1  0  0  0  0
 10 29  1  0  0  0  0
 11 30  1  0  0  0  0
 11 31  1  0  0  0  0
M  END
> <Mol Weight>
245,29

> <Formula>
C10H15NO4S

> <ID>
EN300-13877

> <name>
Sulfonamides

> <LogP>
0,98

> <ROCS_ShapeQuery>
x0310_0A_x0719_0A_x1080_0A_x0739_0A_x0929_0A_x0526_0A_x0911_0A

> <ROCS_TanimotoCombo>
0.295 

> <ROCS_ShapeTanimoto>
0.165 

> <ROCS_ColorTanimoto>
0.130 

> <ROCS_RefTversky>
0.160 

> <ROCS_RefColorTversky>
0.143 

> <ROCS_RefTverskyCombo>
0.304 

> <ROCS_FitTversky>
1.219 

> <ROCS_FitColorTversky>
0.576 

> <ROCS_FitTverskyCombo>
1.795 

> <ROCS_ColorScore>
-4.160

> <ROCS_Overlap>
1285.865

> <ROCS_Rank>
476                 

$$$$
untitled-dbase-138_3
  -OEChem-02092407103D

 16 16  0     0  0  0  0  0  0999 V2000
   10.2323   11.3201   23.9319 C   0  0  0  0  0  0  0  0  0  0  0  0
    9.3762   12.3575   23.5796 C   0  0  0  0  0  0  0  0  0  0  0  0
    9.6811   10.0653   24.1359 C   0  0  0  0  0  0  0  0  0  0  0  0
    7.5625   10.8218   23.6697 C   0  0  0  0  0  0  0  0  0  0  0  0
    8.0144   12.1120   23.4440 C   0  0  0  0  0  0  0  0  0  0  0  0
    8.3636    9.7885   24.0134 N   0  0  0  0  0  0  0  0  0  0  0  0
    5.4245   12.5439   22.9848 N   0  0  0  0  0  0  0  0  0  0  0  0
    6.8805   14.3656   24.0833 O   0  0  0  0  0  0  0  0  0  0  0  0
    7.2178   13.8208   21.6467 O   0  0  0  0  0  0  0  0  0  0  0  0
    6.9124   13.3857   23.0044 S   0  0  0  0  0  0  0  0  0  0  0  0
   11.2973   11.4882   24.0433 H   0  0  0  0  0  0  0  0  0  0  0  0
    9.7798   13.3524   23.4132 H   0  0  0  0  0  0  0  0  0  0  0  0
   10.3061    9.2226   24.4122 H   0  0  0  0  0  0  0  0  0  0  0  0
    6.5106   10.5689   23.5790 H   0  0  0  0  0  0  0  0  0  0  0  0
    4.7528   12.7330   23.7388 H   0  0  0  0  0  0  0  0  0  0  0  0
    4.9857   12.3600   22.0743 H   0  0  0  0  0  0  0  0  0  0  0  0
  1  2  2  0  0  0  0
  1  3  1  0  0  0  0
  2  5  1  0  0  0  0
  3  6  2  0  0  0  0
  4  5  2  0  0  0  0
  4  6  1  0  0  0  0
  5 10  1  0  0  0  0
  7 10  1  0  0  0  0
  8 10  2  0  0  0  0
  9 10  2  0  0  0  0
  1 11  1  0  0  0  0
  2 12  1  0  0  0  0
  3 13  1  0  0  0  0
  4 14  1  0  0  0  0
  7 15  1  0  0  0  0
  7 16  1  0  0  0  0
M  END
> <Mol Weight>
158,18

> <Formula>
C5H6N2O2S

> <ID>
EN300-26424

> <name>
Sulfonamides

> <LogP>
-0,64

> <ROCS_ShapeQuery>
x0310_0A_x0719_0A_x1080_0A_x0739_0A_x0929_0A_x0526_0A_x0911_0A

> <ROCS_TanimotoCombo>
0.295 

> <ROCS_ShapeTanimoto>
0.128 

> <ROCS_ColorTanimoto>
0.167 

> <ROCS_RefTversky>
0.125 

> <ROCS_RefColorTversky>
0.174 

> <ROCS_RefTverskyCombo>
0.299 

> <ROCS_FitTversky>
1.227 

> <ROCS_FitColorTversky>
0.806 

> <ROCS_FitTverskyCombo>
2.032 

> <ROCS_ColorScore>
-5.049

> <ROCS_Overlap>
997.794

> <ROCS_Rank>
477                 

$$$$
untitled-dbase-2015_6
  -OEChem-02092407103D

 24 25  0     0  0  0  0  0  0999 V2000
    6.6301   10.3148   21.4294 C   0  0  0  0  0  0  0  0  0  0  0  0
    5.6037   10.4422   20.4935 C   0  0  0  0  0  0  0  0  0  0  0  0
    9.7499   11.7110   24.4109 C   0  0  0  0  0  0  0  0  0  0  0  0
    5.3757   12.7794   21.0616 C   0  0  0  0  0  0  0  0  0  0  0  0
    9.2981   10.3828   24.5282 C   0  0  0  0  0  0  0  0  0  0  0  0
    8.9154   12.2764   23.4779 C   0  0  0  0  0  0  0  0  0  0  0  0
    7.0292   11.4197   22.1815 C   0  0  0  0  0  0  0  0  0  0  0  0
    6.4020   12.6520   21.9976 C   0  0  0  0  0  0  0  0  0  0  0  0
    4.9766   11.6745   20.3095 C   0  0  0  0  0  0  0  0  0  0  0  0
    8.2573   10.1202   23.7333 N   0  0  0  0  0  0  0  0  0  0  0  0
    8.0481   11.2910   23.1077 N   0  0  0  0  0  0  0  0  0  0  0  0
    3.2944   13.4867   19.3141 N   0  0  0  0  0  0  0  0  0  0  0  0
    4.2527   11.6251   17.8102 O   0  0  0  0  0  0  0  0  0  0  0  0
    2.5602   11.0317   19.5797 O   0  0  0  0  0  0  0  0  0  0  0  0
    6.7760   13.7225   22.7134 F   0  0  0  0  0  0  0  0  0  0  0  0
    3.6921   11.8344   19.1378 S   0  0  0  0  0  0  0  0  0  0  0  0
    7.1103    9.3484   21.5620 H   0  0  0  0  0  0  0  0  0  0  0  0
    5.3005    9.5748   19.9128 H   0  0  0  0  0  0  0  0  0  0  0  0
   10.5657   12.1916   24.9303 H   0  0  0  0  0  0  0  0  0  0  0  0
    4.8939   13.7440   20.9263 H   0  0  0  0  0  0  0  0  0  0  0  0
    9.6835    9.5951   25.1597 H   0  0  0  0  0  0  0  0  0  0  0  0
    8.8717   13.2744   23.0621 H   0  0  0  0  0  0  0  0  0  0  0  0
    3.5578   14.1293   18.5570 H   0  0  0  0  0  0  0  0  0  0  0  0
    2.4031   13.7223   19.7672 H   0  0  0  0  0  0  0  0  0  0  0  0
  1  2  2  0  0  0  0
  1  7  1  0  0  0  0
  2  9  1  0  0  0  0
  3  5  1  0  0  0  0
  3  6  2  0  0  0  0
  4  8  1  0  0  0  0
  4  9  2  0  0  0  0
  5 10  2  0  0  0  0
  6 11  1  0  0  0  0
  7  8  2  0  0  0  0
  7 11  1  0  0  0  0
  8 15  1  0  0  0  0
  9 16  1  0  0  0  0
 10 11  1  0  0  0  0
 12 16  1  0  0  0  0
 13 16  2  0  0  0  0
 14 16  2  0  0  0  0
  1 17  1  0  0  0  0
  2 18  1  0  0  0  0
  3 19  1  0  0  0  0
  4 20  1  0  0  0  0
  5 21  1  0  0  0  0
  6 22  1  0  0  0  0
 12 23  1  0  0  0  0
 12 24  1  0  0  0  0
M  END
> <Mol Weight>
241,24

> <Formula>
C9H8FN3O2S

> <ID>
EN300-80565

> <name>
Sulfonamides

> <LogP>
0,81

> <ROCS_ShapeQuery>
x0310_0A_x0719_0A_x1080_0A_x0739_0A_x0929_0A_x0526_0A_x0911_0A

> <ROCS_TanimotoCombo>
0.295 

> <ROCS_ShapeTanimoto>
0.172 

> <ROCS_ColorTanimoto>
0.122 

> <ROCS_RefTversky>
0.167 

> <ROCS_RefColorTversky>
0.136 

> <ROCS_RefTverskyCombo>
0.303 

> <ROCS_FitTversky>
1.217 

> <ROCS_FitColorTversky>
0.548 

> <ROCS_FitTverskyCombo>
1.765 

> <ROCS_ColorScore>
-3.954

> <ROCS_Overlap>
1339.623

> <ROCS_Rank>
478                 

$$$$
untitled-dbase-2017_39
  -OEChem-02092407103D

 24 25  0     0  0  0  0  0  0999 V2000
    9.4926   10.0492   23.2692 C   0  0  0  0  0  0  0  0  0  0  0  0
    9.5821   10.5723   24.5592 C   0  0  0  0  0  0  0  0  0  0  0  0
    8.6672   10.6596   22.3248 C   0  0  0  0  0  0  0  0  0  0  0  0
    8.8462   11.7057   24.9048 C   0  0  0  0  0  0  0  0  0  0  0  0
    6.3559   13.8906   20.4690 C   0  0  0  0  0  0  0  0  0  0  0  0
    6.0637   11.8029   21.0942 C   0  0  0  0  0  0  0  0  0  0  0  0
    7.9313   11.7930   22.6704 C   0  0  0  0  0  0  0  0  0  0  0  0
    8.0208   12.3161   23.9604 C   0  0  0  0  0  0  0  0  0  0  0  0
    5.5440   12.7602   20.2576 C   0  0  0  0  0  0  0  0  0  0  0  0
    7.3182   13.6732   21.3694 N   0  0  0  0  0  0  0  0  0  0  0  0
    7.1142   12.3951   21.7313 N   0  0  0  0  0  0  0  0  0  0  0  0
    4.1364   14.1680   18.4851 N   0  0  0  0  0  0  0  0  0  0  0  0
    4.5262   11.6434   18.1386 O   0  0  0  0  0  0  0  0  0  0  0  0
    2.9785   12.4117   19.9723 O   0  0  0  0  0  0  0  0  0  0  0  0
    7.3194   13.4055   24.3058 F   0  0  0  0  0  0  0  0  0  0  0  0
    4.2197   12.6101   19.2057 S   0  0  0  0  0  0  0  0  0  0  0  0
   10.0658    9.1669   23.0005 H   0  0  0  0  0  0  0  0  0  0  0  0
   10.2246   10.0969   25.2946 H   0  0  0  0  0  0  0  0  0  0  0  0
    8.6067   10.2409   21.3231 H   0  0  0  0  0  0  0  0  0  0  0  0
    8.9160   12.1129   25.9090 H   0  0  0  0  0  0  0  0  0  0  0  0
    6.2887   14.8649   20.0060 H   0  0  0  0  0  0  0  0  0  0  0  0
    5.7778   10.7761   21.2820 H   0  0  0  0  0  0  0  0  0  0  0  0
    4.4253   14.2700   17.5045 H   0  0  0  0  0  0  0  0  0  0  0  0
    3.3693   14.7939   18.7591 H   0  0  0  0  0  0  0  0  0  0  0  0
  1  2  1  0  0  0  0
  1  3  2  0  0  0  0
  2  4  2  0  0  0  0
  3  7  1  0  0  0  0
  4  8  1  0  0  0  0
  5  9  1  0  0  0  0
  5 10  2  0  0  0  0
  6  9  2  0  0  0  0
  6 11  1  0  0  0  0
  7  8  2  0  0  0  0
  7 11  1  0  0  0  0
  8 15  1  0  0  0  0
  9 16  1  0  0  0  0
 10 11  1  0  0  0  0
 12 16  1  0  0  0  0
 13 16  2  0  0  0  0
 14 16  2  0  0  0  0
  1 17  1  0  0  0  0
  2 18  1  0  0  0  0
  3 19  1  0  0  0  0
  4 20  1  0  0  0  0
  5 21  1  0  0  0  0
  6 22  1  0  0  0  0
 12 23  1  0  0  0  0
 12 24  1  0  0  0  0
M  END
> <Mol Weight>
241,24

> <Formula>
C9H8FN3O2S

> <ID>
EN300-91450

> <name>
Sulfonamides

> <LogP>
0,81

> <ROCS_ShapeQuery>
x0310_0A_x0719_0A_x1080_0A_x0739_0A_x0929_0A_x0526_0A_x0911_0A

> <ROCS_TanimotoCombo>
0.295 

> <ROCS_ShapeTanimoto>
0.169 

> <ROCS_ColorTanimoto>
0.125 

> <ROCS_RefTversky>
0.165 

> <ROCS_RefColorTversky>
0.139 

> <ROCS_RefTverskyCombo>
0.304 

> <ROCS_FitTversky>
1.201 

> <ROCS_FitColorTversky>
0.559 

> <ROCS_FitTverskyCombo>
1.760 

> <ROCS_ColorScore>
-4.036

> <ROCS_Overlap>
1320.316

> <ROCS_Rank>
479                 

$$$$
untitled-dbase-897_7
  -OEChem-02092407103D

 24 24  0     0  0  0  0  0  0999 V2000
    8.5251   10.7592   24.9412 C   0  0  0  0  0  0  0  0  0  0  0  0
    8.7094   12.1229   24.7422 C   0  0  0  0  0  0  0  0  0  0  0  0
    8.9312   10.4188   22.6227 C   0  0  0  0  0  0  0  0  0  0  0  0
    8.6364    9.8841   23.8665 C   0  0  0  0  0  0  0  0  0  0  0  0
    9.0012   12.5573   23.4592 C   0  0  0  0  0  0  0  0  0  0  0  0
    7.0983   14.6682   21.6977 C   0  0  0  0  0  0  0  0  0  0  0  0
    8.4447    8.4203   24.0469 C   0  0  0  0  0  0  0  0  0  0  0  0
    9.1172   11.7375   22.3905 N   0  0  0  0  0  0  0  0  0  0  0  0
    7.1707    7.9648   23.5467 N   0  0  0  0  0  0  0  0  0  0  0  0
    9.1993   13.9489   23.2081 N   0  0  0  0  0  0  0  0  0  0  0  0
    6.9162   14.4757   24.2856 O   0  0  0  0  0  0  0  0  0  0  0  0
    8.2416   16.3829   23.3104 O   0  0  0  0  0  0  0  0  0  0  0  0
    7.8317   14.9928   23.2856 S   0  0  0  0  0  0  0  0  0  0  0  0
    8.2957   10.3872   25.9358 H   0  0  0  0  0  0  0  0  0  0  0  0
    8.6258   12.8164   25.5720 H   0  0  0  0  0  0  0  0  0  0  0  0
    9.0306    9.7851   21.7470 H   0  0  0  0  0  0  0  0  0  0  0  0
    6.1977   15.2769   21.6035 H   0  0  0  0  0  0  0  0  0  0  0  0
    7.8210   14.9323   20.9242 H   0  0  0  0  0  0  0  0  0  0  0  0
    6.8503   13.6072   21.6435 H   0  0  0  0  0  0  0  0  0  0  0  0
    9.2251    7.8471   23.5240 H   0  0  0  0  0  0  0  0  0  0  0  0
    8.4995    8.1302   25.1068 H   0  0  0  0  0  0  0  0  0  0  0  0
    7.1275    8.1261   22.5625 H   0  0  0  0  0  0  0  0  0  0  0  0
    7.0753    6.9887   23.7329 H   0  0  0  0  0  0  0  0  0  0  0  0
    9.8515   14.1513   22.4326 H   0  0  0  0  0  0  0  0  0  0  0  0
  1  2  2  0  0  0  0
  1  4  1  0  0  0  0
  2  5  1  0  0  0  0
  3  4  2  0  0  0  0
  3  8  1  0  0  0  0
  4  7  1  0  0  0  0
  5  8  2  0  0  0  0
  5 10  1  0  0  0  0
  6 13  1  0  0  0  0
  7  9  1  0  0  0  0
 10 13  1  0  0  0  0
 11 13  2  0  0  0  0
 12 13  2  0  0  0  0
  1 14  1  0  0  0  0
  2 15  1  0  0  0  0
  3 16  1  0  0  0  0
  6 17  1  0  0  0  0
  6 18  1  0  0  0  0
  6 19  1  0  0  0  0
  7 20  1  0  0  0  0
  7 21  1  0  0  0  0
  9 22  1  0  0  0  0
  9 23  1  0  0  0  0
 10 24  1  0  0  0  0
M  END
> <Mol Weight>
201,24

> <Formula>
C7H11N3O2S

> <ID>
EN300-3091814

> <name>
Sulfonamides

> <LogP>
-2,08

> <ROCS_ShapeQuery>
x0310_0A_x0719_0A_x1080_0A_x0739_0A_x0929_0A_x0526_0A_x0911_0A

> <ROCS_TanimotoCombo>
0.294 

> <ROCS_ShapeTanimoto>
0.163 

> <ROCS_ColorTanimoto>
0.132 

> <ROCS_RefTversky>
0.156 

> <ROCS_RefColorTversky>
0.149 

> <ROCS_RefTverskyCombo>
0.305 

> <ROCS_FitTversky>
1.340 

> <ROCS_FitColorTversky>
0.531 

> <ROCS_FitTverskyCombo>
1.872 

> <ROCS_ColorScore>
-4.341

> <ROCS_Overlap>
1250.238

> <ROCS_Rank>
480                 

$$$$
untitled-dbase-848_21
  -OEChem-02092407103D

 25 25  0     0  0  0  0  0  0999 V2000
   10.0935   11.4295   24.5586 C   0  0  0  0  0  0  0  0  0  0  0  0
    9.3044   10.2839   24.4560 C   0  0  0  0  0  0  0  0  0  0  0  0
    7.8208   11.4417   22.9407 C   0  0  0  0  0  0  0  0  0  0  0  0
    9.7463   12.5812   23.8524 C   0  0  0  0  0  0  0  0  0  0  0  0
    8.1681   10.2900   23.6471 C   0  0  0  0  0  0  0  0  0  0  0  0
    8.6100   12.5872   23.0434 C   0  0  0  0  0  0  0  0  0  0  0  0
   10.6088   13.7943   23.9801 C   0  0  0  0  0  0  0  0  0  0  0  0
    6.0630   15.3113   22.0524 C   0  0  0  0  0  0  0  0  0  0  0  0
    7.3695    9.1320   23.5448 N   0  0  0  0  0  0  0  0  0  0  0  0
    8.2379   13.7578   22.3112 N   0  0  0  0  0  0  0  0  0  0  0  0
    6.8709   14.4684   24.3771 O   0  0  0  0  0  0  0  0  0  0  0  0
    8.2354   16.2228   23.1916 O   0  0  0  0  0  0  0  0  0  0  0  0
    7.4276   15.0198   23.1557 S   0  0  0  0  0  0  0  0  0  0  0  0
   10.9765   11.4148   25.1922 H   0  0  0  0  0  0  0  0  0  0  0  0
    9.5832    9.3923   25.0118 H   0  0  0  0  0  0  0  0  0  0  0  0
    6.9342   11.4462   22.3102 H   0  0  0  0  0  0  0  0  0  0  0  0
   11.3937   13.7841   23.2153 H   0  0  0  0  0  0  0  0  0  0  0  0
   10.0200   14.7125   23.8652 H   0  0  0  0  0  0  0  0  0  0  0  0
   11.0832   13.8404   24.9681 H   0  0  0  0  0  0  0  0  0  0  0  0
    5.4464   16.1085   22.4704 H   0  0  0  0  0  0  0  0  0  0  0  0
    6.4626   15.6063   21.0810 H   0  0  0  0  0  0  0  0  0  0  0  0
    5.4876   14.3885   21.9652 H   0  0  0  0  0  0  0  0  0  0  0  0
    7.6544    8.2993   24.0195 H   0  0  0  0  0  0  0  0  0  0  0  0
    6.5845    9.1341   22.9253 H   0  0  0  0  0  0  0  0  0  0  0  0
    8.9511   14.0783   21.6369 H   0  0  0  0  0  0  0  0  0  0  0  0
  1  2  2  0  0  0  0
  1  4  1  0  0  0  0
  2  5  1  0  0  0  0
  3  5  2  0  0  0  0
  3  6  1  0  0  0  0
  4  6  2  0  0  0  0
  4  7  1  0  0  0  0
  5  9  1  0  0  0  0
  6 10  1  0  0  0  0
  8 13  1  0  0  0  0
 10 13  1  0  0  0  0
 11 13  2  0  0  0  0
 12 13  2  0  0  0  0
  1 14  1  0  0  0  0
  2 15  1  0  0  0  0
  3 16  1  0  0  0  0
  7 17  1  0  0  0  0
  7 18  1  0  0  0  0
  7 19  1  0  0  0  0
  8 20  1  0  0  0  0
  8 21  1  0  0  0  0
  8 22  1  0  0  0  0
  9 23  1  0  0  0  0
  9 24  1  0  0  0  0
 10 25  1  0  0  0  0
M  END
> <Mol Weight>
200,26

> <Formula>
C8H12N2O2S

> <ID>
EN300-55777

> <name>
Sulfonamides

> <LogP>
0,03

> <ROCS_ShapeQuery>
x0310_0A_x0719_0A_x1080_0A_x0739_0A_x0929_0A_x0526_0A_x0911_0A

> <ROCS_TanimotoCombo>
0.294 

> <ROCS_ShapeTanimoto>
0.156 

> <ROCS_ColorTanimoto>
0.138 

> <ROCS_RefTversky>
0.151 

> <ROCS_RefColorTversky>
0.152 

> <ROCS_RefTverskyCombo>
0.302 

> <ROCS_FitTversky>
1.294 

> <ROCS_FitColorTversky>
0.611 

> <ROCS_FitTverskyCombo>
1.905 

> <ROCS_ColorScore>
-4.408

> <ROCS_Overlap>
1206.581

> <ROCS_Rank>
481                 

$$$$
untitled-dbase-1254_0
  -OEChem-02092407103D

 21 22  0     0  0  0  0  0  0999 V2000
    8.9354   12.4637   24.4468 C   0  0  0  0  0  0  0  0  0  0  0  0
    9.6220   11.3145   24.8555 C   0  0  0  0  0  0  0  0  0  0  0  0
    8.9097   10.1163   22.8652 C   0  0  0  0  0  0  0  0  0  0  0  0
    6.9888   12.7986   21.3713 C   0  0  0  0  0  0  0  0  0  0  0  0
    8.2245   12.4434   23.2304 C   0  0  0  0  0  0  0  0  0  0  0  0
    8.2280   11.2726   22.4692 C   0  0  0  0  0  0  0  0  0  0  0  0
    9.6080   10.1600   24.0753 C   0  0  0  0  0  0  0  0  0  0  0  0
    7.4385   13.3974   22.5255 C   0  0  0  0  0  0  0  0  0  0  0  0
    7.4699   11.5171   21.3464 N   0  0  0  0  0  0  0  0  0  0  0  0
    6.1211   15.5712   21.7229 N   0  0  0  0  0  0  0  0  0  0  0  0
    6.2846   14.9907   24.2293 O   0  0  0  0  0  0  0  0  0  0  0  0
    8.3402   15.7920   23.0128 O   0  0  0  0  0  0  0  0  0  0  0  0
   10.2744    9.0739   24.4909 F   0  0  0  0  0  0  0  0  0  0  0  0
    7.1033   14.9987   23.0093 S   0  0  0  0  0  0  0  0  0  0  0  0
    8.9560   13.3554   25.0668 H   0  0  0  0  0  0  0  0  0  0  0  0
   10.1717   11.3240   25.7929 H   0  0  0  0  0  0  0  0  0  0  0  0
    8.9001    9.2172   22.2586 H   0  0  0  0  0  0  0  0  0  0  0  0
    6.3692   13.1667   20.5653 H   0  0  0  0  0  0  0  0  0  0  0  0
    7.2938   10.8467   20.6109 H   0  0  0  0  0  0  0  0  0  0  0  0
    6.5657   15.7621   20.8167 H   0  0  0  0  0  0  0  0  0  0  0  0
    5.1599   15.2168   21.6473 H   0  0  0  0  0  0  0  0  0  0  0  0
  1  2  2  0  0  0  0
  1  5  1  0  0  0  0
  2  7  1  0  0  0  0
  3  6  1  0  0  0  0
  3  7  2  0  0  0  0
  4  8  2  0  0  0  0
  4  9  1  0  0  0  0
  5  6  2  0  0  0  0
  5  8  1  0  0  0  0
  6  9  1  0  0  0  0
  7 13  1  0  0  0  0
  8 14  1  0  0  0  0
 10 14  1  0  0  0  0
 11 14  2  0  0  0  0
 12 14  2  0  0  0  0
  1 15  1  0  0  0  0
  2 16  1  0  0  0  0
  3 17  1  0  0  0  0
  4 18  1  0  0  0  0
  9 19  1  0  0  0  0
 10 20  1  0  0  0  0
 10 21  1  0  0  0  0
M  END
> <Mol Weight>
214,21

> <Formula>
C8H7FN2O2S

> <ID>
EN300-1275580

> <name>
Sulfonamides

> <LogP>
0,82

> <ROCS_ShapeQuery>
x0310_0A_x0719_0A_x1080_0A_x0739_0A_x0929_0A_x0526_0A_x0911_0A

> <ROCS_TanimotoCombo>
0.294 

> <ROCS_ShapeTanimoto>
0.153 

> <ROCS_ColorTanimoto>
0.141 

> <ROCS_RefTversky>
0.150 

> <ROCS_RefColorTversky>
0.154 

> <ROCS_RefTverskyCombo>
0.304 

> <ROCS_FitTversky>
1.190 

> <ROCS_FitColorTversky>
0.619 

> <ROCS_FitTverskyCombo>
1.810 

> <ROCS_ColorScore>
-4.481

> <ROCS_Overlap>
1199.942

> <ROCS_Rank>
482                 

$$$$
untitled-dbase-2122_2
  -OEChem-02092407103D

 22 23  0     0  0  0  0  0  0999 V2000
   10.3652    8.8610   24.4979 C   0  0  0  0  0  0  0  0  0  0  0  0
   11.6395    9.4433   24.5326 C   0  0  0  0  0  0  0  0  0  0  0  0
    9.5165    9.8878   24.1518 C   0  0  0  0  0  0  0  0  0  0  0  0
    9.7608   12.2502   23.6446 C   0  0  0  0  0  0  0  0  0  0  0  0
    7.6749   11.0911   23.6349 C   0  0  0  0  0  0  0  0  0  0  0  0
    8.4425   12.3446   23.4495 C   0  0  0  0  0  0  0  0  0  0  0  0
   12.9255    8.7954   24.8498 C   0  0  0  0  0  0  0  0  0  0  0  0
   11.6255   10.7418   24.2342 N   0  0  0  0  0  0  0  0  0  0  0  0
    8.1655    9.9338   23.9637 N   0  0  0  0  0  0  0  0  0  0  0  0
   10.3171   11.0226   23.9980 N   0  0  0  0  0  0  0  0  0  0  0  0
    9.0579   14.9413   22.9367 N   0  0  0  0  0  0  0  0  0  0  0  0
    7.1921   13.7331   21.6661 O   0  0  0  0  0  0  0  0  0  0  0  0
    6.8691   14.2876   24.0973 O   0  0  0  0  0  0  0  0  0  0  0  0
    7.7404   13.8347   23.0163 S   0  0  0  0  0  0  0  0  0  0  0  0
    9.9775    7.2434   24.8160 Cl  0  0  0  0  0  0  0  0  0  0  0  0
   10.4434   13.0860   23.5434 H   0  0  0  0  0  0  0  0  0  0  0  0
    6.5875   11.1719   23.4735 H   0  0  0  0  0  0  0  0  0  0  0  0
   13.4042    8.3931   23.9414 H   0  0  0  0  0  0  0  0  0  0  0  0
   13.6380    9.4949   25.3207 H   0  0  0  0  0  0  0  0  0  0  0  0
   12.8052    7.9601   25.5617 H   0  0  0  0  0  0  0  0  0  0  0  0
    9.1005   15.6802   23.6499 H   0  0  0  0  0  0  0  0  0  0  0  0
    9.3127   15.2821   22.0008 H   0  0  0  0  0  0  0  0  0  0  0  0
  1  2  1  0  0  0  0
  1  3  2  0  0  0  0
  1 15  1  0  0  0  0
  2  7  1  0  0  0  0
  2  8  2  0  0  0  0
  3  9  1  0  0  0  0
  3 10  1  0  0  0  0
  4  6  2  0  0  0  0
  4 10  1  0  0  0  0
  5  6  1  0  0  0  0
  5  9  2  0  0  0  0
  6 14  1  0  0  0  0
  8 10  1  0  0  0  0
 11 14  1  0  0  0  0
 12 14  2  0  0  0  0
 13 14  2  0  0  0  0
  4 16  1  0  0  0  0
  5 17  1  0  0  0  0
  7 18  1  0  0  0  0
  7 19  1  0  0  0  0
  7 20  1  0  0  0  0
 11 21  1  0  0  0  0
 11 22  1  0  0  0  0
M  END
> <Mol Weight>
246,67

> <Formula>
C7H7ClN4O2S

> <ID>
EN300-113030

> <name>
Sulfonamides

> <LogP>
-0,01

> <ROCS_ShapeQuery>
x0310_0A_x0719_0A_x1080_0A_x0739_0A_x0929_0A_x0526_0A_x0911_0A

> <ROCS_TanimotoCombo>
0.294 

> <ROCS_ShapeTanimoto>
0.140 

> <ROCS_ColorTanimoto>
0.154 

> <ROCS_RefTversky>
0.139 

> <ROCS_RefColorTversky>
0.171 

> <ROCS_RefTverskyCombo>
0.310 

> <ROCS_FitTversky>
1.064 

> <ROCS_FitColorTversky>
0.608 

> <ROCS_FitTverskyCombo>
1.672 

> <ROCS_ColorScore>
-4.981

> <ROCS_Overlap>
1114.097

> <ROCS_Rank>
483                 

$$$$
untitled-dbase-1518_23
  -OEChem-02092407103D

 25 26  0     0  0  0  0  0  0999 V2000
    9.5098   10.3514   24.3039 C   0  0  0  0  0  0  0  0  0  0  0  0
    9.8512   10.5816   22.9770 C   0  0  0  0  0  0  0  0  0  0  0  0
    8.4752   11.0802   24.8835 C   0  0  0  0  0  0  0  0  0  0  0  0
    9.1578   11.5394   22.2330 C   0  0  0  0  0  0  0  0  0  0  0  0
    6.7324   12.7914   24.6932 C   0  0  0  0  0  0  0  0  0  0  0  0
    6.4682   13.8984   22.6184 C   0  0  0  0  0  0  0  0  0  0  0  0
    7.7779   12.0436   24.1349 C   0  0  0  0  0  0  0  0  0  0  0  0
    6.0632   13.7353   23.9276 C   0  0  0  0  0  0  0  0  0  0  0  0
    8.1190   12.2824   22.7871 C   0  0  0  0  0  0  0  0  0  0  0  0
    4.9519   14.5419   24.4977 C   0  0  0  0  0  0  0  0  0  0  0  0
    7.4714   13.1978   22.0417 N   0  0  0  0  0  0  0  0  0  0  0  0
    5.0631   16.5689   22.7859 N   0  0  0  0  0  0  0  0  0  0  0  0
    4.5012   17.0006   25.2586 O   0  0  0  0  0  0  0  0  0  0  0  0
    6.8523   16.3312   24.6187 O   0  0  0  0  0  0  0  0  0  0  0  0
    5.4158   16.2433   24.4218 S   0  0  0  0  0  0  0  0  0  0  0  0
   10.0471    9.6088   24.8857 H   0  0  0  0  0  0  0  0  0  0  0  0
   10.6576   10.0179   22.5169 H   0  0  0  0  0  0  0  0  0  0  0  0
    8.2159   10.8923   25.9230 H   0  0  0  0  0  0  0  0  0  0  0  0
    9.4446   11.7006   21.1954 H   0  0  0  0  0  0  0  0  0  0  0  0
    6.4408   12.6360   25.7302 H   0  0  0  0  0  0  0  0  0  0  0  0
    5.9872   14.6202   21.9654 H   0  0  0  0  0  0  0  0  0  0  0  0
    4.7502   14.2969   25.5485 H   0  0  0  0  0  0  0  0  0  0  0  0
    4.0162   14.4253   23.9355 H   0  0  0  0  0  0  0  0  0  0  0  0
    4.2525   17.1660   22.5810 H   0  0  0  0  0  0  0  0  0  0  0  0
    5.8538   16.7099   22.1451 H   0  0  0  0  0  0  0  0  0  0  0  0
  1  2  1  0  0  0  0
  1  3  2  0  0  0  0
  2  4  2  0  0  0  0
  3  7  1  0  0  0  0
  4  9  1  0  0  0  0
  5  7  1  0  0  0  0
  5  8  2  0  0  0  0
  6  8  1  0  0  0  0
  6 11  2  0  0  0  0
  7  9  2  0  0  0  0
  8 10  1  0  0  0  0
  9 11  1  0  0  0  0
 10 15  1  0  0  0  0
 12 15  1  0  0  0  0
 13 15  2  0  0  0  0
 14 15  2  0  0  0  0
  1 16  1  0  0  0  0
  2 17  1  0  0  0  0
  3 18  1  0  0  0  0
  4 19  1  0  0  0  0
  5 20  1  0  0  0  0
  6 21  1  0  0  0  0
 10 22  1  0  0  0  0
 10 23  1  0  0  0  0
 12 24  1  0  0  0  0
 12 25  1  0  0  0  0
M  END
> <Mol Weight>
222,26

> <Formula>
C10H10N2O2S

> <ID>
EN300-293980

> <name>
Sulfonamides

> <LogP>
0,50

> <ROCS_ShapeQuery>
x0310_0A_x0719_0A_x1080_0A_x0739_0A_x0929_0A_x0526_0A_x0911_0A

> <ROCS_TanimotoCombo>
0.294 

> <ROCS_ShapeTanimoto>
0.165 

> <ROCS_ColorTanimoto>
0.129 

> <ROCS_RefTversky>
0.160 

> <ROCS_RefColorTversky>
0.143 

> <ROCS_RefTverskyCombo>
0.303 

> <ROCS_FitTversky>
1.229 

> <ROCS_FitColorTversky>
0.574 

> <ROCS_FitTverskyCombo>
1.803 

> <ROCS_ColorScore>
-4.148

> <ROCS_Overlap>
1283.957

> <ROCS_Rank>
484                 

$$$$
untitled-dbase-1126_6
  -OEChem-02092407103D

 17 17  0     0  0  0  0  0  0999 V2000
    7.9519   11.2786   24.5443 C   0  0  0  0  0  0  0  0  0  0  0  0
    9.1512    9.9057   23.1460 C   0  0  0  0  0  0  0  0  0  0  0  0
    9.5503   12.2492   23.0746 C   0  0  0  0  0  0  0  0  0  0  0  0
    8.5879   12.4124   24.0648 C   0  0  0  0  0  0  0  0  0  0  0  0
    9.8432   10.9752   22.6008 C   0  0  0  0  0  0  0  0  0  0  0  0
    8.2097   10.0250   24.1088 N   0  0  0  0  0  0  0  0  0  0  0  0
    9.2168   14.9885   23.7946 N   0  0  0  0  0  0  0  0  0  0  0  0
    6.7966   14.2815   24.3315 O   0  0  0  0  0  0  0  0  0  0  0  0
    8.5737   14.0370   26.1007 O   0  0  0  0  0  0  0  0  0  0  0  0
   10.2006   13.3380   22.5734 O   0  0  0  0  0  0  0  0  0  0  0  0
    8.1739   13.9825   24.7007 S   0  0  0  0  0  0  0  0  0  0  0  0
   11.0219   10.7045   21.3792 Cl  0  0  0  0  0  0  0  0  0  0  0  0
    7.1919   11.3419   25.3169 H   0  0  0  0  0  0  0  0  0  0  0  0
    9.3333    8.8861   22.8194 H   0  0  0  0  0  0  0  0  0  0  0  0
   10.2214   14.9581   24.0075 H   0  0  0  0  0  0  0  0  0  0  0  0
    9.0076   15.1277   22.7985 H   0  0  0  0  0  0  0  0  0  0  0  0
   10.8370   13.0637   21.8953 H   0  0  0  0  0  0  0  0  0  0  0  0
  1  4  1  0  0  0  0
  1  6  2  0  0  0  0
  2  5  2  0  0  0  0
  2  6  1  0  0  0  0
  3  4  2  0  0  0  0
  3  5  1  0  0  0  0
  3 10  1  0  0  0  0
  4 11  1  0  0  0  0
  5 12  1  0  0  0  0
  7 11  1  0  0  0  0
  8 11  2  0  0  0  0
  9 11  2  0  0  0  0
  1 13  1  0  0  0  0
  2 14  1  0  0  0  0
  7 15  1  0  0  0  0
  7 16  1  0  0  0  0
 10 17  1  0  0  0  0
M  END
> <Mol Weight>
208,62

> <Formula>
C5H5ClN2O3S

> <ID>
EN300-7884019

> <name>
Sulfonamides

> <LogP>
-0,34

> <ROCS_ShapeQuery>
x0310_0A_x0719_0A_x1080_0A_x0739_0A_x0929_0A_x0526_0A_x0911_0A

> <ROCS_TanimotoCombo>
0.294 

> <ROCS_ShapeTanimoto>
0.165 

> <ROCS_ColorTanimoto>
0.129 

> <ROCS_RefTversky>
0.157 

> <ROCS_RefColorTversky>
0.147 

> <ROCS_RefTverskyCombo>
0.304 

> <ROCS_FitTversky>
1.406 

> <ROCS_FitColorTversky>
0.523 

> <ROCS_FitTverskyCombo>
1.929 

> <ROCS_ColorScore>
-4.272

> <ROCS_Overlap>
1259.234

> <ROCS_Rank>
485                 

$$$$
untitled-dbase-1273_3120
  -OEChem-02092407103D

 28 28  0     0  0  0  0  0  0999 V2000
    8.6140   10.9248   25.0730 C   0  0  0  0  0  0  0  0  0  0  0  0
    8.2320    9.9977   24.1033 C   0  0  0  0  0  0  0  0  0  0  0  0
    9.2282   12.1182   24.6933 C   0  0  0  0  0  0  0  0  0  0  0  0
    9.0786   11.4574   22.3742 C   0  0  0  0  0  0  0  0  0  0  0  0
    8.4643   10.2640   22.7540 C   0  0  0  0  0  0  0  0  0  0  0  0
    9.4606   12.3845   23.3439 C   0  0  0  0  0  0  0  0  0  0  0  0
    7.0013   16.1776   22.3231 C   0  0  0  0  0  0  0  0  0  0  0  0
    8.0543    9.2729   21.7177 C   0  0  0  0  0  0  0  0  0  0  0  0
   10.1223   13.6688   22.9354 C   0  0  0  0  0  0  0  0  0  0  0  0
    9.1691    8.8102   20.9307 N   0  0  0  0  0  0  0  0  0  0  0  0
    9.2020   14.8166   23.0259 N   0  0  0  0  0  0  0  0  0  0  0  0
    6.9210   14.2780   24.1219 O   0  0  0  0  0  0  0  0  0  0  0  0
    7.3241   13.6624   21.7105 O   0  0  0  0  0  0  0  0  0  0  0  0
    7.5256   14.5571   22.8341 S   0  0  0  0  0  0  0  0  0  0  0  0
    8.4330   10.7173   26.1237 H   0  0  0  0  0  0  0  0  0  0  0  0
    7.7536    9.0707   24.4086 H   0  0  0  0  0  0  0  0  0  0  0  0
    9.5232   12.8344   25.4556 H   0  0  0  0  0  0  0  0  0  0  0  0
    9.2591   11.6660   21.3223 H   0  0  0  0  0  0  0  0  0  0  0  0
    5.9224   16.1553   22.1613 H   0  0  0  0  0  0  0  0  0  0  0  0
    7.2550   16.8865   23.1127 H   0  0  0  0  0  0  0  0  0  0  0  0
    7.5215   16.4321   21.3985 H   0  0  0  0  0  0  0  0  0  0  0  0
    7.5858    8.3910   22.1765 H   0  0  0  0  0  0  0  0  0  0  0  0
    7.3170    9.6981   21.0228 H   0  0  0  0  0  0  0  0  0  0  0  0
   10.9866   13.8782   23.5750 H   0  0  0  0  0  0  0  0  0  0  0  0
   10.4868   13.6124   21.9043 H   0  0  0  0  0  0  0  0  0  0  0  0
    9.0308    9.0716   19.9767 H   0  0  0  0  0  0  0  0  0  0  0  0
   10.0100    9.2254   21.2744 H   0  0  0  0  0  0  0  0  0  0  0  0
    9.4869   15.5266   23.7130 H   0  0  0  0  0  0  0  0  0  0  0  0
  1  2  1  0  0  0  0
  1  3  2  0  0  0  0
  2  5  2  0  0  0  0
  3  6  1  0  0  0  0
  4  5  1  0  0  0  0
  4  6  2  0  0  0  0
  5  8  1  0  0  0  0
  6  9  1  0  0  0  0
  7 14  1  0  0  0  0
  8 10  1  0  0  0  0
  9 11  1  0  0  0  0
 11 14  1  0  0  0  0
 12 14  2  0  0  0  0
 13 14  2  0  0  0  0
  1 15  1  0  0  0  0
  2 16  1  0  0  0  0
  3 17  1  0  0  0  0
  4 18  1  0  0  0  0
  7 19  1  0  0  0  0
  7 20  1  0  0  0  0
  7 21  1  0  0  0  0
  8 22  1  0  0  0  0
  8 23  1  0  0  0  0
  9 24  1  0  0  0  0
  9 25  1  0  0  0  0
 10 26  1  0  0  0  0
 10 27  1  0  0  0  0
 11 28  1  0  0  0  0
M  END
> <Mol Weight>
214,28

> <Formula>
C9H14N2O2S

> <ID>
EN300-91765

> <name>
Sulfonamides

> <LogP>
-0,46

> <ROCS_ShapeQuery>
x0310_0A_x0719_0A_x1080_0A_x0739_0A_x0929_0A_x0526_0A_x0911_0A

> <ROCS_TanimotoCombo>
0.294 

> <ROCS_ShapeTanimoto>
0.162 

> <ROCS_ColorTanimoto>
0.133 

> <ROCS_RefTversky>
0.156 

> <ROCS_RefColorTversky>
0.146 

> <ROCS_RefTverskyCombo>
0.302 

> <ROCS_FitTversky>
1.296 

> <ROCS_FitColorTversky>
0.589 

> <ROCS_FitTverskyCombo>
1.884 

> <ROCS_ColorScore>
-4.247

> <ROCS_Overlap>
1247.262

> <ROCS_Rank>
486                 

$$$$
untitled-dbase-2219_3120
  -OEChem-02092407103D

 28 28  0     0  0  0  0  0  0999 V2000
    8.6140   10.9248   25.0730 C   0  0  0  0  0  0  0  0  0  0  0  0
    8.2320    9.9977   24.1033 C   0  0  0  0  0  0  0  0  0  0  0  0
    9.2282   12.1182   24.6933 C   0  0  0  0  0  0  0  0  0  0  0  0
    9.0786   11.4574   22.3742 C   0  0  0  0  0  0  0  0  0  0  0  0
    8.4643   10.2640   22.7540 C   0  0  0  0  0  0  0  0  0  0  0  0
    9.4606   12.3845   23.3439 C   0  0  0  0  0  0  0  0  0  0  0  0
    7.0013   16.1776   22.3231 C   0  0  0  0  0  0  0  0  0  0  0  0
    8.0543    9.2729   21.7177 C   0  0  0  0  0  0  0  0  0  0  0  0
   10.1223   13.6688   22.9354 C   0  0  0  0  0  0  0  0  0  0  0  0
    9.1691    8.8102   20.9307 N   0  0  0  0  0  0  0  0  0  0  0  0
    9.2020   14.8166   23.0259 N   0  0  0  0  0  0  0  0  0  0  0  0
    6.9210   14.2780   24.1219 O   0  0  0  0  0  0  0  0  0  0  0  0
    7.3241   13.6624   21.7105 O   0  0  0  0  0  0  0  0  0  0  0  0
    7.5256   14.5571   22.8341 S   0  0  0  0  0  0  0  0  0  0  0  0
    8.4330   10.7173   26.1237 H   0  0  0  0  0  0  0  0  0  0  0  0
    7.7536    9.0707   24.4086 H   0  0  0  0  0  0  0  0  0  0  0  0
    9.5232   12.8344   25.4556 H   0  0  0  0  0  0  0  0  0  0  0  0
    9.2591   11.6660   21.3223 H   0  0  0  0  0  0  0  0  0  0  0  0
    5.9224   16.1553   22.1613 H   0  0  0  0  0  0  0  0  0  0  0  0
    7.2550   16.8865   23.1127 H   0  0  0  0  0  0  0  0  0  0  0  0
    7.5215   16.4321   21.3985 H   0  0  0  0  0  0  0  0  0  0  0  0
    7.5858    8.3910   22.1765 H   0  0  0  0  0  0  0  0  0  0  0  0
    7.3170    9.6981   21.0228 H   0  0  0  0  0  0  0  0  0  0  0  0
   10.9866   13.8782   23.5750 H   0  0  0  0  0  0  0  0  0  0  0  0
   10.4868   13.6124   21.9043 H   0  0  0  0  0  0  0  0  0  0  0  0
    9.0308    9.0716   19.9767 H   0  0  0  0  0  0  0  0  0  0  0  0
   10.0100    9.2254   21.2744 H   0  0  0  0  0  0  0  0  0  0  0  0
    9.4869   15.5266   23.7130 H   0  0  0  0  0  0  0  0  0  0  0  0
  1  2  1  0  0  0  0
  1  3  2  0  0  0  0
  2  5  2  0  0  0  0
  3  6  1  0  0  0  0
  4  5  1  0  0  0  0
  4  6  2  0  0  0  0
  5  8  1  0  0  0  0
  6  9  1  0  0  0  0
  7 14  1  0  0  0  0
  8 10  1  0  0  0  0
  9 11  1  0  0  0  0
 11 14  1  0  0  0  0
 12 14  2  0  0  0  0
 13 14  2  0  0  0  0
  1 15  1  0  0  0  0
  2 16  1  0  0  0  0
  3 17  1  0  0  0  0
  4 18  1  0  0  0  0
  7 19  1  0  0  0  0
  7 20  1  0  0  0  0
  7 21  1  0  0  0  0
  8 22  1  0  0  0  0
  8 23  1  0  0  0  0
  9 24  1  0  0  0  0
  9 25  1  0  0  0  0
 10 26  1  0  0  0  0
 10 27  1  0  0  0  0
 11 28  1  0  0  0  0
M  END
> <Mol Weight>
250,74

> <Formula>
C9H15ClN2O2S

> <ID>
EN300-6486753

> <name>
Sulfonamides

> <LogP>
-0,46

> <ROCS_ShapeQuery>
x0310_0A_x0719_0A_x1080_0A_x0739_0A_x0929_0A_x0526_0A_x0911_0A

> <ROCS_TanimotoCombo>
0.294 

> <ROCS_ShapeTanimoto>
0.162 

> <ROCS_ColorTanimoto>
0.133 

> <ROCS_RefTversky>
0.156 

> <ROCS_RefColorTversky>
0.146 

> <ROCS_RefTverskyCombo>
0.302 

> <ROCS_FitTversky>
1.296 

> <ROCS_FitColorTversky>
0.589 

> <ROCS_FitTverskyCombo>
1.884 

> <ROCS_ColorScore>
-4.247

> <ROCS_Overlap>
1247.262

> <ROCS_Rank>
487                 

$$$$
untitled-dbase-1349_16
  -OEChem-02092407103D

 27 28  0     0  0  0  0  0  0999 V2000
    9.9169   15.0522   21.6287 C   0  0  0  0  0  0  0  0  0  0  0  0
    8.8997   14.5063   22.3728 C   0  0  0  0  0  0  0  0  0  0  0  0
    9.1970   13.1311   22.4200 C   0  0  0  0  0  0  0  0  0  0  0  0
    9.4326   10.3639   23.9262 C   0  0  0  0  0  0  0  0  0  0  0  0
    8.4446   10.5385   22.7599 C   0  0  0  0  0  0  0  0  0  0  0  0
    8.7444   11.5650   24.5975 C   0  0  0  0  0  0  0  0  0  0  0  0
    8.3090   12.0374   23.1746 C   0  0  0  0  0  0  0  0  0  0  0  0
   11.9380   14.0897   20.5027 C   0  0  0  0  0  0  0  0  0  0  0  0
   10.3154   12.8224   21.7583 N   0  0  0  0  0  0  0  0  0  0  0  0
   10.7298   14.0113   21.2883 N   0  0  0  0  0  0  0  0  0  0  0  0
    6.4035   15.2640   21.8251 N   0  0  0  0  0  0  0  0  0  0  0  0
    7.0637   14.5638   24.2166 O   0  0  0  0  0  0  0  0  0  0  0  0
    7.9247   16.7417   23.2876 O   0  0  0  0  0  0  0  0  0  0  0  0
    7.5851   15.3262   23.0709 S   0  0  0  0  0  0  0  0  0  0  0  0
   10.1261   16.0673   21.3200 H   0  0  0  0  0  0  0  0  0  0  0  0
    9.3089    9.4205   24.4734 H   0  0  0  0  0  0  0  0  0  0  0  0
   10.4911   10.4943   23.6803 H   0  0  0  0  0  0  0  0  0  0  0  0
    8.8966   10.3714   21.7728 H   0  0  0  0  0  0  0  0  0  0  0  0
    7.5272    9.9444   22.8292 H   0  0  0  0  0  0  0  0  0  0  0  0
    7.9277   11.3154   25.2829 H   0  0  0  0  0  0  0  0  0  0  0  0
    9.4423   12.2376   25.1143 H   0  0  0  0  0  0  0  0  0  0  0  0
    7.2191   12.3722   23.1663 H   0  0  0  0  0  0  0  0  0  0  0  0
   12.7745   14.2572   21.1863 H   0  0  0  0  0  0  0  0  0  0  0  0
   12.0756   13.1550   19.9520 H   0  0  0  0  0  0  0  0  0  0  0  0
   11.8534   14.9155   19.7908 H   0  0  0  0  0  0  0  0  0  0  0  0
    5.5965   14.6400   21.9466 H   0  0  0  0  0  0  0  0  0  0  0  0
    6.1872   16.1273   21.3121 H   0  0  0  0  0  0  0  0  0  0  0  0
  1  2  2  0  0  0  0
  1 10  1  0  0  0  0
  2  3  1  0  0  0  0
  2 14  1  0  0  0  0
  3  7  1  0  0  0  0
  3  9  2  0  0  0  0
  4  5  1  0  0  0  0
  4  6  1  0  0  0  0
  5  7  1  0  0  0  0
  6  7  1  0  0  0  0
  8 10  1  0  0  0  0
  9 10  1  0  0  0  0
 11 14  1  0  0  0  0
 12 14  2  0  0  0  0
 13 14  2  0  0  0  0
  1 15  1  0  0  0  0
  4 16  1  0  0  0  0
  4 17  1  0  0  0  0
  5 18  1  0  0  0  0
  5 19  1  0  0  0  0
  6 20  1  0  0  0  0
  6 21  1  0  0  0  0
  7 22  1  0  0  0  0
  8 23  1  0  0  0  0
  8 24  1  0  0  0  0
  8 25  1  0  0  0  0
 11 26  1  0  0  0  0
 11 27  1  0  0  0  0
M  END
> <Mol Weight>
215,27

> <Formula>
C8H13N3O2S

> <ID>
EN300-1657684

> <name>
Sulfonamides

> <LogP>
0,36

> <ROCS_ShapeQuery>
x0310_0A_x0719_0A_x1080_0A_x0739_0A_x0929_0A_x0526_0A_x0911_0A

> <ROCS_TanimotoCombo>
0.294 

> <ROCS_ShapeTanimoto>
0.142 

> <ROCS_ColorTanimoto>
0.152 

> <ROCS_RefTversky>
0.139 

> <ROCS_RefColorTversky>
0.165 

> <ROCS_RefTverskyCombo>
0.304 

> <ROCS_FitTversky>
1.133 

> <ROCS_FitColorTversky>
0.664 

> <ROCS_FitTverskyCombo>
1.797 

> <ROCS_ColorScore>
-4.795

> <ROCS_Overlap>
1116.555

> <ROCS_Rank>
488                 

$$$$
untitled-dbase-2208_15
  -OEChem-02092407103D

 22 22  0     0  0  0  0  0  0999 V2000
    9.1742   12.4892   23.3678 C   0  0  0  0  0  0  0  0  0  0  0  0
    9.3616   10.1325   23.1085 C   0  0  0  0  0  0  0  0  0  0  0  0
    8.1696   12.2756   24.3051 C   0  0  0  0  0  0  0  0  0  0  0  0
    9.7867   11.4026   22.7535 C   0  0  0  0  0  0  0  0  0  0  0  0
    7.8168   10.9665   24.5905 C   0  0  0  0  0  0  0  0  0  0  0  0
    7.5349   13.4201   24.9425 C   0  0  0  0  0  0  0  0  0  0  0  0
    7.1150   14.4691   27.0425 C   0  0  0  0  0  0  0  0  0  0  0  0
    8.3890    9.8855   24.0144 N   0  0  0  0  0  0  0  0  0  0  0  0
   11.4182   10.0114   21.1700 N   0  0  0  0  0  0  0  0  0  0  0  0
    6.9226   14.3076   24.3353 O   0  0  0  0  0  0  0  0  0  0  0  0
   10.4774   12.2864   20.4051 O   0  0  0  0  0  0  0  0  0  0  0  0
   12.2053   12.2200   22.2375 O   0  0  0  0  0  0  0  0  0  0  0  0
    7.6981   13.3928   26.3001 O   0  0  0  0  0  0  0  0  0  0  0  0
   11.0478   11.6304   21.5755 S   0  0  0  0  0  0  0  0  0  0  0  0
    6.5900   10.5695   25.7301 Cl  0  0  0  0  0  0  0  0  0  0  0  0
    9.4811   13.5013   23.1149 H   0  0  0  0  0  0  0  0  0  0  0  0
    9.8018    9.2456   22.6633 H   0  0  0  0  0  0  0  0  0  0  0  0
    7.3160   14.3291   28.1074 H   0  0  0  0  0  0  0  0  0  0  0  0
    6.0369   14.4937   26.8645 H   0  0  0  0  0  0  0  0  0  0  0  0
    7.5586   15.4109   26.7110 H   0  0  0  0  0  0  0  0  0  0  0  0
   11.1316    9.6676   20.2453 H   0  0  0  0  0  0  0  0  0  0  0  0
   12.3107    9.6233   21.4989 H   0  0  0  0  0  0  0  0  0  0  0  0
  1  3  1  0  0  0  0
  1  4  2  0  0  0  0
  2  4  1  0  0  0  0
  2  8  2  0  0  0  0
  3  5  2  0  0  0  0
  3  6  1  0  0  0  0
  4 14  1  0  0  0  0
  5  8  1  0  0  0  0
  5 15  1  0  0  0  0
  6 10  2  0  0  0  0
  6 13  1  0  0  0  0
  7 13  1  0  0  0  0
  9 14  1  0  0  0  0
 11 14  2  0  0  0  0
 12 14  2  0  0  0  0
  1 16  1  0  0  0  0
  2 17  1  0  0  0  0
  7 18  1  0  0  0  0
  7 19  1  0  0  0  0
  7 20  1  0  0  0  0
  9 21  1  0  0  0  0
  9 22  1  0  0  0  0
M  END
> <Mol Weight>
250,65

> <Formula>
C7H7ClN2O4S

> <ID>
EN300-42619

> <name>
Sulfonamides

> <LogP>
0,19

> <ROCS_ShapeQuery>
x0310_0A_x0719_0A_x1080_0A_x0739_0A_x0929_0A_x0526_0A_x0911_0A

> <ROCS_TanimotoCombo>
0.294 

> <ROCS_ShapeTanimoto>
0.158 

> <ROCS_ColorTanimoto>
0.136 

> <ROCS_RefTversky>
0.153 

> <ROCS_RefColorTversky>
0.150 

> <ROCS_RefTverskyCombo>
0.303 

> <ROCS_FitTversky>
1.205 

> <ROCS_FitColorTversky>
0.603 

> <ROCS_FitTverskyCombo>
1.808 

> <ROCS_ColorScore>
-4.354

> <ROCS_Overlap>
1229.339

> <ROCS_Rank>
489                 

$$$$
untitled-dbase-2460_442
  -OEChem-02092407103D

 37 37  0     1  0  0  0  0  0999 V2000
    5.4235   13.1874   20.8025 C   0  0  0  0  0  0  0  0  0  0  0  0
    3.9790   11.0659   18.2214 C   0  0  0  0  0  0  0  0  0  0  0  0
    2.5131   11.5082   18.2602 C   0  0  0  0  0  0  0  0  0  0  0  0
    4.6849   11.1623   19.5703 C   0  0  0  0  0  0  0  0  0  0  0  0
    2.9870   12.8236   20.3511 C   0  0  0  0  0  0  0  0  0  0  0  0
    2.0336   11.8456   19.6696 C   0  0  1  0  0  0  0  0  0  0  0  0
    7.0663   13.8743   23.0420 C   0  0  0  0  0  0  0  0  0  0  0  0
    8.6100   12.0669   22.2300 C   0  0  0  0  0  0  0  0  0  0  0  0
    8.1528   14.0659   20.7798 C   0  0  0  0  0  0  0  0  0  0  0  0
    7.5718   13.1090   21.8199 C   0  0  0  0  0  0  0  0  0  0  0  0
    4.3932   12.4250   20.2435 N   0  0  0  0  0  0  0  0  0  0  0  0
   -0.2933   11.4881   18.4480 N   0  0  0  0  0  0  0  0  0  0  0  0
    5.4073   14.4123   20.9049 O   0  0  0  0  0  0  0  0  0  0  0  0
   -0.2296   12.2221   20.9126 O   0  0  0  0  0  0  0  0  0  0  0  0
    0.4643   13.8547   19.1130 O   0  0  0  0  0  0  0  0  0  0  0  0
    6.4687   12.4107   21.2311 O   0  0  0  0  0  0  0  0  0  0  0  0
    0.3892   12.5038   19.6326 S   0  0  0  0  0  0  0  0  0  0  0  0
    4.0341   10.0260   17.8526 H   0  0  0  0  0  0  0  0  0  0  0  0
    4.5289   11.6708   17.4777 H   0  0  0  0  0  0  0  0  0  0  0  0
    2.3728   12.3616   17.5850 H   0  0  0  0  0  0  0  0  0  0  0  0
    1.8960   10.6902   17.8645 H   0  0  0  0  0  0  0  0  0  0  0  0
    4.3485   10.3539   20.2351 H   0  0  0  0  0  0  0  0  0  0  0  0
    5.7666   11.0348   19.4329 H   0  0  0  0  0  0  0  0  0  0  0  0
    2.8323   13.8427   19.9602 H   0  0  0  0  0  0  0  0  0  0  0  0
    2.7595   12.8751   21.4306 H   0  0  0  0  0  0  0  0  0  0  0  0
    1.9613   10.9353   20.2557 H   0  0  0  0  0  0  0  0  0  0  0  0
    6.3209   14.6233   22.7518 H   0  0  0  0  0  0  0  0  0  0  0  0
    6.6156   13.2030   23.7802 H   0  0  0  0  0  0  0  0  0  0  0  0
    7.8831   14.4222   23.5256 H   0  0  0  0  0  0  0  0  0  0  0  0
    8.9755   11.5154   21.3562 H   0  0  0  0  0  0  0  0  0  0  0  0
    8.1706   11.3221   22.9034 H   0  0  0  0  0  0  0  0  0  0  0  0
    9.4669   12.5264   22.7332 H   0  0  0  0  0  0  0  0  0  0  0  0
    8.5154   13.5172   19.9031 H   0  0  0  0  0  0  0  0  0  0  0  0
    7.4104   14.7982   20.4464 H   0  0  0  0  0  0  0  0  0  0  0  0
    9.0161   14.6053   21.1859 H   0  0  0  0  0  0  0  0  0  0  0  0
   -0.9763   10.7845   18.7547 H   0  0  0  0  0  0  0  0  0  0  0  0
   -0.5036   11.8964   17.5290 H   0  0  0  0  0  0  0  0  0  0  0  0
  1 11  1  0  0  0  0
  1 13  2  0  0  0  0
  1 16  1  0  0  0  0
  2  3  1  0  0  0  0
  2  4  1  0  0  0  0
  3  6  1  0  0  0  0
  4 11  1  0  0  0  0
  5  6  1  0  0  0  0
  5 11  1  0  0  0  0
  6 17  1  6  0  0  0
  7 10  1  0  0  0  0
  8 10  1  0  0  0  0
  9 10  1  0  0  0  0
 10 16  1  0  0  0  0
 12 17  1  0  0  0  0
 14 17  2  0  0  0  0
 15 17  2  0  0  0  0
  2 18  1  0  0  0  0
  2 19  1  0  0  0  0
  3 20  1  0  0  0  0
  3 21  1  0  0  0  0
  4 22  1  0  0  0  0
  4 23  1  0  0  0  0
  5 24  1  0  0  0  0
  5 25  1  0  0  0  0
  6 26  1  0  0  0  0
  7 27  1  0  0  0  0
  7 28  1  0  0  0  0
  7 29  1  0  0  0  0
  8 30  1  0  0  0  0
  8 31  1  0  0  0  0
  8 32  1  0  0  0  0
  9 33  1  0  0  0  0
  9 34  1  0  0  0  0
  9 35  1  0  0  0  0
 12 36  1  0  0  0  0
 12 37  1  0  0  0  0
M  END
> <Mol Weight>
264,34

> <Formula>
C10H20N2O4S

> <ID>
EN300-6739995

> <name>
Sulfonamides

> <LogP>
0,15

> <ROCS_ShapeQuery>
x0310_0A_x0719_0A_x1080_0A_x0739_0A_x0929_0A_x0526_0A_x0911_0A

> <ROCS_TanimotoCombo>
0.294 

> <ROCS_ShapeTanimoto>
0.182 

> <ROCS_ColorTanimoto>
0.112 

> <ROCS_RefTversky>
0.175 

> <ROCS_RefColorTversky>
0.125 

> <ROCS_RefTverskyCombo>
0.301 

> <ROCS_FitTversky>
1.286 

> <ROCS_FitColorTversky>
0.504 

> <ROCS_FitTverskyCombo>
1.790 

> <ROCS_ColorScore>
-3.641

> <ROCS_Overlap>
1404.478

> <ROCS_Rank>
490                 

$$$$
untitled-dbase-2355_24
  -OEChem-02092407103D

 32 32  0     0  0  0  0  0  0999 V2000
    3.8201   10.7843   18.4817 C   0  0  0  0  0  0  0  0  0  0  0  0
    4.7837   11.4826   19.2094 C   0  0  0  0  0  0  0  0  0  0  0  0
    2.4723   11.1217   18.6058 C   0  0  0  0  0  0  0  0  0  0  0  0
    3.0517   12.8557   20.1852 C   0  0  0  0  0  0  0  0  0  0  0  0
    4.3995   12.5183   20.0612 C   0  0  0  0  0  0  0  0  0  0  0  0
    2.0881   12.1574   19.4575 C   0  0  0  0  0  0  0  0  0  0  0  0
    5.4254   13.2629   20.8342 C   0  0  0  0  0  0  0  0  0  0  0  0
    6.9829   13.5419   23.2003 C   0  0  0  0  0  0  0  0  0  0  0  0
    8.6197   12.0042   22.0754 C   0  0  0  0  0  0  0  0  0  0  0  0
    8.0971   14.2383   21.0537 C   0  0  0  0  0  0  0  0  0  0  0  0
    7.5426   13.0653   21.8608 C   0  0  0  0  0  0  0  0  0  0  0  0
   -0.3152   11.4534   18.5446 N   0  0  0  0  0  0  0  0  0  0  0  0
    5.3015   14.4342   21.1568 O   0  0  0  0  0  0  0  0  0  0  0  0
   -0.0258   12.2747   20.9710 O   0  0  0  0  0  0  0  0  0  0  0  0
    0.2079   13.9192   19.0766 O   0  0  0  0  0  0  0  0  0  0  0  0
    6.4851   12.4603   21.1158 O   0  0  0  0  0  0  0  0  0  0  0  0
    0.4009   12.5789   19.6124 S   0  0  0  0  0  0  0  0  0  0  0  0
    4.1192    9.9774   17.8188 H   0  0  0  0  0  0  0  0  0  0  0  0
    5.8307   11.2109   19.1046 H   0  0  0  0  0  0  0  0  0  0  0  0
    1.7295   10.5711   18.0349 H   0  0  0  0  0  0  0  0  0  0  0  0
    2.7516   13.6631   20.8495 H   0  0  0  0  0  0  0  0  0  0  0  0
    6.2094   14.3036   23.0506 H   0  0  0  0  0  0  0  0  0  0  0  0
    6.5507   12.7155   23.7739 H   0  0  0  0  0  0  0  0  0  0  0  0
    7.7660   14.0115   23.8065 H   0  0  0  0  0  0  0  0  0  0  0  0
    9.0242   11.6594   21.1169 H   0  0  0  0  0  0  0  0  0  0  0  0
    8.2031   11.1197   22.5708 H   0  0  0  0  0  0  0  0  0  0  0  0
    9.4465   12.3850   22.6836 H   0  0  0  0  0  0  0  0  0  0  0  0
    8.4986   13.8967   20.0928 H   0  0  0  0  0  0  0  0  0  0  0  0
    7.3281   14.9927   20.8583 H   0  0  0  0  0  0  0  0  0  0  0  0
    8.9284   14.7174   21.5834 H   0  0  0  0  0  0  0  0  0  0  0  0
   -0.8570   10.6810   18.9510 H   0  0  0  0  0  0  0  0  0  0  0  0
   -0.6950   11.8051   17.6573 H   0  0  0  0  0  0  0  0  0  0  0  0
  1  2  2  0  0  0  0
  1  3  1  0  0  0  0
  2  5  1  0  0  0  0
  3  6  2  0  0  0  0
  4  5  2  0  0  0  0
  4  6  1  0  0  0  0
  5  7  1  0  0  0  0
  6 17  1  0  0  0  0
  7 13  2  0  0  0  0
  7 16  1  0  0  0  0
  8 11  1  0  0  0  0
  9 11  1  0  0  0  0
 10 11  1  0  0  0  0
 11 16  1  0  0  0  0
 12 17  1  0  0  0  0
 14 17  2  0  0  0  0
 15 17  2  0  0  0  0
  1 18  1  0  0  0  0
  2 19  1  0  0  0  0
  3 20  1  0  0  0  0
  4 21  1  0  0  0  0
  8 22  1  0  0  0  0
  8 23  1  0  0  0  0
  8 24  1  0  0  0  0
  9 25  1  0  0  0  0
  9 26  1  0  0  0  0
  9 27  1  0  0  0  0
 10 28  1  0  0  0  0
 10 29  1  0  0  0  0
 10 30  1  0  0  0  0
 12 31  1  0  0  0  0
 12 32  1  0  0  0  0
M  END
> <Mol Weight>
257,30

> <Formula>
C11H15NO4S

> <ID>
EN300-277879

> <name>
Sulfonamides

> <LogP>
1,64

> <ROCS_ShapeQuery>
x0310_0A_x0719_0A_x1080_0A_x0739_0A_x0929_0A_x0526_0A_x0911_0A

> <ROCS_TanimotoCombo>
0.294 

> <ROCS_ShapeTanimoto>
0.183 

> <ROCS_ColorTanimoto>
0.111 

> <ROCS_RefTversky>
0.176 

> <ROCS_RefColorTversky>
0.124 

> <ROCS_RefTverskyCombo>
0.301 

> <ROCS_FitTversky>
1.275 

> <ROCS_FitColorTversky>
0.501 

> <ROCS_FitTverskyCombo>
1.776 

> <ROCS_ColorScore>
-3.616

> <ROCS_Overlap>
1412.008

> <ROCS_Rank>
491                 

$$$$
untitled-dbase-1335_20
  -OEChem-02092407103D

 27 27  0     1  0  0  0  0  0999 V2000
   10.0365   11.9402   24.2090 C   0  0  0  0  0  0  0  0  0  0  0  0
    9.1858   12.7972   23.5109 C   0  0  0  0  0  0  0  0  0  0  0  0
    9.6962   10.5968   24.3681 C   0  0  0  0  0  0  0  0  0  0  0  0
    7.6544   10.9675   23.1310 C   0  0  0  0  0  0  0  0  0  0  0  0
    7.9947   12.3109   22.9719 C   0  0  0  0  0  0  0  0  0  0  0  0
    8.5052   10.1105   23.8291 C   0  0  0  0  0  0  0  0  0  0  0  0
    6.2143   12.5629   21.1564 C   0  0  0  0  0  0  0  0  0  0  0  0
    9.0892    7.9792   24.7078 C   0  0  0  0  0  0  0  0  0  0  0  0
    7.0849   13.2275   22.2260 C   0  0  1  0  0  0  0  0  0  0  0  0
    5.5731   15.3941   22.4930 N   0  0  0  0  0  0  0  0  0  0  0  0
    4.9227   13.2137   23.6929 O   0  0  0  0  0  0  0  0  0  0  0  0
    6.9336   14.5184   24.4928 O   0  0  0  0  0  0  0  0  0  0  0  0
    8.1735    8.7994   23.9838 O   0  0  0  0  0  0  0  0  0  0  0  0
    6.0700   14.0575   23.4241 S   0  0  0  0  0  0  0  0  0  0  0  0
   10.9640   12.3188   24.6282 H   0  0  0  0  0  0  0  0  0  0  0  0
    9.4591   13.8424   23.3925 H   0  0  0  0  0  0  0  0  0  0  0  0
   10.3631    9.9344   24.9128 H   0  0  0  0  0  0  0  0  0  0  0  0
    6.7262   10.5857   22.7121 H   0  0  0  0  0  0  0  0  0  0  0  0
    5.6202   11.7518   21.5908 H   0  0  0  0  0  0  0  0  0  0  0  0
    5.5266   13.2736   20.6862 H   0  0  0  0  0  0  0  0  0  0  0  0
    6.8310   12.1396   20.3557 H   0  0  0  0  0  0  0  0  0  0  0  0
    8.7039    6.9578   24.7575 H   0  0  0  0  0  0  0  0  0  0  0  0
    9.2202    8.3800   25.7161 H   0  0  0  0  0  0  0  0  0  0  0  0
   10.0515    7.9784   24.1903 H   0  0  0  0  0  0  0  0  0  0  0  0
    7.6561   14.0309   21.7313 H   0  0  0  0  0  0  0  0  0  0  0  0
    4.5939   15.4264   22.1837 H   0  0  0  0  0  0  0  0  0  0  0  0
    5.9635   16.3148   22.7284 H   0  0  0  0  0  0  0  0  0  0  0  0
  1  2  1  0  0  0  0
  1  3  2  0  0  0  0
  2  5  2  0  0  0  0
  3  6  1  0  0  0  0
  4  5  1  0  0  0  0
  4  6  2  0  0  0  0
  5  9  1  0  0  0  0
  6 13  1  0  0  0  0
  7  9  1  0  0  0  0
  8 13  1  0  0  0  0
  9 14  1  0  0  0  0
 10 14  1  0  0  0  0
 11 14  2  0  0  0  0
 12 14  2  0  0  0  0
  1 15  1  0  0  0  0
  2 16  1  0  0  0  0
  3 17  1  0  0  0  0
  4 18  1  0  0  0  0
  7 19  1  0  0  0  0
  7 20  1  0  0  0  0
  7 21  1  0  0  0  0
  8 22  1  0  0  0  0
  8 23  1  0  0  0  0
  8 24  1  0  0  0  0
  9 25  1  0  0  0  0
 10 26  1  0  0  0  0
 10 27  1  0  0  0  0
M  END
> <Mol Weight>
215,27

> <Formula>
C9H13NO3S

> <ID>
EN300-199249

> <name>
Sulfonamides

> <LogP>
0,75

> <ROCS_ShapeQuery>
x0310_0A_x0719_0A_x1080_0A_x0739_0A_x0929_0A_x0526_0A_x0911_0A

> <ROCS_TanimotoCombo>
0.294 

> <ROCS_ShapeTanimoto>
0.141 

> <ROCS_ColorTanimoto>
0.153 

> <ROCS_RefTversky>
0.139 

> <ROCS_RefColorTversky>
0.161 

> <ROCS_RefTverskyCombo>
0.300 

> <ROCS_FitTversky>
1.141 

> <ROCS_FitColorTversky>
0.746 

> <ROCS_FitTverskyCombo>
1.886 

> <ROCS_ColorScore>
-4.673

> <ROCS_Overlap>
1110.863

> <ROCS_Rank>
492                 

$$$$
untitled-dbase-2437_22
  -OEChem-02092407103D

 23 23  0     1  0  0  0  0  0999 V2000
    9.4576   10.2610   22.6424 C   0  0  0  0  0  0  0  0  0  0  0  0
    9.5453   11.6528   22.6162 C   0  0  0  0  0  0  0  0  0  0  0  0
    8.8317    9.6216   23.7125 C   0  0  0  0  0  0  0  0  0  0  0  0
    8.3815   11.7659   24.7304 C   0  0  0  0  0  0  0  0  0  0  0  0
    9.0073   12.4053   23.6602 C   0  0  0  0  0  0  0  0  0  0  0  0
    8.2937   10.3741   24.7565 C   0  0  0  0  0  0  0  0  0  0  0  0
   10.2951   14.4620   22.8597 C   0  0  0  0  0  0  0  0  0  0  0  0
    9.1016   13.8934   23.6317 C   0  0  1  0  0  0  0  0  0  0  0  0
    8.0887   16.0603   22.4787 N   0  0  0  0  0  0  0  0  0  0  0  0
    7.2673   13.7254   21.7785 O   0  0  0  0  0  0  0  0  0  0  0  0
    6.6312   14.6359   24.0483 O   0  0  0  0  0  0  0  0  0  0  0  0
    7.5775   14.5082   22.9581 S   0  0  0  0  0  0  0  0  0  0  0  0
    7.4458    9.5071   26.2062 Br  0  0  0  0  0  0  0  0  0  0  0  0
    9.8765    9.6751   21.8294 H   0  0  0  0  0  0  0  0  0  0  0  0
   10.0348   12.1422   21.7783 H   0  0  0  0  0  0  0  0  0  0  0  0
    8.7718    8.5363   23.7174 H   0  0  0  0  0  0  0  0  0  0  0  0
    7.9643   12.3593   25.5409 H   0  0  0  0  0  0  0  0  0  0  0  0
   10.3035   14.0876   21.8305 H   0  0  0  0  0  0  0  0  0  0  0  0
   10.2774   15.5563   22.8230 H   0  0  0  0  0  0  0  0  0  0  0  0
   11.2410   14.1748   23.3322 H   0  0  0  0  0  0  0  0  0  0  0  0
    9.1469   14.3038   24.6544 H   0  0  0  0  0  0  0  0  0  0  0  0
    8.1816   16.2457   21.4724 H   0  0  0  0  0  0  0  0  0  0  0  0
    7.7486   16.8657   23.0183 H   0  0  0  0  0  0  0  0  0  0  0  0
  1  2  2  0  0  0  0
  1  3  1  0  0  0  0
  2  5  1  0  0  0  0
  3  6  2  0  0  0  0
  4  5  2  0  0  0  0
  4  6  1  0  0  0  0
  5  8  1  0  0  0  0
  6 13  1  0  0  0  0
  7  8  1  0  0  0  0
  8 12  1  0  0  0  0
  9 12  1  0  0  0  0
 10 12  2  0  0  0  0
 11 12  2  0  0  0  0
  1 14  1  0  0  0  0
  2 15  1  0  0  0  0
  3 16  1  0  0  0  0
  4 17  1  0  0  0  0
  7 18  1  0  0  0  0
  7 19  1  0  0  0  0
  7 20  1  0  0  0  0
  8 21  1  0  0  0  0
  9 22  1  0  0  0  0
  9 23  1  0  0  0  0
M  END
> <Mol Weight>
264,14

> <Formula>
C8H10BrNO2S

> <ID>
EN300-274087

> <name>
Sulfonamides

> <LogP>
1,68

> <ROCS_ShapeQuery>
x0310_0A_x0719_0A_x1080_0A_x0739_0A_x0929_0A_x0526_0A_x0911_0A

> <ROCS_TanimotoCombo>
0.294 

> <ROCS_ShapeTanimoto>
0.170 

> <ROCS_ColorTanimoto>
0.124 

> <ROCS_RefTversky>
0.162 

> <ROCS_RefColorTversky>
0.134 

> <ROCS_RefTverskyCombo>
0.296 

> <ROCS_FitTversky>
1.408 

> <ROCS_FitColorTversky>
0.622 

> <ROCS_FitTverskyCombo>
2.030 

> <ROCS_ColorScore>
-3.896

> <ROCS_Overlap>
1294.237

> <ROCS_Rank>
493                 

$$$$
untitled-dbase-1002_29
  -OEChem-02092407103D

 22 22  0     0  0  0  0  0  0999 V2000
    9.2834   10.5351   24.2615 C   0  0  0  0  0  0  0  0  0  0  0  0
    8.6912   11.6113   24.9223 C   0  0  0  0  0  0  0  0  0  0  0  0
    9.3804   10.5390   22.8699 C   0  0  0  0  0  0  0  0  0  0  0  0
    8.1958   12.6912   24.1917 C   0  0  0  0  0  0  0  0  0  0  0  0
    8.8849   11.6189   22.1393 C   0  0  0  0  0  0  0  0  0  0  0  0
    8.2926   12.6951   22.8002 C   0  0  0  0  0  0  0  0  0  0  0  0
    6.0517   16.0273   22.8343 C   0  0  0  0  0  0  0  0  0  0  0  0
    7.6012   13.7689   24.8845 N   0  0  0  0  0  0  0  0  0  0  0  0
    6.3837   14.5955   22.8144 N   0  0  0  0  0  0  0  0  0  0  0  0
    8.7003   15.0669   21.7909 O   0  0  0  0  0  0  0  0  0  0  0  0
    7.1379   13.4843   20.6168 O   0  0  0  0  0  0  0  0  0  0  0  0
    8.9848   11.6100   20.8026 F   0  0  0  0  0  0  0  0  0  0  0  0
    7.6775   14.0332   21.8518 S   0  0  0  0  0  0  0  0  0  0  0  0
    9.6686    9.6938   24.8305 H   0  0  0  0  0  0  0  0  0  0  0  0
    8.6218   11.5971   26.0073 H   0  0  0  0  0  0  0  0  0  0  0  0
    9.8419    9.7016   22.3554 H   0  0  0  0  0  0  0  0  0  0  0  0
    6.9478   16.6155   22.5870 H   0  0  0  0  0  0  0  0  0  0  0  0
    5.2637   16.2312   22.0943 H   0  0  0  0  0  0  0  0  0  0  0  0
    5.6947   16.3070   23.8365 H   0  0  0  0  0  0  0  0  0  0  0  0
    7.5053   13.7145   25.8774 H   0  0  0  0  0  0  0  0  0  0  0  0
    7.2033   14.5217   24.3620 H   0  0  0  0  0  0  0  0  0  0  0  0
    5.6138   13.9514   23.0329 H   0  0  0  0  0  0  0  0  0  0  0  0
  1  2  1  0  0  0  0
  1  3  2  0  0  0  0
  2  4  2  0  0  0  0
  3  5  1  0  0  0  0
  4  6  1  0  0  0  0
  4  8  1  0  0  0  0
  5  6  2  0  0  0  0
  5 12  1  0  0  0  0
  6 13  1  0  0  0  0
  7  9  1  0  0  0  0
  9 13  1  0  0  0  0
 10 13  2  0  0  0  0
 11 13  2  0  0  0  0
  1 14  1  0  0  0  0
  2 15  1  0  0  0  0
  3 16  1  0  0  0  0
  7 17  1  0  0  0  0
  7 18  1  0  0  0  0
  7 19  1  0  0  0  0
  8 20  1  0  0  0  0
  8 21  1  0  0  0  0
  9 22  1  0  0  0  0
M  END
> <Mol Weight>
204,22

> <Formula>
C7H9FN2O2S

> <ID>
EN300-215960

> <name>
Sulfonamides

> <LogP>
0,12

> <ROCS_ShapeQuery>
x0310_0A_x0719_0A_x1080_0A_x0739_0A_x0929_0A_x0526_0A_x0911_0A

> <ROCS_TanimotoCombo>
0.294 

> <ROCS_ShapeTanimoto>
0.160 

> <ROCS_ColorTanimoto>
0.134 

> <ROCS_RefTversky>
0.154 

> <ROCS_RefColorTversky>
0.147 

> <ROCS_RefTverskyCombo>
0.301 

> <ROCS_FitTversky>
1.312 

> <ROCS_FitColorTversky>
0.592 

> <ROCS_FitTverskyCombo>
1.904 

> <ROCS_ColorScore>
-4.277

> <ROCS_Overlap>
1234.599

> <ROCS_Rank>
494                 

$$$$
untitled-dbase-1918_24
  -OEChem-02092407103D

 24 24  0     0  0  0  0  0  0999 V2000
    9.5463   12.2615   23.0919 C   0  0  0  0  0  0  0  0  0  0  0  0
    7.9466   11.2683   24.5448 C   0  0  0  0  0  0  0  0  0  0  0  0
    9.8514   10.9933   22.6105 C   0  0  0  0  0  0  0  0  0  0  0  0
    8.5769   12.4103   24.0775 C   0  0  0  0  0  0  0  0  0  0  0  0
    9.1641    9.9147   23.1436 C   0  0  0  0  0  0  0  0  0  0  0  0
    9.4506    8.5292   22.6646 C   0  0  0  0  0  0  0  0  0  0  0  0
   10.8889   10.8272   21.5546 C   0  0  0  0  0  0  0  0  0  0  0  0
    8.2161   10.0199   24.1017 N   0  0  0  0  0  0  0  0  0  0  0  0
   10.9685   11.9688   20.6779 N   0  0  0  0  0  0  0  0  0  0  0  0
    9.2181   14.9825   23.7997 N   0  0  0  0  0  0  0  0  0  0  0  0
    6.7928   14.2881   24.3301 O   0  0  0  0  0  0  0  0  0  0  0  0
    8.5620   14.0429   26.1070 O   0  0  0  0  0  0  0  0  0  0  0  0
    8.1680   13.9818   24.7046 S   0  0  0  0  0  0  0  0  0  0  0  0
   10.0639   13.1330   22.6988 H   0  0  0  0  0  0  0  0  0  0  0  0
    7.1816   11.3210   25.3133 H   0  0  0  0  0  0  0  0  0  0  0  0
   10.2452    8.0756   23.2680 H   0  0  0  0  0  0  0  0  0  0  0  0
    8.5577    7.8954   22.7286 H   0  0  0  0  0  0  0  0  0  0  0  0
    9.7666    8.5307   21.6141 H   0  0  0  0  0  0  0  0  0  0  0  0
   11.8857   10.6815   21.9956 H   0  0  0  0  0  0  0  0  0  0  0  0
   10.6900    9.9470   20.9266 H   0  0  0  0  0  0  0  0  0  0  0  0
   11.2402   12.7715   21.2060 H   0  0  0  0  0  0  0  0  0  0  0  0
   11.6449   11.7898   19.9655 H   0  0  0  0  0  0  0  0  0  0  0  0
    8.8075   15.5796   23.0715 H   0  0  0  0  0  0  0  0  0  0  0  0
   10.0160   15.4096   24.2857 H   0  0  0  0  0  0  0  0  0  0  0  0
  1  3  1  0  0  0  0
  1  4  2  0  0  0  0
  2  4  1  0  0  0  0
  2  8  2  0  0  0  0
  3  5  2  0  0  0  0
  3  7  1  0  0  0  0
  4 13  1  0  0  0  0
  5  6  1  0  0  0  0
  5  8  1  0  0  0  0
  7  9  1  0  0  0  0
 10 13  1  0  0  0  0
 11 13  2  0  0  0  0
 12 13  2  0  0  0  0
  1 14  1  0  0  0  0
  2 15  1  0  0  0  0
  6 16  1  0  0  0  0
  6 17  1  0  0  0  0
  6 18  1  0  0  0  0
  7 19  1  0  0  0  0
  7 20  1  0  0  0  0
  9 21  1  0  0  0  0
  9 22  1  0  0  0  0
 10 23  1  0  0  0  0
 10 24  1  0  0  0  0
M  END
> <Mol Weight>
237,70

> <Formula>
C7H12ClN3O2S

> <ID>
EN300-247326

> <name>
Sulfonamides

> <LogP>
-1,53

> <ROCS_ShapeQuery>
x0310_0A_x0719_0A_x1080_0A_x0739_0A_x0929_0A_x0526_0A_x0911_0A

> <ROCS_TanimotoCombo>
0.294 

> <ROCS_ShapeTanimoto>
0.164 

> <ROCS_ColorTanimoto>
0.130 

> <ROCS_RefTversky>
0.157 

> <ROCS_RefColorTversky>
0.147 

> <ROCS_RefTverskyCombo>
0.304 

> <ROCS_FitTversky>
1.348 

> <ROCS_FitColorTversky>
0.524 

> <ROCS_FitTverskyCombo>
1.872 

> <ROCS_ColorScore>
-4.278

> <ROCS_Overlap>
1259.566

> <ROCS_Rank>
495                 

$$$$
untitled-dbase-1263_0
  -OEChem-02092407103D

 19 20  0     0  0  0  0  0  0999 V2000
    9.0644    9.6578   23.2185 C   0  0  0  0  0  0  0  0  0  0  0  0
    8.3862   10.5763   22.4235 C   0  0  0  0  0  0  0  0  0  0  0  0
    7.5365   13.0332   22.3639 C   0  0  0  0  0  0  0  0  0  0  0  0
    9.5081   10.0689   24.4629 C   0  0  0  0  0  0  0  0  0  0  0  0
    8.1808   11.8806   22.9175 C   0  0  0  0  0  0  0  0  0  0  0  0
    8.6808   12.1563   24.1859 C   0  0  0  0  0  0  0  0  0  0  0  0
    7.5706   14.1174   23.2131 C   0  0  0  0  0  0  0  0  0  0  0  0
    9.3433   11.3002   24.9919 N   0  0  0  0  0  0  0  0  0  0  0  0
    6.2524   15.7168   21.5371 N   0  0  0  0  0  0  0  0  0  0  0  0
    5.9184   15.9297   24.0844 O   0  0  0  0  0  0  0  0  0  0  0  0
    8.1010   16.6630   23.0616 O   0  0  0  0  0  0  0  0  0  0  0  0
    8.3748   13.7599   24.6790 S   0  0  0  0  0  0  0  0  0  0  0  0
    6.9622   15.7615   23.0883 S   0  0  0  0  0  0  0  0  0  0  0  0
    9.2414    8.6463   22.8702 H   0  0  0  0  0  0  0  0  0  0  0  0
    8.0235   10.2879   21.4413 H   0  0  0  0  0  0  0  0  0  0  0  0
    7.0708   13.0624   21.3866 H   0  0  0  0  0  0  0  0  0  0  0  0
   10.0396    9.3717   25.1051 H   0  0  0  0  0  0  0  0  0  0  0  0
    6.8786   15.6767   20.7237 H   0  0  0  0  0  0  0  0  0  0  0  0
    5.3859   15.1772   21.4210 H   0  0  0  0  0  0  0  0  0  0  0  0
  1  2  2  0  0  0  0
  1  4  1  0  0  0  0
  2  5  1  0  0  0  0
  3  5  1  0  0  0  0
  3  7  2  0  0  0  0
  4  8  2  0  0  0  0
  5  6  2  0  0  0  0
  6  8  1  0  0  0  0
  6 12  1  0  0  0  0
  7 12  1  0  0  0  0
  7 13  1  0  0  0  0
  9 13  1  0  0  0  0
 10 13  2  0  0  0  0
 11 13  2  0  0  0  0
  1 14  1  0  0  0  0
  2 15  1  0  0  0  0
  3 16  1  0  0  0  0
  4 17  1  0  0  0  0
  9 18  1  0  0  0  0
  9 19  1  0  0  0  0
M  END
> <Mol Weight>
214,26

> <Formula>
C7H6N2O2S2

> <ID>
EN300-19596531

> <name>
Sulfonamides

> <LogP>
0,77

> <ROCS_ShapeQuery>
x0310_0A_x0719_0A_x1080_0A_x0739_0A_x0929_0A_x0526_0A_x0911_0A

> <ROCS_TanimotoCombo>
0.294 

> <ROCS_ShapeTanimoto>
0.165 

> <ROCS_ColorTanimoto>
0.128 

> <ROCS_RefTversky>
0.158 

> <ROCS_RefColorTversky>
0.142 

> <ROCS_RefTverskyCombo>
0.301 

> <ROCS_FitTversky>
1.343 

> <ROCS_FitColorTversky>
0.571 

> <ROCS_FitTverskyCombo>
1.914 

> <ROCS_ColorScore>
-4.131

> <ROCS_Overlap>
1268.740

> <ROCS_Rank>
496                 

$$$$
untitled-dbase-986_2
  -OEChem-02092407103D

 17 18  0     0  0  0  0  0  0999 V2000
    8.3241   11.3877   24.6287 C   0  0  0  0  0  0  0  0  0  0  0  0
    8.3036   12.1415   23.4664 C   0  0  0  0  0  0  0  0  0  0  0  0
    9.0107   10.0953   23.1211 C   0  0  0  0  0  0  0  0  0  0  0  0
    8.9919   11.3204   21.1563 C   0  0  0  0  0  0  0  0  0  0  0  0
    9.4469   10.1387   20.7060 C   0  0  0  0  0  0  0  0  0  0  0  0
    8.7713   10.0989   24.4030 N   0  0  0  0  0  0  0  0  0  0  0  0
    8.7513   11.2836   22.5091 N   0  0  0  0  0  0  0  0  0  0  0  0
    9.3340   14.5978   23.3661 N   0  0  0  0  0  0  0  0  0  0  0  0
    7.4711   13.8922   21.7299 O   0  0  0  0  0  0  0  0  0  0  0  0
    6.9119   14.2301   24.1632 O   0  0  0  0  0  0  0  0  0  0  0  0
    9.5923    8.9184   21.9838 S   0  0  0  0  0  0  0  0  0  0  0  0
    7.8410   13.8064   23.1311 S   0  0  0  0  0  0  0  0  0  0  0  0
    8.0389   11.7089   25.6205 H   0  0  0  0  0  0  0  0  0  0  0  0
    8.8196   12.2129   20.5746 H   0  0  0  0  0  0  0  0  0  0  0  0
    9.7070    9.9206   19.6800 H   0  0  0  0  0  0  0  0  0  0  0  0
    9.6871   14.6800   24.3274 H   0  0  0  0  0  0  0  0  0  0  0  0
   10.0700   14.4515   22.6646 H   0  0  0  0  0  0  0  0  0  0  0  0
  1  2  2  0  0  0  0
  1  6  1  0  0  0  0
  2  7  1  0  0  0  0
  2 12  1  0  0  0  0
  3  6  2  0  0  0  0
  3  7  1  0  0  0  0
  3 11  1  0  0  0  0
  4  5  2  0  0  0  0
  4  7  1  0  0  0  0
  5 11  1  0  0  0  0
  8 12  1  0  0  0  0
  9 12  2  0  0  0  0
 10 12  2  0  0  0  0
  1 13  1  0  0  0  0
  4 14  1  0  0  0  0
  5 15  1  0  0  0  0
  8 16  1  0  0  0  0
  8 17  1  0  0  0  0
M  END
> <Mol Weight>
203,23

> <Formula>
C5H5N3O2S2

> <ID>
EN300-1197788

> <name>
Sulfonamides

> <LogP>
-0,51

> <ROCS_ShapeQuery>
x0310_0A_x0719_0A_x1080_0A_x0739_0A_x0929_0A_x0526_0A_x0911_0A

> <ROCS_TanimotoCombo>
0.293 

> <ROCS_ShapeTanimoto>
0.148 

> <ROCS_ColorTanimoto>
0.146 

> <ROCS_RefTversky>
0.143 

> <ROCS_RefColorTversky>
0.163 

> <ROCS_RefTverskyCombo>
0.306 

> <ROCS_FitTversky>
1.258 

> <ROCS_FitColorTversky>
0.577 

> <ROCS_FitTverskyCombo>
1.835 

> <ROCS_ColorScore>
-4.742

> <ROCS_Overlap>
1147.859

> <ROCS_Rank>
497                 

$$$$
untitled-dbase-2508_167
  -OEChem-02092407103D

 28 28  0     0  0  0  0  0  0999 V2000
    9.1370   10.8159   25.1141 C   0  0  0  0  0  0  0  0  0  0  0  0
    9.7631   10.0669   24.1179 C   0  0  0  0  0  0  0  0  0  0  0  0
    8.2544   11.8388   24.7670 C   0  0  0  0  0  0  0  0  0  0  0  0
    8.6244   11.3639   22.4272 C   0  0  0  0  0  0  0  0  0  0  0  0
    9.5069   10.3410   22.7744 C   0  0  0  0  0  0  0  0  0  0  0  0
    7.9982   12.1128   23.4235 C   0  0  0  0  0  0  0  0  0  0  0  0
   10.1768    9.5397   21.7097 C   0  0  0  0  0  0  0  0  0  0  0  0
    5.2082   11.4677   21.9754 C   0  0  0  0  0  0  0  0  0  0  0  0
    4.0689   11.7303   21.0230 C   0  0  0  0  0  0  0  0  0  0  0  0
    9.8687    8.1354   21.8054 N   0  0  0  0  0  0  0  0  0  0  0  0
    5.3937   12.5796   22.9187 N   0  0  0  0  0  0  0  0  0  0  0  0
    6.8481   14.3619   24.0784 O   0  0  0  0  0  0  0  0  0  0  0  0
    7.2424   13.8457   21.6489 O   0  0  0  0  0  0  0  0  0  0  0  0
    3.9213   10.6957   20.1660 F   0  0  0  0  0  0  0  0  0  0  0  0
    2.9009   11.8852   21.6821 F   0  0  0  0  0  0  0  0  0  0  0  0
    4.2867   12.8418   20.2884 F   0  0  0  0  0  0  0  0  0  0  0  0
    6.8947   13.3941   22.9897 S   0  0  0  0  0  0  0  0  0  0  0  0
    9.3359   10.6021   26.1603 H   0  0  0  0  0  0  0  0  0  0  0  0
   10.4484    9.2711   24.3977 H   0  0  0  0  0  0  0  0  0  0  0  0
    7.7727   12.4162   25.5515 H   0  0  0  0  0  0  0  0  0  0  0  0
    8.4253   11.5763   21.3795 H   0  0  0  0  0  0  0  0  0  0  0  0
    9.8718    9.8769   20.7092 H   0  0  0  0  0  0  0  0  0  0  0  0
   11.2699    9.6391   21.7583 H   0  0  0  0  0  0  0  0  0  0  0  0
    6.1466   11.3370   21.4285 H   0  0  0  0  0  0  0  0  0  0  0  0
    5.0205   10.5637   22.5620 H   0  0  0  0  0  0  0  0  0  0  0  0
    8.8874    8.0030   21.6746 H   0  0  0  0  0  0  0  0  0  0  0  0
   10.3719    7.6387   21.0999 H   0  0  0  0  0  0  0  0  0  0  0  0
    4.5427   13.0868   23.1904 H   0  0  0  0  0  0  0  0  0  0  0  0
  1  2  2  0  0  0  0
  1  3  1  0  0  0  0
  2  5  1  0  0  0  0
  3  6  2  0  0  0  0
  4  5  2  0  0  0  0
  4  6  1  0  0  0  0
  5  7  1  0  0  0  0
  6 17  1  0  0  0  0
  7 10  1  0  0  0  0
  8  9  1  0  0  0  0
  8 11  1  0  0  0  0
  9 14  1  0  0  0  0
  9 15  1  0  0  0  0
  9 16  1  0  0  0  0
 11 17  1  0  0  0  0
 12 17  2  0  0  0  0
 13 17  2  0  0  0  0
  1 18  1  0  0  0  0
  2 19  1  0  0  0  0
  3 20  1  0  0  0  0
  4 21  1  0  0  0  0
  7 22  1  0  0  0  0
  7 23  1  0  0  0  0
  8 24  1  0  0  0  0
  8 25  1  0  0  0  0
 10 26  1  0  0  0  0
 10 27  1  0  0  0  0
 11 28  1  0  0  0  0
M  END
> <Mol Weight>
268,25

> <Formula>
C9H11F3N2O2S

> <ID>
EN300-225905

> <name>
Sulfonamides

> <LogP>
0,32

> <ROCS_ShapeQuery>
x0310_0A_x0719_0A_x1080_0A_x0739_0A_x0929_0A_x0526_0A_x0911_0A

> <ROCS_TanimotoCombo>
0.293 

> <ROCS_ShapeTanimoto>
0.167 

> <ROCS_ColorTanimoto>
0.126 

> <ROCS_RefTversky>
0.163 

> <ROCS_RefColorTversky>
0.140 

> <ROCS_RefTverskyCombo>
0.303 

> <ROCS_FitTversky>
1.185 

> <ROCS_FitColorTversky>
0.562 

> <ROCS_FitTverskyCombo>
1.747 

> <ROCS_ColorScore>
-4.056

> <ROCS_Overlap>
1307.007

> <ROCS_Rank>
498                 

$$$$
untitled-dbase-2698_191
  -OEChem-02092407103D

 25 25  0     0  0  0  0  0  0999 V2000
    9.3658   10.2753   24.2728 C   0  0  0  0  0  0  0  0  0  0  0  0
    9.8004   10.5989   22.9876 C   0  0  0  0  0  0  0  0  0  0  0  0
    7.9176   12.2091   24.2702 C   0  0  0  0  0  0  0  0  0  0  0  0
    8.4244   11.0804   24.9142 C   0  0  0  0  0  0  0  0  0  0  0  0
    8.3522   12.5328   22.9848 C   0  0  0  0  0  0  0  0  0  0  0  0
    9.2936   11.7276   22.3435 C   0  0  0  0  0  0  0  0  0  0  0  0
    7.0359   11.6302   26.7650 C   0  0  0  0  0  0  0  0  0  0  0  0
   11.1945   13.1085   21.0847 N   0  0  0  0  0  0  0  0  0  0  0  0
   10.3294   10.8843   20.1099 O   0  0  0  0  0  0  0  0  0  0  0  0
    8.8348   12.9122   20.0696 O   0  0  0  0  0  0  0  0  0  0  0  0
    6.6476   14.5528   24.3974 O   0  0  0  0  0  0  0  0  0  0  0  0
    8.4103   15.9455   23.2187 O   0  0  0  0  0  0  0  0  0  0  0  0
    7.9998   10.7640   26.1679 O   0  0  0  0  0  0  0  0  0  0  0  0
    7.8426   13.6390   22.3743 O   0  0  0  0  0  0  0  0  0  0  0  0
    6.2182   15.6152   22.2802 F   0  0  0  0  0  0  0  0  0  0  0  0
    9.8536   12.1111   20.7314 S   0  0  0  0  0  0  0  0  0  0  0  0
    7.3433   14.9649   23.1944 S   0  0  0  0  0  0  0  0  0  0  0  0
    9.7636    9.3944   24.7696 H   0  0  0  0  0  0  0  0  0  0  0  0
   10.5347    9.9644   22.4984 H   0  0  0  0  0  0  0  0  0  0  0  0
    7.1840   12.8365   24.7704 H   0  0  0  0  0  0  0  0  0  0  0  0
    6.7840   11.2633   27.7630 H   0  0  0  0  0  0  0  0  0  0  0  0
    6.1394   11.6645   26.1408 H   0  0  0  0  0  0  0  0  0  0  0  0
    7.4607   12.6336   26.8446 H   0  0  0  0  0  0  0  0  0  0  0  0
   12.1343   12.7292   20.9161 H   0  0  0  0  0  0  0  0  0  0  0  0
   11.1114   14.1137   20.8900 H   0  0  0  0  0  0  0  0  0  0  0  0
  1  2  2  0  0  0  0
  1  4  1  0  0  0  0
  2  6  1  0  0  0  0
  3  4  2  0  0  0  0
  3  5  1  0  0  0  0
  4 13  1  0  0  0  0
  5  6  2  0  0  0  0
  5 14  1  0  0  0  0
  6 16  1  0  0  0  0
  7 13  1  0  0  0  0
  8 16  1  0  0  0  0
  9 16  2  0  0  0  0
 10 16  2  0  0  0  0
 11 17  2  0  0  0  0
 12 17  2  0  0  0  0
 14 17  1  0  0  0  0
 15 17  1  0  0  0  0
  1 18  1  0  0  0  0
  2 19  1  0  0  0  0
  3 20  1  0  0  0  0
  7 21  1  0  0  0  0
  7 22  1  0  0  0  0
  7 23  1  0  0  0  0
  8 24  1  0  0  0  0
  8 25  1  0  0  0  0
M  END
> <Mol Weight>
285,26

> <Formula>
C7H8FNO6S2

> <ID>
EN300-7489971

> <name>
Sulfonamides

> <LogP>
0,12

> <ROCS_ShapeQuery>
x0310_0A_x0719_0A_x1080_0A_x0739_0A_x0929_0A_x0526_0A_x0911_0A

> <ROCS_TanimotoCombo>
0.293 

> <ROCS_ShapeTanimoto>
0.173 

> <ROCS_ColorTanimoto>
0.121 

> <ROCS_RefTversky>
0.167 

> <ROCS_RefColorTversky>
0.138 

> <ROCS_RefTverskyCombo>
0.305 

> <ROCS_FitTversky>
1.221 

> <ROCS_FitColorTversky>
0.491 

> <ROCS_FitTverskyCombo>
1.712 

> <ROCS_ColorScore>
-4.014

> <ROCS_Overlap>
1340.959

> <ROCS_Rank>
499                 

$$$$
untitled-dbase-1996_71
  -OEChem-02092407103D

 32 33  0     1  0  0  0  0  0999 V2000
    2.3011   12.2898   18.8346 C   0  0  0  0  0  0  0  0  0  0  0  0
    2.4531   12.3061   20.2210 C   0  0  0  0  0  0  0  0  0  0  0  0
    3.3385   11.8276   18.0246 C   0  0  0  0  0  0  0  0  0  0  0  0
    3.6425   11.8604   20.7975 C   0  0  0  0  0  0  0  0  0  0  0  0
    4.5278   11.3819   18.6011 C   0  0  0  0  0  0  0  0  0  0  0  0
    4.6799   11.3983   19.9875 C   0  0  0  0  0  0  0  0  0  0  0  0
    8.6093   13.0365   21.9943 C   0  0  0  0  0  0  0  0  0  0  0  0
    7.9567   11.6823   21.7535 C   0  0  0  0  0  0  0  0  0  0  0  0
    6.3117   13.2353   21.2376 C   0  0  0  0  0  0  0  0  0  0  0  0
    7.5116   14.0562   21.6970 C   0  0  1  0  0  0  0  0  0  0  0  0
    5.9605   10.9185   20.6074 C   0  0  0  0  0  0  0  0  0  0  0  0
    6.9273   11.9953   20.7624 N   0  0  2  0  0  0  0  0  0  0  0  0
    5.5802   15.6159   22.6393 N   0  0  0  0  0  0  0  0  0  0  0  0
    6.9931   14.1970   24.2540 O   0  0  0  0  0  0  0  0  0  0  0  0
    8.0435   16.1896   23.1088 O   0  0  0  0  0  0  0  0  0  0  0  0
    7.1276   15.0611   23.0931 S   0  0  0  0  0  0  0  0  0  0  0  0
    1.3745   12.6357   18.3859 H   0  0  0  0  0  0  0  0  0  0  0  0
    1.6451   12.6649   20.8519 H   0  0  0  0  0  0  0  0  0  0  0  0
    3.2201   11.8138   16.9452 H   0  0  0  0  0  0  0  0  0  0  0  0
    3.7521   11.8769   21.8787 H   0  0  0  0  0  0  0  0  0  0  0  0
    5.3307   11.0237   17.9621 H   0  0  0  0  0  0  0  0  0  0  0  0
    9.0198   13.1085   23.0066 H   0  0  0  0  0  0  0  0  0  0  0  0
    9.4370   13.1800   21.2886 H   0  0  0  0  0  0  0  0  0  0  0  0
    8.6785   10.9478   21.3828 H   0  0  0  0  0  0  0  0  0  0  0  0
    7.5210   11.3072   22.6884 H   0  0  0  0  0  0  0  0  0  0  0  0
    5.6150   13.0483   22.0651 H   0  0  0  0  0  0  0  0  0  0  0  0
    5.7634   13.7453   20.4385 H   0  0  0  0  0  0  0  0  0  0  0  0
    7.8436   14.7405   20.9077 H   0  0  0  0  0  0  0  0  0  0  0  0
    5.7729   10.4886   21.5973 H   0  0  0  0  0  0  0  0  0  0  0  0
    6.4244   10.1374   19.9961 H   0  0  0  0  0  0  0  0  0  0  0  0
    4.7706   15.2467   23.1529 H   0  0  0  0  0  0  0  0  0  0  0  0
    5.4861   16.6037   22.3728 H   0  0  0  0  0  0  0  0  0  0  0  0
  1  2  1  0  0  0  0
  1  3  2  0  0  0  0
  2  4  2  0  0  0  0
  3  5  1  0  0  0  0
  4  6  1  0  0  0  0
  5  6  2  0  0  0  0
  6 11  1  0  0  0  0
  7  8  1  0  0  0  0
  7 10  1  0  0  0  0
  8 12  1  0  0  0  0
  9 10  1  0  0  0  0
  9 12  1  0  0  0  0
 10 16  1  0  0  0  0
 11 12  1  0  0  0  0
 13 16  1  0  0  0  0
 14 16  2  0  0  0  0
 15 16  2  0  0  0  0
  1 17  1  0  0  0  0
  2 18  1  0  0  0  0
  3 19  1  0  0  0  0
  4 20  1  0  0  0  0
  5 21  1  0  0  0  0
  7 22  1  0  0  0  0
  7 23  1  0  0  0  0
  8 24  1  0  0  0  0
  8 25  1  0  0  0  0
  9 26  1  0  0  0  0
  9 27  1  0  0  0  0
 10 28  1  0  0  0  0
 11 29  1  0  0  0  0
 11 30  1  0  0  0  0
 13 31  1  0  0  0  0
 13 32  1  0  0  0  0
M  END
> <Mol Weight>
240,32

> <Formula>
C11H16N2O2S

> <ID>
EN300-51168

> <name>
Sulfonamides

> <LogP>
0,46

> <ROCS_ShapeQuery>
x0310_0A_x0719_0A_x1080_0A_x0739_0A_x0929_0A_x0526_0A_x0911_0A

> <ROCS_TanimotoCombo>
0.293 

> <ROCS_ShapeTanimoto>
0.169 

> <ROCS_ColorTanimoto>
0.125 

> <ROCS_RefTversky>
0.163 

> <ROCS_RefColorTversky>
0.138 

> <ROCS_RefTverskyCombo>
0.302 

> <ROCS_FitTversky>
1.229 

> <ROCS_FitColorTversky>
0.557 

> <ROCS_FitTverskyCombo>
1.786 

> <ROCS_ColorScore>
-4.021

> <ROCS_Overlap>
1309.277

> <ROCS_Rank>
500                 

$$$$
